data_mof_unit_59181.cif
_audit_creation_date              2012-10-26T20:18:18-0400
_audit_creation_method            fapswitch 2.2
_symmetry_space_group_name_H-M    P1
_symmetry_Int_Tables_number       1
_space_group_crystal_system       triclinic
_cell_length_a                    23.537395
_cell_length_b                    8.673009
_cell_length_c                    7.426573
_cell_angle_alpha                 103.095207
_cell_angle_beta                  94.220726
_cell_angle_gamma                 92.455553
_cell_volume                      1469.86367733

loop_
_atom_site_label
_atom_site_type_symbol
_atom_type_description
_atom_site_fract_x
_atom_site_fract_y
_atom_site_fract_z
_atom_type_partial_charge
C1    C     C_R   0.498252 0.199547 0.453070 0.554988
C2    C     C_R   0.709400 0.584136 0.654210 0.006284
C3    C     C_R   0.238919 0.444625 0.630434 0.014073
C4    C     C_R   0.768252 0.575083 0.642691 0.003015
C5    C     C_R   0.208807 0.500457 0.490991 0.168737
C6    C     C_R   0.790804 0.512439 0.474282 0.165643
C7    C     C_2   0.497399 0.031580 0.426629 -0.140881
C8    C     C_2   0.502507 0.968419 0.573407 -0.143562
C9    C     C_R   0.390924 0.496021 0.501804 0.532540
C10   C     C_R   0.609151 0.506900 0.498776 0.534462
C11   C     C_R   0.883853 0.651278 0.515170 0.418000
C12   C     C_R   0.501710 0.800454 0.546943 0.551266
C13   C     C_R   0.115886 0.360083 0.432317 0.415331
C14   C     C_R   0.876593 0.368315 0.434221 0.398886
C15   C     C_R   0.123270 0.641873 0.541244 0.405799
C16   C     C_R   0.935816 0.364279 0.428805 0.021200
C17   C     C_R   0.063923 0.645984 0.539393 0.019742
C18   C     C_R   0.969888 0.507200 0.481508 -0.044864
C19   C     C_R   0.029816 0.503397 0.479852 -0.047136
C20   C     C_R   0.944052 0.653405 0.536857 0.038157
C21   C     C_R   0.055546 0.357521 0.419068 0.035476
C22   C     C_R   0.961084 0.220582 0.367886 -0.141285
C23   C     C_R   0.238055 0.552578 0.354946 0.060938
C24   C     C_R   0.038516 0.789522 0.600576 -0.139666
C25   C     C_R   0.019872 0.215829 0.353922 -0.013971
C26   C     C_R   0.979438 0.794935 0.605517 -0.016423
C27   C     C_2   0.040042 0.061199 0.259140 0.302945
C28   C     C_2   0.958503 0.949178 0.698661 0.305487
C29   C     C_2   0.206655 0.605259 0.200748 0.314216
C30   C     C_2   0.776857 0.400877 0.128408 0.336559
C31   C     C_2   0.327090 0.357663 0.772480 0.267353
C32   C     C_2   0.689224 0.674535 0.830487 0.282117
C33   C     C_R   0.754004 0.455855 0.311775 0.072154
C34   C     C_R   0.297598 0.551424 0.364964 -0.077728
C35   C     C_R   0.694887 0.455299 0.324786 -0.092781
C36   C     C_R   0.328262 0.494549 0.503762 -0.051966
C37   C     C_R   0.671916 0.516628 0.494252 -0.054156
C38   C     C_R   0.298365 0.436852 0.636367 -0.001713
Cu1   Cu    Cu3+1 0.506340 0.517380 0.684380 0.976147
Cu2   Cu    Cu3+1 0.493660 0.482620 0.315620 0.996417
H1    H     H_    0.934526 0.111316 0.321404 0.179829
H2    H     H_    0.544673 0.622122 0.051763 0.241576
H3    H     H_    0.022725 0.952638 0.289133 0.089773
H4    H     H_    0.978416 0.058643 0.678844 0.094533
H5    H     H_    0.160377 0.597079 0.185156 0.129599
H6    H     H_    0.822112 0.416054 0.113592 0.131365
H7    H     H_    0.368050 0.308010 0.748946 0.109172
H8    H     H_    0.648617 0.728842 0.831684 0.128622
H9    H     H_    0.064995 0.898425 0.651740 0.180829
H10   H     H_    0.320368 0.594485 0.262700 0.200165
H11   H     H_    0.666476 0.407409 0.201291 0.186453
H12   H     H_    0.215127 0.401889 0.730759 0.196626
H13   H     H_    0.797510 0.622275 0.764398 0.190430
H14   H     H_    0.492594 0.959605 0.285326 0.139701
H15   H     H_    0.507305 0.040393 0.714713 0.138244
H16   H     H_    0.455673 0.377049 0.948197 0.237577
N1    N     N_R   0.851783 0.510358 0.471808 -0.430056
N2    N     N_R   0.147791 0.500870 0.487316 -0.430483
N3    N     N_2   0.484110 0.456420 0.038520 -0.248424
N4    N     N_2   0.515890 0.543580 0.961480 -0.255259
O1    O     O_R   0.504120 0.286130 0.619770 -0.507889
O2    O     O_2   0.142925 0.224000 0.396107 -0.412374
O3    O     O_2   0.843862 0.231492 0.400171 -0.437128
O4    O     O_2   0.156510 0.777589 0.598179 -0.435231
O5    O     O_2   0.072188 0.052387 0.135934 -0.422794
O6    O     O_2   0.922398 0.956285 0.809707 -0.423714
O7    O     O_2   0.232108 0.658029 0.088123 -0.465611
O8    O     O_2   0.745316 0.338758 0.990687 -0.471614
O9    O     O_2   0.304484 0.343101 0.911039 -0.480486
O10   O     O_2   0.718794 0.694069 0.976987 -0.479462
O11   O     O_R   0.495880 0.713870 0.380230 -0.505257
O12   O     O_R   0.493410 0.256770 0.308360 -0.490730
O13   O     O_R   0.506590 0.743230 0.691640 -0.499725
O14   O     O_R   0.423230 0.514630 0.655730 -0.512124
O15   O     O_R   0.576770 0.485370 0.344270 -0.503749
O16   O     O_R   0.412530 0.485280 0.344320 -0.481547
O17   O     O_R   0.587470 0.514720 0.655680 -0.505211
O18   O     O_2   0.857231 0.787649 0.530437 -0.407429

loop_
_geom_bond_atom_site_label_1
_geom_bond_atom_site_label_2
_ccdc_geom_bond_type
Cu2   O11   S    
C4    H13   S    
C28   O6    D    
C7    C8    D    
C5    N2    S    
C10   C37   S    
C23   C29   S    
C35   C37   A    
C24   C26   A    
C22   H1    S    
C14   O3    S    
C2    C32   S    
C18   C19   A    
Cu1   O14   S    
C17   C19   A    
C29   O7    D    
C13   O2    S    
C3    C38   A    
C22   C25   A    
C9    C36   S    
C15   O4    S    
C9    O16   A    
C34   C36   A    
N3    N4    D    
Cu2   N3    S    
C31   H7    S    
C12   O13   A    
C32   H8    S    
C6    N1    S    
C8    H15   S    
C10   O17   A    
Cu1   O1    S    
C11   C20   A    
C34   H10   S    
C17   C24   A    
C1    O12   A    
C4    C6    A    
H2    N4    S    
Cu1   Cu2   S    
C32   O10   D    
C13   N2    A    
C28   H4    S    
Cu2   O16   S    
C29   H5    S    
C2    C4    A    
Cu2   O15   S    
C27   O5    D    
C11   O18   S    
C10   O15   A    
C5    C23   A    
C8    C12   S    
C23   C34   A    
C13   C21   A    
C12   O11   A    
C35   H11   S    
C15   N2    A    
C14   C16   A    
C9    O14   A    
Cu1   O17   S    
C24   H9    S    
C15   C17   A    
C14   N1    A    
C21   C25   A    
C16   C22   A    
Cu2   O12   S    
C30   C33   S    
C19   C21   A    
C1    C7    S    
C30   H6    S    
C3    C5    A    
C1    O1    A    
C3    H12   S    
H16   N3    S    
C31   C38   S    
C25   C27   S    
C26   C28   S    
C6    C33   A    
C36   C38   A    
C2    C37   A    
C20   C26   A    
Cu1   N4    S    
C33   C35   A    
C18   C20   A    
Cu1   O13   S    
C27   H3    S    
C31   O9    D    
C16   C18   A    
C7    H14   S    
C11   N1    A    
C30   O8    D    
