data_mof_unit_35564.cif
_audit_creation_date              2012-12-10T22:16:58-0500
_audit_creation_method            fapswitch 2.2
_symmetry_space_group_name_H-M    P1
_symmetry_Int_Tables_number       1
_space_group_crystal_system       triclinic
_cell_length_a                    32.703957
_cell_length_b                    32.685
_cell_length_c                    32.701245
_cell_angle_alpha                 90.05592
_cell_angle_beta                  89.985376
_cell_angle_gamma                 89.974856
_cell_volume                      34955.2825493

loop_
_atom_site_label
_atom_site_type_symbol
_atom_type_description
_atom_site_fract_x
_atom_site_fract_y
_atom_site_fract_z
_atom_type_partial_charge
C1    C     C_R   0.366133 0.418598 0.865837 0.355572
C2    C     C_R   0.130587 0.577734 0.369733 0.359455
C3    C     C_R   0.634832 0.418010 0.134950 0.355231
C4    C     C_R   0.866908 0.579878 0.632712 0.329560
C5    C     C_R   0.366193 0.581383 0.134118 0.355383
C6    C     C_R   0.133197 0.420077 0.632806 0.329145
C7    C     C_R   0.635212 0.582422 0.864700 0.346565
C8    C     C_R   0.869123 0.421713 0.369439 0.363551
C9    C     C_R   0.581334 0.865813 0.634001 0.353837
C10   C     C_R   0.422573 0.369864 0.869344 0.352161
C11   C     C_R   0.581699 0.134414 0.365879 0.355139
C12   C     C_R   0.422778 0.629893 0.130452 0.352724
C13   C     C_R   0.418237 0.134722 0.634498 0.356085
C14   C     C_R   0.581113 0.633609 0.866848 0.343648
C15   C     C_R   0.418613 0.865808 0.366078 0.355936
C16   C     C_R   0.581644 0.365670 0.134434 0.342932
C17   C     C_R   0.134393 0.634204 0.418479 0.350767
C18   C     C_R   0.633331 0.866549 0.580441 0.340801
C19   C     C_R   0.865149 0.365239 0.418050 0.348775
C20   C     C_R   0.365821 0.134239 0.581377 0.339140
C21   C     C_R   0.866065 0.633631 0.581019 0.359683
C22   C     C_R   0.370071 0.869485 0.422650 0.352423
C23   C     C_R   0.134116 0.366241 0.581097 0.362040
C24   C     C_R   0.630306 0.130868 0.422367 0.351870
C25   C     C_R   0.867211 0.920208 0.866196 0.354538
C26   C     C_R   0.135374 0.081730 0.865070 0.373910
C27   C     C_R   0.136522 0.916345 0.136111 0.368894
C28   C     C_R   0.871311 0.075807 0.128443 0.365607
C29   C     C_R   0.082747 0.864613 0.135254 0.343041
C30   C     C_R   0.919410 0.866338 0.865829 0.371589
C31   C     C_R   0.083791 0.136167 0.863452 0.369028
C32   C     C_R   0.924137 0.128552 0.128800 0.363108
C33   C     C_R   0.135547 0.135387 0.917189 0.343704
C34   C     C_R   0.134903 0.864697 0.081693 0.376616
C35   C     C_R   0.862480 0.862777 0.914210 0.382886
C36   C     C_R   0.871497 0.128791 0.075880 0.363374
C37   C     C_R   0.371497 0.923617 0.371426 0.376563
C38   C     C_R   0.628513 0.076396 0.371429 0.380514
C39   C     C_R   0.637044 0.915427 0.636873 0.377303
C40   C     C_R   0.365182 0.082139 0.634885 0.366687
C41   C     C_R   0.076738 0.371599 0.628687 0.372063
C42   C     C_R   0.918314 0.365512 0.365652 0.368574
C43   C     C_R   0.079633 0.632282 0.367790 0.351051
C44   C     C_R   0.923550 0.628122 0.628428 0.375680
C45   C     C_R   0.634491 0.633515 0.919645 0.380629
C46   C     C_R   0.635005 0.365046 0.082189 0.365960
C47   C     C_R   0.370909 0.370872 0.923122 0.375184
C48   C     C_R   0.371538 0.628423 0.076327 0.379069
C49   C     C_R   0.458533 0.145459 0.958532 0.991201
C50   C     C_R   0.041435 0.854588 0.458564 0.987751
C51   C     C_R   0.541449 0.145434 0.041449 0.988947
C52   C     C_R   0.958524 0.854523 0.541477 0.988758
C53   C     C_R   0.458526 0.854525 0.041475 0.992913
C54   C     C_R   0.041449 0.145433 0.541449 0.987618
C55   C     C_R   0.541458 0.854556 0.958545 0.988801
C56   C     C_R   0.958529 0.145471 0.458526 0.985123
C57   C     C_R   0.854565 0.958537 0.541456 0.988412
C58   C     C_R   0.145411 0.458555 0.958561 0.987532
C59   C     C_R   0.854585 0.041451 0.458555 0.992570
C60   C     C_R   0.145439 0.541463 0.041457 0.988323
C61   C     C_R   0.145446 0.041467 0.541460 0.988259
C62   C     C_R   0.854576 0.541456 0.958550 0.985485
C63   C     C_R   0.145418 0.958552 0.458556 0.991202
C64   C     C_R   0.854556 0.458531 0.041461 0.984917
C65   C     C_R   0.041442 0.541450 0.145417 0.991665
C66   C     C_R   0.541446 0.958549 0.854583 0.984353
C67   C     C_R   0.958539 0.458532 0.145444 0.989495
C68   C     C_R   0.458523 0.041483 0.854528 0.984584
C69   C     C_R   0.958534 0.541473 0.854544 0.991617
C70   C     C_R   0.458540 0.958532 0.145445 0.987931
C71   C     C_R   0.041435 0.458557 0.854592 0.990670
C72   C     C_R   0.541437 0.041444 0.145409 0.988699
C73   C     C_R   0.958537 0.645457 0.958535 0.987251
C74   C     C_R   0.041444 0.354570 0.958554 0.986100
C75   C     C_R   0.041453 0.645442 0.041455 0.988273
C76   C     C_R   0.958520 0.354518 0.041480 0.990766
C77   C     C_R   0.354575 0.958543 0.041450 0.988064
C78   C     C_R   0.645463 0.958522 0.958528 0.986533
C79   C     C_R   0.354561 0.041465 0.958540 0.988120
C80   C     C_R   0.645439 0.041462 0.041455 0.992352
C81   C     C_R   0.041439 0.041445 0.645411 0.986958
C82   C     C_R   0.041442 0.958552 0.354581 0.985661
C83   C     C_R   0.958540 0.958533 0.645444 0.989549
C84   C     C_R   0.958533 0.041476 0.354542 0.991246
C85   C     C_R   0.458526 0.645472 0.458524 0.988383
C86   C     C_R   0.541446 0.354572 0.458553 0.988066
C87   C     C_R   0.541461 0.645451 0.541461 0.988725
C88   C     C_R   0.458512 0.354504 0.541490 0.988072
C89   C     C_R   0.354556 0.458529 0.541464 0.988189
C90   C     C_R   0.645429 0.458543 0.458549 0.988138
C91   C     C_R   0.354563 0.541465 0.458540 0.989146
C92   C     C_R   0.645459 0.541477 0.541470 0.987323
C93   C     C_R   0.541453 0.541459 0.645431 0.988553
C94   C     C_R   0.541444 0.458549 0.354580 0.988469
C95   C     C_R   0.458529 0.458521 0.645460 0.988644
C96   C     C_R   0.458522 0.541486 0.354527 0.988183
C97   C     C_R   0.459749 0.255311 0.959752 0.864207
C98   C     C_R   0.040344 0.744773 0.459656 0.863215
C99   C     C_R   0.540322 0.255281 0.040349 0.863095
C100  C     C_R   0.959815 0.744549 0.540156 0.865462
C101  C     C_R   0.459805 0.744615 0.040194 0.865119
C102  C     C_R   0.040206 0.255417 0.540191 0.867356
C103  C     C_R   0.539973 0.744420 0.959882 0.863247
C104  C     C_R   0.959716 0.255341 0.459730 0.863565
C105  C     C_R   0.744655 0.959690 0.540281 0.862510
C106  C     C_R   0.255258 0.459706 0.959679 0.863619
C107  C     C_R   0.744610 0.040210 0.459804 0.865327
C108  C     C_R   0.255275 0.540275 0.040309 0.864879
C109  C     C_R   0.255250 0.040359 0.540349 0.862195
C110  C     C_R   0.744696 0.540253 0.959699 0.866309
C111  C     C_R   0.255369 0.959784 0.459794 0.864322
C112  C     C_R   0.744530 0.459797 0.040199 0.867128
C113  C     C_R   0.040327 0.540348 0.255213 0.864387
C114  C     C_R   0.540388 0.959643 0.744713 0.864797
C115  C     C_R   0.959774 0.459764 0.255387 0.862630
C116  C     C_R   0.459814 0.040188 0.744516 0.866876
C117  C     C_R   0.959716 0.540261 0.744702 0.862246
C118  C     C_R   0.459720 0.959682 0.255267 0.863911
C119  C     C_R   0.040307 0.459703 0.744742 0.861022
C120  C     C_R   0.540276 0.040338 0.255261 0.865089
C121  C     C_R   0.959374 0.755033 0.959509 0.865587
C122  C     C_R   0.040231 0.244520 0.959736 0.860683
C123  C     C_R   0.040261 0.755367 0.040289 0.862935
C124  C     C_R   0.959689 0.244823 0.040322 0.867025
C125  C     C_R   0.245109 0.959456 0.040668 0.866809
C126  C     C_R   0.755568 0.959747 0.959964 0.858425
C127  C     C_R   0.244638 0.040299 0.959730 0.862871
C128  C     C_R   0.755193 0.040321 0.040301 0.868045
C129  C     C_R   0.040537 0.040674 0.754896 0.864961
C130  C     C_R   0.040250 0.959765 0.244512 0.860239
C131  C     C_R   0.959839 0.959802 0.755384 0.863436
C132  C     C_R   0.959682 0.040307 0.244810 0.868011
C133  C     C_R   0.459635 0.755116 0.459612 0.864899
C134  C     C_R   0.540382 0.244915 0.459581 0.865072
C135  C     C_R   0.540206 0.755390 0.540219 0.865272
C136  C     C_R   0.459672 0.244729 0.540319 0.864344
C137  C     C_R   0.244883 0.459598 0.540399 0.864636
C138  C     C_R   0.755223 0.459642 0.459697 0.864542
C139  C     C_R   0.244720 0.540301 0.459739 0.865335
C140  C     C_R   0.755120 0.540398 0.540389 0.864430
C141  C     C_R   0.540366 0.540400 0.755269 0.863975
C142  C     C_R   0.540331 0.459658 0.244734 0.864477
C143  C     C_R   0.459622 0.459655 0.755147 0.865479
C144  C     C_R   0.459617 0.540355 0.244871 0.865526
C145  C     C_R   0.402840 0.402765 0.850019 -0.111187
C146  C     C_R   0.149821 0.597213 0.402864 -0.111429
C147  C     C_R   0.599329 0.400779 0.151931 -0.117597
C148  C     C_R   0.848924 0.598212 0.598262 -0.115524
C149  C     C_R   0.402921 0.597158 0.149907 -0.110966
C150  C     C_R   0.151196 0.401729 0.598327 -0.116365
C151  C     C_R   0.599283 0.599255 0.848397 -0.114579
C152  C     C_R   0.849700 0.402169 0.402417 -0.113721
C153  C     C_R   0.598201 0.849182 0.598137 -0.116482
C154  C     C_R   0.597535 0.150284 0.402548 -0.109834
C155  C     C_R   0.400959 0.151709 0.599012 -0.117125
C156  C     C_R   0.402828 0.850021 0.402795 -0.111394
C157  C     C_R   0.902033 0.901825 0.849042 -0.108082
C158  C     C_R   0.152452 0.099696 0.900198 -0.113809
C159  C     C_R   0.100175 0.900080 0.152363 -0.136678
C160  C     C_R   0.853334 0.094257 0.094094 -0.132259
C161  C     C_R   0.905763 0.094109 0.146690 -0.132014
C162  C     C_R   0.153602 0.899164 0.100297 -0.157444
C163  C     C_R   0.100925 0.100317 0.846390 -0.157185
C164  C     C_R   0.848323 0.901130 0.900287 -0.158099
C165  C     C_R   0.099751 0.847669 0.099612 -0.113020
C166  C     C_R   0.100070 0.152460 0.899787 -0.137540
C167  C     C_R   0.905878 0.146747 0.094309 -0.131176
C168  C     C_R   0.899704 0.846775 0.898946 -0.155814
C169  C     C_R   0.902575 0.402529 0.350135 -0.149615
C170  C     C_R   0.651748 0.598806 0.900957 -0.129902
C171  C     C_R   0.096602 0.404031 0.648690 -0.125697
C172  C     C_R   0.351136 0.596348 0.096639 -0.151782
C173  C     C_R   0.903612 0.595789 0.648499 -0.126486
C174  C     C_R   0.651674 0.400922 0.099123 -0.136399
C175  C     C_R   0.096725 0.596563 0.350895 -0.143561
C176  C     C_R   0.350826 0.403325 0.903092 -0.151313
C177  C     C_R   0.599380 0.347959 0.099456 -0.135839
C178  C     C_R   0.403614 0.903302 0.351029 -0.151726
C179  C     C_R   0.598388 0.650620 0.902534 -0.147889
C180  C     C_R   0.401117 0.098987 0.651443 -0.136601
C181  C     C_R   0.405361 0.647128 0.095043 -0.141391
C182  C     C_R   0.596555 0.096811 0.350921 -0.151956
C183  C     C_R   0.404946 0.352382 0.904533 -0.139767
C184  C     C_R   0.599865 0.900186 0.652241 -0.148808
C185  C     C_R   0.647364 0.095249 0.405109 -0.141779
C186  C     C_R   0.096558 0.351434 0.596109 -0.151109
C187  C     C_R   0.352807 0.904889 0.405235 -0.141231
C188  C     C_R   0.903692 0.648354 0.595944 -0.151221
C189  C     C_R   0.348065 0.099360 0.599258 -0.135585
C190  C     C_R   0.900936 0.348330 0.401002 -0.140172
C191  C     C_R   0.652374 0.900092 0.599466 -0.134431
C192  C     C_R   0.098316 0.650818 0.401788 -0.137867
C193  C     C_1   0.287641 0.439008 0.938789 -0.178175
C194  C     C_1   0.061151 0.561181 0.287525 -0.179240
C195  C     C_1   0.712440 0.438711 0.061275 -0.176190
C196  C     C_1   0.939006 0.560810 0.712146 -0.175126
C197  C     C_1   0.287755 0.560872 0.061128 -0.174927
C198  C     C_1   0.061094 0.439068 0.712275 -0.178102
C199  C     C_1   0.712846 0.561275 0.938344 -0.161273
C200  C     C_1   0.938999 0.438920 0.287762 -0.180560
C201  C     C_1   0.562050 0.938225 0.713082 -0.165678
C202  C     C_1   0.439402 0.288145 0.939345 -0.180456
C203  C     C_1   0.560915 0.061223 0.287670 -0.174558
C204  C     C_1   0.439622 0.711564 0.060410 -0.175456
C205  C     C_1   0.438790 0.061225 0.712349 -0.176556
C206  C     C_1   0.560292 0.711898 0.938959 -0.197216
C207  C     C_1   0.439111 0.938849 0.287710 -0.177022
C208  C     C_1   0.561720 0.286935 0.061829 -0.178768
C209  C     C_1   0.061555 0.712856 0.438483 -0.175118
C210  C     C_1   0.712996 0.938188 0.561622 -0.178596
C211  C     C_1   0.938490 0.287243 0.438527 -0.176696
C212  C     C_1   0.286883 0.061823 0.561786 -0.178635
C213  C     C_1   0.939326 0.711699 0.560495 -0.175062
C214  C     C_1   0.288392 0.939531 0.439574 -0.178125
C215  C     C_1   0.060780 0.288180 0.560601 -0.174227
C216  C     C_1   0.711612 0.060470 0.439576 -0.174560
C217  C     C_1   0.787762 0.938202 0.939403 -0.192953
C218  C     C_1   0.062384 0.063057 0.785633 -0.190384
C219  C     C_1   0.214382 0.937629 0.063056 -0.188400
C220  C     C_1   0.939405 0.060507 0.211869 -0.180151
C221  C     C_1   0.788143 0.060605 0.060495 -0.180543
C222  C     C_1   0.061704 0.938469 0.212639 -0.183721
C223  C     C_1   0.212961 0.061753 0.938361 -0.175974
C224  C     C_1   0.939066 0.938817 0.787539 -0.159671
C225  C     C_1   0.937052 0.786003 0.937749 -0.189771
C226  C     C_1   0.939475 0.211910 0.060624 -0.183157
C227  C     C_1   0.061566 0.212681 0.938256 -0.183463
C228  C     C_1   0.061611 0.787084 0.061721 -0.173402
C229  C     C_1   0.787314 0.438501 0.438805 -0.191357
C230  C     C_1   0.561797 0.561910 0.786966 -0.187262
C231  C     C_1   0.213197 0.438296 0.561686 -0.181787
C232  C     C_1   0.438570 0.561251 0.212804 -0.188280
C233  C     C_1   0.786839 0.561696 0.561663 -0.182714
C234  C     C_1   0.561746 0.438264 0.213059 -0.191615
C235  C     C_1   0.212428 0.561191 0.439003 -0.188651
C236  C     C_1   0.438579 0.438763 0.787220 -0.189174
C237  C     C_1   0.438725 0.787153 0.438529 -0.188234
C238  C     C_1   0.438320 0.212989 0.561638 -0.184737
C239  C     C_1   0.561401 0.212989 0.438401 -0.189033
C240  C     C_1   0.561150 0.787564 0.561168 -0.186404
C241  C     C_R   0.616542 0.064818 0.064814 -0.331152
C242  C     C_R   0.935169 0.935184 0.616567 -0.331505
C243  C     C_R   0.383436 0.064825 0.935191 -0.332028
C244  C     C_R   0.064766 0.935216 0.383492 -0.333037
C245  C     C_R   0.616582 0.935149 0.935161 -0.331371
C246  C     C_R   0.935154 0.064846 0.383415 -0.331280
C247  C     C_R   0.383458 0.935203 0.064803 -0.332582
C248  C     C_R   0.064762 0.064789 0.616513 -0.331539
C249  C     C_R   0.064786 0.616559 0.064814 -0.332168
C250  C     C_R   0.064772 0.383470 0.935216 -0.333327
C251  C     C_R   0.935127 0.383370 0.064862 -0.330329
C252  C     C_R   0.935160 0.616590 0.935184 -0.332321
C253  C     C_R   0.116546 0.564823 0.064819 -0.332525
C254  C     C_R   0.935164 0.435179 0.116570 -0.331989
C255  C     C_R   0.883462 0.564805 0.935213 -0.332101
C256  C     C_R   0.064758 0.435218 0.883502 -0.330453
C257  C     C_R   0.116499 0.435215 0.935226 -0.331463
C258  C     C_R   0.935157 0.564838 0.883422 -0.330655
C259  C     C_R   0.883432 0.435182 0.064822 -0.332913
C260  C     C_R   0.064768 0.564799 0.116522 -0.330777
C261  C     C_R   0.435134 0.064857 0.883396 -0.332786
C262  C     C_R   0.564776 0.116546 0.064801 -0.331946
C263  C     C_R   0.435171 0.935185 0.116567 -0.331984
C264  C     C_R   0.564810 0.883435 0.935187 -0.331527
C265  C     C_R   0.564795 0.935192 0.883471 -0.331230
C266  C     C_R   0.435144 0.883388 0.064848 -0.331239
C267  C     C_R   0.564755 0.064785 0.116506 -0.332592
C268  C     C_R   0.435147 0.116601 0.935172 -0.330479
C269  C     C_R   0.935139 0.883383 0.564851 -0.332475
C270  C     C_R   0.883473 0.064799 0.435221 -0.331305
C271  C     C_R   0.064779 0.116547 0.564804 -0.331670
C272  C     C_R   0.116508 0.935211 0.435217 -0.330763
C273  C     C_R   0.064759 0.883490 0.435229 -0.331364
C274  C     C_R   0.116554 0.064826 0.564823 -0.331363
C275  C     C_R   0.935150 0.116607 0.435171 -0.333260
C276  C     C_R   0.883446 0.935194 0.564812 -0.331624
C277  C     C_R   0.616584 0.564853 0.564851 -0.331236
C278  C     C_R   0.435140 0.435153 0.616601 -0.331781
C279  C     C_R   0.383433 0.564830 0.435188 -0.332214
C280  C     C_R   0.564778 0.435202 0.383480 -0.331977
C281  C     C_R   0.616530 0.435191 0.435200 -0.331907
C282  C     C_R   0.435127 0.564868 0.383387 -0.332041
C283  C     C_R   0.383420 0.435169 0.564836 -0.331521
C284  C     C_R   0.564793 0.564821 0.616548 -0.331607
C285  C     C_R   0.564808 0.616582 0.564834 -0.331527
C286  C     C_R   0.564785 0.383459 0.435205 -0.331614
C287  C     C_R   0.435109 0.383346 0.564883 -0.331716
C288  C     C_R   0.435132 0.616622 0.435155 -0.332017
C289  C     C_R   0.600591 0.048489 0.100595 0.472040
C290  C     C_R   0.899389 0.951548 0.600611 0.465591
C291  C     C_R   0.399344 0.048523 0.899343 0.466272
C292  C     C_R   0.100583 0.951514 0.399411 0.466220
C293  C     C_R   0.600639 0.951464 0.899365 0.463251
C294  C     C_R   0.899389 0.048487 0.399386 0.472278
C295  C     C_R   0.399398 0.951555 0.100605 0.467780
C296  C     C_R   0.100605 0.048500 0.600608 0.466008
C297  C     C_R   0.951403 0.100715 0.399304 0.467374
C298  C     C_R   0.048441 0.600615 0.100598 0.466762
C299  C     C_R   0.951425 0.899308 0.600677 0.470786
C300  C     C_R   0.048455 0.399401 0.899419 0.466247
C301  C     C_R   0.048442 0.899420 0.399432 0.466452
C302  C     C_R   0.951417 0.399299 0.100684 0.466681
C303  C     C_R   0.048424 0.100593 0.600577 0.466613
C304  C     C_R   0.951422 0.600689 0.899328 0.470350
C305  C     C_R   0.899319 0.399304 0.048551 0.466331
C306  C     C_R   0.399361 0.100653 0.951516 0.466037
C307  C     C_R   0.100628 0.600650 0.048538 0.471351
C308  C     C_R   0.600660 0.899324 0.951448 0.463491
C309  C     C_R   0.100579 0.399398 0.951518 0.466414
C310  C     C_R   0.600626 0.100647 0.048534 0.468038
C311  C     C_R   0.899382 0.600636 0.951536 0.465785
C312  C     C_R   0.399353 0.899336 0.048523 0.471007
C313  C     C_R   0.100600 0.548499 0.100606 0.467768
C314  C     C_R   0.899384 0.451543 0.100615 0.466781
C315  C     C_R   0.899377 0.548494 0.899377 0.466867
C316  C     C_R   0.100560 0.451531 0.899435 0.466347
C317  C     C_R   0.451406 0.100703 0.899311 0.466217
C318  C     C_R   0.548421 0.100592 0.100575 0.467988
C319  C     C_R   0.451425 0.899306 0.100680 0.467445
C320  C     C_R   0.548471 0.899393 0.899412 0.465990
C321  C     C_R   0.899340 0.899324 0.548533 0.466714
C322  C     C_R   0.899385 0.100637 0.451537 0.467952
C323  C     C_R   0.100633 0.100652 0.548540 0.466044
C324  C     C_R   0.100573 0.899409 0.451523 0.466593
C325  C     C_R   0.600639 0.548534 0.600644 0.465601
C326  C     C_R   0.399360 0.451518 0.600642 0.466081
C327  C     C_R   0.399344 0.548526 0.399343 0.466526
C328  C     C_R   0.600595 0.451502 0.399401 0.465973
C329  C     C_R   0.451386 0.600728 0.399289 0.466160
C330  C     C_R   0.548461 0.600632 0.600617 0.465380
C331  C     C_R   0.451386 0.399264 0.600720 0.465696
C332  C     C_R   0.548466 0.399393 0.399409 0.465907
C333  C     C_R   0.399309 0.399291 0.548565 0.465668
C334  C     C_R   0.399351 0.600666 0.451506 0.466265
C335  C     C_R   0.600665 0.600685 0.548572 0.465571
C336  C     C_R   0.600607 0.399375 0.451493 0.466078
C337  C     C_1   0.315864 0.422414 0.921977 0.063588
C338  C     C_1   0.077882 0.577815 0.315755 0.080223
C339  C     C_1   0.684961 0.421366 0.078611 0.091152
C340  C     C_1   0.922368 0.577181 0.683720 0.098232
C341  C     C_1   0.316071 0.577360 0.077861 0.065293
C342  C     C_1   0.077810 0.422652 0.683902 0.096037
C343  C     C_1   0.685395 0.578410 0.920845 0.115360
C344  C     C_1   0.922158 0.422008 0.315774 0.065647
C345  C     C_1   0.579768 0.920751 0.685835 0.101232
C346  C     C_1   0.423250 0.316863 0.923025 0.089179
C347  C     C_1   0.577485 0.077989 0.315922 0.065483
C348  C     C_1   0.423586 0.682699 0.076577 0.092292
C349  C     C_1   0.421511 0.078525 0.684801 0.090599
C350  C     C_1   0.577475 0.684067 0.922079 0.056971
C351  C     C_1   0.422612 0.922096 0.315995 0.063487
C352  C     C_1   0.579189 0.314247 0.079354 0.073958
C353  C     C_1   0.078754 0.685155 0.421360 0.076158
C354  C     C_1   0.685790 0.920508 0.579075 0.059717
C355  C     C_1   0.921141 0.314704 0.421174 0.088675
C356  C     C_1   0.314222 0.079314 0.579233 0.071630
C357  C     C_1   0.922769 0.683210 0.576863 0.064806
C358  C     C_1   0.317242 0.923358 0.423488 0.089827
C359  C     C_1   0.077442 0.316608 0.576993 0.064712
C360  C     C_1   0.682820 0.076676 0.423447 0.092738
C361  C     C_1   0.815239 0.920807 0.921967 0.091551
C362  C     C_1   0.080381 0.080821 0.812491 0.062690
C363  C     C_1   0.187525 0.919678 0.080838 0.063987
C364  C     C_1   0.923449 0.076406 0.182847 0.094679
C365  C     C_1   0.817172 0.076565 0.076392 0.094789
C366  C     C_1   0.079447 0.920958 0.185414 0.089351
C367  C     C_1   0.185773 0.079350 0.920798 0.119226
C368  C     C_1   0.922115 0.921638 0.815245 0.147321
C369  C     C_1   0.919291 0.812953 0.919780 0.052015
C370  C     C_1   0.923577 0.182903 0.076612 0.092344
C371  C     C_1   0.079151 0.185488 0.920526 0.089626
C372  C     C_1   0.079163 0.814311 0.079292 0.121008
C373  C     C_1   0.815240 0.421469 0.421927 0.097977
C374  C     C_1   0.579260 0.579368 0.814371 0.093526
C375  C     C_1   0.185614 0.421089 0.578881 0.090789
C376  C     C_1   0.421732 0.578040 0.184768 0.098973
C377  C     C_1   0.814456 0.578887 0.578843 0.090714
C378  C     C_1   0.579244 0.420843 0.185711 0.095665
C379  C     C_1   0.184358 0.578024 0.422240 0.098504
C380  C     C_1   0.421726 0.421952 0.815235 0.098942
C381  C     C_1   0.421951 0.815170 0.421632 0.098910
C382  C     C_1   0.420933 0.185574 0.579022 0.092378
C383  C     C_1   0.578312 0.185061 0.421453 0.099350
C384  C     C_1   0.578262 0.815298 0.578260 0.092040
O1    O     O_R   0.493560 0.156220 0.946130 -0.559545
O2    O     O_R   0.053870 0.843780 0.493560 -0.560701
O3    O     O_R   0.506440 0.156220 0.053870 -0.559264
O4    O     O_R   0.946130 0.843780 0.506440 -0.560802
O5    O     O_R   0.493560 0.843780 0.053870 -0.558704
O6    O     O_R   0.053870 0.156220 0.506440 -0.561022
O7    O     O_R   0.506440 0.843780 0.946130 -0.558841
O8    O     O_R   0.946130 0.156220 0.493560 -0.560504
O9    O     O_R   0.843780 0.946130 0.506440 -0.559924
O10   O     O_R   0.156220 0.493560 0.946130 -0.560822
O11   O     O_R   0.843780 0.053870 0.493560 -0.559729
O12   O     O_R   0.156220 0.506440 0.053870 -0.560617
O13   O     O_R   0.156220 0.053870 0.506440 -0.559407
O14   O     O_R   0.843780 0.506440 0.946130 -0.561180
O15   O     O_R   0.156220 0.946130 0.493560 -0.559243
O16   O     O_R   0.843780 0.493560 0.053870 -0.561149
O17   O     O_R   0.053870 0.506440 0.156220 -0.559306
O18   O     O_R   0.506440 0.946130 0.843780 -0.560944
O19   O     O_R   0.946130 0.493560 0.156220 -0.559095
O20   O     O_R   0.493560 0.053870 0.843780 -0.560907
O21   O     O_R   0.946130 0.506440 0.843780 -0.559858
O22   O     O_R   0.493560 0.946130 0.156220 -0.560933
O23   O     O_R   0.053870 0.493560 0.843780 -0.559917
O24   O     O_R   0.506440 0.053870 0.156220 -0.560970
O25   O     O_R   0.993560 0.656220 0.946130 -0.559116
O26   O     O_R   0.053870 0.343780 0.993560 -0.560283
O27   O     O_R   0.006440 0.656220 0.053870 -0.561202
O28   O     O_R   0.946130 0.343780 0.006440 -0.559226
O29   O     O_R   0.993560 0.343780 0.053870 -0.559421
O30   O     O_R   0.053870 0.656220 0.006440 -0.558567
O31   O     O_R   0.006440 0.343780 0.946130 -0.560029
O32   O     O_R   0.946130 0.656220 0.993560 -0.561111
O33   O     O_R   0.343780 0.946130 0.006440 -0.559202
O34   O     O_R   0.656220 0.993560 0.946130 -0.561052
O35   O     O_R   0.343780 0.053870 0.993560 -0.560943
O36   O     O_R   0.656220 0.006440 0.053870 -0.558603
O37   O     O_R   0.656220 0.053870 0.006440 -0.558928
O38   O     O_R   0.343780 0.006440 0.946130 -0.559279
O39   O     O_R   0.656220 0.946130 0.993560 -0.559506
O40   O     O_R   0.343780 0.993560 0.053870 -0.561187
O41   O     O_R   0.053870 0.006440 0.656220 -0.559927
O42   O     O_R   0.006440 0.946130 0.343780 -0.560632
O43   O     O_R   0.946130 0.993560 0.656220 -0.560870
O44   O     O_R   0.993560 0.053870 0.343780 -0.559423
O45   O     O_R   0.946130 0.006440 0.343780 -0.558785
O46   O     O_R   0.993560 0.946130 0.656220 -0.558649
O47   O     O_R   0.053870 0.993560 0.343780 -0.560194
O48   O     O_R   0.006440 0.053870 0.656220 -0.561344
O49   O     O_R   0.993560 0.156220 0.446130 -0.560597
O50   O     O_R   0.553870 0.843780 0.993560 -0.561159
O51   O     O_R   0.006440 0.156220 0.553870 -0.559227
O52   O     O_R   0.446130 0.843780 0.006440 -0.558645
O53   O     O_R   0.993560 0.843780 0.553870 -0.558523
O54   O     O_R   0.553870 0.156220 0.006440 -0.560751
O55   O     O_R   0.006440 0.843780 0.446130 -0.559707
O56   O     O_R   0.446130 0.156220 0.993560 -0.559252
O57   O     O_R   0.843780 0.446130 0.006440 -0.560760
O58   O     O_R   0.156220 0.993560 0.446130 -0.559109
O59   O     O_R   0.843780 0.553870 0.993560 -0.560622
O60   O     O_R   0.156220 0.006440 0.553870 -0.560653
O61   O     O_R   0.156220 0.553870 0.006440 -0.558628
O62   O     O_R   0.843780 0.006440 0.446130 -0.558790
O63   O     O_R   0.156220 0.446130 0.993560 -0.559274
O64   O     O_R   0.843780 0.993560 0.553870 -0.560863
O65   O     O_R   0.553870 0.006440 0.156220 -0.558671
O66   O     O_R   0.006440 0.446130 0.843780 -0.559250
O67   O     O_R   0.446130 0.993560 0.156220 -0.559390
O68   O     O_R   0.993560 0.553870 0.843780 -0.558756
O69   O     O_R   0.446130 0.006440 0.843780 -0.560506
O70   O     O_R   0.993560 0.446130 0.156220 -0.560593
O71   O     O_R   0.553870 0.993560 0.843780 -0.560472
O72   O     O_R   0.006440 0.553870 0.156220 -0.559901
O73   O     O_R   0.493560 0.656220 0.446130 -0.560460
O74   O     O_R   0.553870 0.343780 0.493560 -0.558934
O75   O     O_R   0.506440 0.656220 0.553870 -0.560422
O76   O     O_R   0.446130 0.343780 0.506440 -0.559686
O77   O     O_R   0.493560 0.343780 0.553870 -0.560232
O78   O     O_R   0.553870 0.656220 0.506440 -0.559629
O79   O     O_R   0.506440 0.343780 0.446130 -0.560583
O80   O     O_R   0.446130 0.656220 0.493560 -0.558922
O81   O     O_R   0.343780 0.446130 0.506440 -0.560773
O82   O     O_R   0.656220 0.493560 0.446130 -0.558830
O83   O     O_R   0.343780 0.553870 0.493560 -0.560621
O84   O     O_R   0.656220 0.506440 0.553870 -0.559784
O85   O     O_R   0.656220 0.553870 0.506440 -0.560479
O86   O     O_R   0.343780 0.506440 0.446130 -0.559021
O87   O     O_R   0.656220 0.446130 0.493560 -0.560389
O88   O     O_R   0.343780 0.493560 0.553870 -0.559944
O89   O     O_R   0.553870 0.506440 0.656220 -0.560461
O90   O     O_R   0.506440 0.446130 0.343780 -0.559504
O91   O     O_R   0.446130 0.493560 0.656220 -0.560599
O92   O     O_R   0.493560 0.553870 0.343780 -0.558935
O93   O     O_R   0.446130 0.506440 0.343780 -0.560311
O94   O     O_R   0.493560 0.446130 0.656220 -0.559095
O95   O     O_R   0.553870 0.493560 0.343780 -0.560280
O96   O     O_R   0.506440 0.553870 0.656220 -0.559860
O97   O     O_R   0.445670 0.241870 0.993700 -0.619966
O98   O     O_R   0.006300 0.758130 0.445670 -0.619743
O99   O     O_R   0.554330 0.241870 0.006300 -0.620034
O100  O     O_R   0.993700 0.758130 0.554330 -0.616321
O101  O     O_R   0.445670 0.758130 0.006300 -0.617231
O102  O     O_R   0.006300 0.241870 0.554330 -0.619122
O103  O     O_R   0.554330 0.758130 0.993700 -0.634023
O104  O     O_R   0.993700 0.241870 0.445670 -0.616379
O105  O     O_R   0.758130 0.993700 0.554330 -0.619944
O106  O     O_R   0.241870 0.445670 0.993700 -0.619917
O107  O     O_R   0.758130 0.006300 0.445670 -0.616185
O108  O     O_R   0.241870 0.554330 0.006300 -0.617589
O109  O     O_R   0.241870 0.006300 0.554330 -0.620405
O110  O     O_R   0.758130 0.554330 0.993700 -0.611958
O111  O     O_R   0.241870 0.993700 0.445670 -0.618770
O112  O     O_R   0.758130 0.445670 0.006300 -0.617436
O113  O     O_R   0.006300 0.554330 0.241870 -0.621937
O114  O     O_R   0.554330 0.993700 0.758130 -0.611630
O115  O     O_R   0.993700 0.445670 0.241870 -0.619710
O116  O     O_R   0.445670 0.006300 0.758130 -0.617330
O117  O     O_R   0.993700 0.554330 0.758130 -0.617140
O118  O     O_R   0.445670 0.993700 0.241870 -0.619702
O119  O     O_R   0.006300 0.445670 0.758130 -0.619365
O120  O     O_R   0.554330 0.006300 0.241870 -0.617013
O121  O     O_R   0.945670 0.741870 0.993700 -0.612443
O122  O     O_R   0.006300 0.258130 0.945670 -0.619113
O123  O     O_R   0.054330 0.741870 0.006300 -0.615182
O124  O     O_R   0.993700 0.258130 0.054330 -0.620545
O125  O     O_R   0.945670 0.258130 0.006300 -0.620748
O126  O     O_R   0.006300 0.741870 0.054330 -0.619478
O127  O     O_R   0.054330 0.258130 0.993700 -0.620135
O128  O     O_R   0.993700 0.741870 0.945670 -0.628270
O129  O     O_R   0.258130 0.993700 0.054330 -0.612687
O130  O     O_R   0.741870 0.945670 0.993700 -0.609203
O131  O     O_R   0.258130 0.006300 0.945670 -0.617335
O132  O     O_R   0.741870 0.054330 0.006300 -0.621745
O133  O     O_R   0.741870 0.006300 0.054330 -0.618613
O134  O     O_R   0.258130 0.054330 0.993700 -0.618263
O135  O     O_R   0.741870 0.993700 0.945670 -0.636019
O136  O     O_R   0.258130 0.945670 0.006300 -0.629668
O137  O     O_R   0.006300 0.054330 0.741870 -0.613078
O138  O     O_R   0.054330 0.993700 0.258130 -0.619109
O139  O     O_R   0.993700 0.945670 0.741870 -0.617905
O140  O     O_R   0.945670 0.006300 0.258130 -0.618563
O141  O     O_R   0.993700 0.054330 0.258130 -0.621134
O142  O     O_R   0.945670 0.993700 0.741870 -0.614279
O143  O     O_R   0.006300 0.945670 0.258130 -0.620664
O144  O     O_R   0.054330 0.006300 0.741870 -0.631197
O145  O     O_R   0.945670 0.241870 0.493700 -0.620742
O146  O     O_R   0.506300 0.758130 0.945670 -0.616224
O147  O     O_R   0.054330 0.241870 0.506300 -0.617485
O148  O     O_R   0.493700 0.758130 0.054330 -0.622241
O149  O     O_R   0.945670 0.758130 0.506300 -0.621226
O150  O     O_R   0.506300 0.241870 0.054330 -0.620690
O151  O     O_R   0.054330 0.758130 0.493700 -0.620514
O152  O     O_R   0.493700 0.241870 0.945670 -0.621209
O153  O     O_R   0.758130 0.493700 0.054330 -0.618446
O154  O     O_R   0.241870 0.945670 0.493700 -0.621407
O155  O     O_R   0.758130 0.506300 0.945670 -0.620600
O156  O     O_R   0.241870 0.054330 0.506300 -0.620918
O157  O     O_R   0.241870 0.506300 0.054330 -0.620236
O158  O     O_R   0.758130 0.054330 0.493700 -0.622946
O159  O     O_R   0.241870 0.493700 0.945670 -0.620115
O160  O     O_R   0.758130 0.945670 0.506300 -0.620804
O161  O     O_R   0.506300 0.054330 0.241870 -0.620897
O162  O     O_R   0.054330 0.493700 0.758130 -0.621972
O163  O     O_R   0.493700 0.945670 0.241870 -0.619761
O164  O     O_R   0.945670 0.506300 0.758130 -0.622440
O165  O     O_R   0.493700 0.054330 0.758130 -0.618039
O166  O     O_R   0.945670 0.493700 0.241870 -0.621883
O167  O     O_R   0.506300 0.945670 0.758130 -0.620223
O168  O     O_R   0.054330 0.506300 0.241870 -0.620193
O169  O     O_R   0.445670 0.741870 0.493700 -0.621751
O170  O     O_R   0.506300 0.258130 0.445670 -0.617942
O171  O     O_R   0.554330 0.741870 0.506300 -0.622642
O172  O     O_R   0.493700 0.258130 0.554330 -0.619502
O173  O     O_R   0.445670 0.258130 0.506300 -0.622345
O174  O     O_R   0.506300 0.741870 0.554330 -0.621030
O175  O     O_R   0.554330 0.258130 0.493700 -0.621608
O176  O     O_R   0.493700 0.741870 0.445670 -0.617659
O177  O     O_R   0.258130 0.493700 0.554330 -0.622024
O178  O     O_R   0.741870 0.445670 0.493700 -0.618188
O179  O     O_R   0.258130 0.506300 0.445670 -0.620064
O180  O     O_R   0.741870 0.554330 0.506300 -0.618751
O181  O     O_R   0.741870 0.506300 0.554330 -0.622502
O182  O     O_R   0.258130 0.554330 0.493700 -0.619271
O183  O     O_R   0.741870 0.493700 0.445670 -0.620714
O184  O     O_R   0.258130 0.445670 0.506300 -0.619317
O185  O     O_R   0.506300 0.554330 0.741870 -0.623504
O186  O     O_R   0.554330 0.493700 0.258130 -0.617899
O187  O     O_R   0.493700 0.445670 0.741870 -0.621309
O188  O     O_R   0.445670 0.506300 0.258130 -0.617431
O189  O     O_R   0.493700 0.554330 0.258130 -0.621312
O190  O     O_R   0.445670 0.493700 0.741870 -0.618267
O191  O     O_R   0.506300 0.445670 0.258130 -0.626868
O192  O     O_R   0.554330 0.506300 0.741870 -0.618340
Zn1   Zn    Zn3+2 0.531990 0.199940 0.968010 1.069986
Zn2   Zn    Zn3+2 0.031990 0.800060 0.531990 1.075120
Zn3   Zn    Zn3+2 0.468010 0.199940 0.031990 1.071356
Zn4   Zn    Zn3+2 0.968010 0.800060 0.468010 1.068982
Zn5   Zn    Zn3+2 0.531990 0.800060 0.031990 1.061283
Zn6   Zn    Zn3+2 0.031990 0.199940 0.468010 1.075610
Zn7   Zn    Zn3+2 0.468010 0.800060 0.968010 1.074179
Zn8   Zn    Zn3+2 0.968010 0.199940 0.531990 1.072242
Zn9   Zn    Zn3+2 0.800060 0.968010 0.468010 1.074994
Zn10  Zn    Zn3+2 0.199940 0.531990 0.968010 1.074064
Zn11  Zn    Zn3+2 0.800060 0.031990 0.531990 1.070193
Zn12  Zn    Zn3+2 0.199940 0.468010 0.031990 1.071443
Zn13  Zn    Zn3+2 0.199940 0.031990 0.468010 1.070925
Zn14  Zn    Zn3+2 0.800060 0.468010 0.968010 1.074945
Zn15  Zn    Zn3+2 0.199940 0.968010 0.531990 1.069437
Zn16  Zn    Zn3+2 0.800060 0.531990 0.031990 1.077068
Zn17  Zn    Zn3+2 0.031990 0.468010 0.199940 1.071156
Zn18  Zn    Zn3+2 0.468010 0.968010 0.800060 1.073654
Zn19  Zn    Zn3+2 0.968010 0.531990 0.199940 1.067153
Zn20  Zn    Zn3+2 0.531990 0.031990 0.800060 1.077292
Zn21  Zn    Zn3+2 0.968010 0.468010 0.800060 1.070627
Zn22  Zn    Zn3+2 0.531990 0.968010 0.199940 1.076104
Zn23  Zn    Zn3+2 0.031990 0.531990 0.800060 1.073180
Zn24  Zn    Zn3+2 0.468010 0.031990 0.199940 1.071627
Zn25  Zn    Zn3+2 0.031990 0.699940 0.968010 1.072900
Zn26  Zn    Zn3+2 0.031990 0.300060 0.031990 1.070124
Zn27  Zn    Zn3+2 0.968010 0.699940 0.031990 1.075446
Zn28  Zn    Zn3+2 0.968010 0.300060 0.968010 1.072256
Zn29  Zn    Zn3+2 0.300060 0.968010 0.968010 1.068871
Zn30  Zn    Zn3+2 0.699940 0.031990 0.968010 1.059689
Zn31  Zn    Zn3+2 0.300060 0.031990 0.031990 1.076475
Zn32  Zn    Zn3+2 0.699940 0.968010 0.031990 1.079146
Zn33  Zn    Zn3+2 0.031990 0.968010 0.699940 1.068870
Zn34  Zn    Zn3+2 0.968010 0.968010 0.300060 1.073162
Zn35  Zn    Zn3+2 0.968010 0.031990 0.699940 1.077256
Zn36  Zn    Zn3+2 0.031990 0.031990 0.300060 1.072784
Zn37  Zn    Zn3+2 0.531990 0.699940 0.468010 1.068989
Zn38  Zn    Zn3+2 0.531990 0.300060 0.531990 1.070362
Zn39  Zn    Zn3+2 0.468010 0.699940 0.531990 1.069105
Zn40  Zn    Zn3+2 0.468010 0.300060 0.468010 1.068215
Zn41  Zn    Zn3+2 0.300060 0.468010 0.468010 1.071783
Zn42  Zn    Zn3+2 0.699940 0.531990 0.468010 1.071881
Zn43  Zn    Zn3+2 0.300060 0.531990 0.531990 1.068504
Zn44  Zn    Zn3+2 0.699940 0.468010 0.531990 1.068371
Zn45  Zn    Zn3+2 0.531990 0.468010 0.699940 1.070603
Zn46  Zn    Zn3+2 0.468010 0.468010 0.300060 1.067156
Zn47  Zn    Zn3+2 0.468010 0.531990 0.699940 1.067020
Zn48  Zn    Zn3+2 0.531990 0.531990 0.300060 1.071476
F1    F     F_    0.618581 0.015520 0.118567 -0.602894
F2    F     F_    0.881449 0.984596 0.618561 -0.609120
F3    F     F_    0.381369 0.015540 0.881347 -0.608433
F4    F     F_    0.118583 0.984455 0.381417 -0.607684
F5    F     F_    0.618644 0.984398 0.881364 -0.611531
F6    F     F_    0.881440 0.015475 0.381418 -0.602598
F7    F     F_    0.381459 0.984605 0.118551 -0.607607
F8    F     F_    0.118601 0.015539 0.618587 -0.609074
F9    F     F_    0.984277 0.118770 0.381248 -0.607414
F10   F     F_    0.015441 0.618591 0.118564 -0.608342
F11   F     F_    0.984338 0.881274 0.618694 -0.603911
F12   F     F_    0.015500 0.381408 0.881432 -0.607661
F13   F     F_    0.015468 0.881444 0.381464 -0.608984
F14   F     F_    0.984330 0.381266 0.118702 -0.607830
F15   F     F_    0.015404 0.118550 0.618525 -0.608077
F16   F     F_    0.984322 0.618721 0.881296 -0.604314
F17   F     F_    0.881314 0.381273 0.015613 -0.607974
F18   F     F_    0.381402 0.118632 0.984525 -0.607760
F19   F     F_    0.118645 0.618660 0.015621 -0.603825
F20   F     F_    0.618684 0.881296 0.984350 -0.611087
F21   F     F_    0.118573 0.381405 0.984455 -0.608500
F22   F     F_    0.618652 0.118666 0.015627 -0.607414
F23   F     F_    0.881424 0.618613 0.984547 -0.609191
F24   F     F_    0.381368 0.881326 0.015562 -0.604334
F25   F     F_    0.118591 0.515531 0.118579 -0.607269
F26   F     F_    0.881451 0.484599 0.118557 -0.608540
F27   F     F_    0.881415 0.515496 0.881394 -0.608350
F28   F     F_    0.118536 0.484498 0.881465 -0.608277
F29   F     F_    0.484309 0.118732 0.881283 -0.608533
F30   F     F_    0.515406 0.118554 0.118527 -0.607683
F31   F     F_    0.484329 0.881263 0.118705 -0.607341
F32   F     F_    0.515471 0.881444 0.881467 -0.609046
F33   F     F_    0.881349 0.881307 0.515580 -0.608490
F34   F     F_    0.881433 0.118607 0.484554 -0.607673
F35   F     F_    0.118659 0.118672 0.515633 -0.608701
F36   F     F_    0.118560 0.881421 0.484467 -0.607817
F37   F     F_    0.618640 0.515578 0.618628 -0.609272
F38   F     F_    0.381421 0.484567 0.618591 -0.608934
F39   F     F_    0.381379 0.515532 0.381357 -0.607705
F40   F     F_    0.618583 0.484454 0.381418 -0.608192
F41   F     F_    0.484275 0.618769 0.381248 -0.607915
F42   F     F_    0.515451 0.618600 0.618572 -0.609671
F43   F     F_    0.484285 0.381217 0.618749 -0.608483
F44   F     F_    0.515498 0.381412 0.381435 -0.608941
F45   F     F_    0.381314 0.381272 0.515614 -0.609180
F46   F     F_    0.381393 0.618643 0.484516 -0.608038
F47   F     F_    0.618694 0.618706 0.515667 -0.609122
F48   F     F_    0.618607 0.381374 0.484423 -0.608082
O193  O     O_3   0.347954 0.452056 0.847177 -0.618885
C385  C     C_3   0.312943 0.439460 0.824978 0.112724
H1    H     H_    0.290503 0.464967 0.826096 0.177948
H2    H     H_    0.297215 0.412240 0.838301 0.124640
C386  C     C_3   0.324032 0.431144 0.780210 -0.370982
H3    H     H_    0.340477 0.458003 0.767419 0.250137
H4    H     H_    0.344483 0.404062 0.778379 0.218843
C387  C     C_3   0.285974 0.422877 0.754513 -0.900716
H5    H     H_    0.269324 0.395791 0.766466 0.261790
H6    H     H_    0.295081 0.416698 0.722379 0.274374
H7    H     H_    0.265329 0.449873 0.754967 0.271909
O194  O     O_3   0.146739 0.541599 0.354348 -0.611466
C388  C     C_3   0.122062 0.507868 0.365963 0.109974
H8    H     H_    0.121886 0.485942 0.339979 0.178552
H9    H     H_    0.089429 0.515883 0.372058 0.105357
C389  C     C_3   0.140162 0.486523 0.403503 -0.366653
H10   H     H_    0.173020 0.479720 0.398030 0.251607
H11   H     H_    0.137631 0.507022 0.430483 0.212716
C390  C     C_3   0.117713 0.446716 0.412935 -0.917635
H12   H     H_    0.084855 0.452880 0.418997 0.260546
H13   H     H_    0.131318 0.432272 0.440485 0.277768
H14   H     H_    0.120487 0.425086 0.386858 0.271224
O195  O     O_3   0.650476 0.453944 0.151200 -0.616198
C391  C     C_3   0.686370 0.445549 0.173975 0.107150
H15   H     H_    0.706625 0.472705 0.171402 0.180230
H16   H     H_    0.704322 0.419004 0.162111 0.113418
C392  C     C_3   0.675956 0.438889 0.219165 -0.368522
H17   H     H_    0.657434 0.465048 0.230571 0.250919
H18   H     H_    0.657722 0.410427 0.222527 0.217227
C393  C     C_3   0.714542 0.435052 0.245106 -0.897787
H19   H     H_    0.733270 0.408713 0.234556 0.259758
H20   H     H_    0.705944 0.429989 0.277562 0.276063
H21   H     H_    0.733003 0.463502 0.243111 0.273014
O196  O     O_3   0.847114 0.547976 0.652271 -0.609492
C394  C     C_3   0.862467 0.510401 0.637409 0.084168
H22   H     H_    0.893997 0.505200 0.649131 0.138612
H23   H     H_    0.862958 0.509548 0.603280 0.129313
C395  C     C_3   0.834740 0.475971 0.652562 -0.290799
H24   H     H_    0.832599 0.477239 0.686490 0.237275
H25   H     H_    0.803541 0.480215 0.639688 0.234156
C396  C     C_3   0.850946 0.434076 0.639904 -0.958676
H26   H     H_    0.854136 0.432268 0.606112 0.270595
H27   H     H_    0.829278 0.409985 0.650065 0.275575
H28   H     H_    0.881086 0.428336 0.654488 0.272407
O197  O     O_3   0.347762 0.548230 0.153047 -0.618944
C397  C     C_3   0.312828 0.561315 0.175117 0.113412
H29   H     H_    0.290333 0.535860 0.174503 0.178842
H30   H     H_    0.297134 0.588331 0.161331 0.126600
C398  C     C_3   0.324006 0.570393 0.219709 -0.371402
H31   H     H_    0.340376 0.543700 0.232954 0.250505
H32   H     H_    0.344545 0.597418 0.221022 0.219173
C399  C     C_3   0.286011 0.579290 0.245317 -0.897451
H33   H     H_    0.269447 0.606234 0.232911 0.262096
H34   H     H_    0.295182 0.585999 0.277320 0.273691
H35   H     H_    0.265269 0.552386 0.245376 0.274107
O198  O     O_3   0.152891 0.452084 0.652349 -0.609859
C400  C     C_3   0.137308 0.489563 0.637575 0.084557
H36   H     H_    0.105247 0.493997 0.648077 0.137224
H37   H     H_    0.138190 0.490861 0.603507 0.131348
C401  C     C_3   0.163631 0.524300 0.654382 -0.291459
H38   H     H_    0.164410 0.522539 0.688316 0.237716
H39   H     H_    0.195385 0.520898 0.642734 0.234152
C402  C     C_3   0.147065 0.566045 0.641787 -0.960060
H40   H     H_    0.145286 0.568349 0.607958 0.270219
H41   H     H_    0.167715 0.590408 0.653273 0.275898
H42   H     H_    0.116241 0.570909 0.655155 0.273309
O199  O     O_3   0.651522 0.547217 0.847497 -0.617148
C403  C     C_3   0.687079 0.556890 0.824703 0.105646
H43   H     H_    0.708026 0.530197 0.826694 0.179426
H44   H     H_    0.704413 0.583657 0.836942 0.115608
C404  C     C_3   0.676258 0.564073 0.779694 -0.367987
H45   H     H_    0.658303 0.537689 0.767951 0.250399
H46   H     H_    0.657322 0.592154 0.776928 0.217520
C405  C     C_3   0.714597 0.569231 0.753597 -0.897513
H47   H     H_    0.732758 0.595807 0.764488 0.261886
H48   H     H_    0.705697 0.574648 0.721283 0.275226
H49   H     H_    0.733736 0.541180 0.754991 0.270964
O200  O     O_3   0.853436 0.458222 0.354513 -0.614265
C406  C     C_3   0.877716 0.491664 0.367750 0.110818
H50   H     H_    0.876143 0.515486 0.343583 0.176349
H51   H     H_    0.910753 0.484013 0.371547 0.114419
C407  C     C_3   0.860948 0.509652 0.407696 -0.362192
H52   H     H_    0.827371 0.514179 0.404988 0.253061
H53   H     H_    0.867061 0.488082 0.433194 0.212772
C408  C     C_3   0.880841 0.550612 0.417841 -0.952062
H54   H     H_    0.914619 0.547348 0.419403 0.259028
H55   H     H_    0.869537 0.561638 0.447924 0.280885
H56   H     H_    0.872725 0.573626 0.394254 0.276569
O201  O     O_3   0.544879 0.850282 0.649122 -0.617067
C409  C     C_3   0.552264 0.826826 0.684812 0.106334
H57   H     H_    0.525251 0.830432 0.705111 0.179308
H58   H     H_    0.579290 0.837252 0.702881 0.112343
C410  C     C_3   0.556976 0.781466 0.673949 -0.366584
H59   H     H_    0.530441 0.771420 0.655226 0.250424
H60   H     H_    0.585332 0.777009 0.655780 0.217254
C411  C     C_3   0.559516 0.754991 0.712277 -0.900952
H61   H     H_    0.586190 0.764176 0.731201 0.261035
H62   H     H_    0.563204 0.722408 0.703353 0.277000
H63   H     H_    0.531117 0.758076 0.730670 0.270025
O202  O     O_3   0.457850 0.353578 0.852237 -0.612385
C412  C     C_3   0.492575 0.364644 0.875773 0.109875
H64   H     H_    0.513783 0.338076 0.875696 0.177963
H65   H     H_    0.485722 0.371464 0.908532 0.106770
C413  C     C_3   0.514346 0.401356 0.856514 -0.366204
H66   H     H_    0.520019 0.395231 0.823550 0.251619
H67   H     H_    0.494659 0.428911 0.859259 0.213414
C414  C     C_3   0.555015 0.410062 0.877657 -0.911513
H68   H     H_    0.549990 0.416756 0.910595 0.263261
H69   H     H_    0.569762 0.437040 0.863240 0.278238
H70   H     H_    0.575846 0.383373 0.874629 0.269530
O203  O     O_3   0.548521 0.153337 0.347480 -0.619221
C415  C     C_3   0.561520 0.175332 0.312502 0.112935
H71   H     H_    0.536119 0.174504 0.289961 0.178080
H72   H     H_    0.588635 0.161612 0.296891 0.126903
C416  C     C_3   0.570289 0.220032 0.323583 -0.370335
H73   H     H_    0.543509 0.233204 0.339896 0.249902
H74   H     H_    0.597267 0.221555 0.344156 0.219407
C417  C     C_3   0.579039 0.245565 0.285532 -0.900719
H75   H     H_    0.606057 0.233229 0.269014 0.262727
H76   H     H_    0.585534 0.277650 0.294634 0.273623
H77   H     H_    0.552162 0.245419 0.264765 0.272276
O204  O     O_3   0.457973 0.646246 0.147620 -0.611871
C418  C     C_3   0.492805 0.635109 0.124241 0.108426
H78   H     H_    0.514049 0.661627 0.124428 0.177274
H79   H     H_    0.486111 0.628323 0.091450 0.106040
C419  C     C_3   0.514430 0.598341 0.143577 -0.364956
H80   H     H_    0.519968 0.604447 0.176561 0.251687
H81   H     H_    0.494709 0.570838 0.140752 0.213287
C420  C     C_3   0.555176 0.589534 0.122589 -0.913569
H82   H     H_    0.550286 0.582855 0.089634 0.263079
H83   H     H_    0.569815 0.562518 0.137058 0.279253
H84   H     H_    0.576036 0.616167 0.125700 0.268291
O205  O     O_3   0.454193 0.150926 0.650081 -0.616340
C421  C     C_3   0.445906 0.173767 0.686002 0.107193
H85   H     H_    0.473020 0.171003 0.706277 0.180392
H86   H     H_    0.419297 0.162098 0.703925 0.113200
C422  C     C_3   0.439508 0.219022 0.675633 -0.370022
H87   H     H_    0.465708 0.230240 0.657113 0.250961
H88   H     H_    0.411073 0.222583 0.657412 0.217316
C423  C     C_3   0.435843 0.245016 0.714248 -0.894685
H89   H     H_    0.409471 0.234653 0.732978 0.260182
H90   H     H_    0.430962 0.277520 0.705681 0.276232
H91   H     H_    0.464275 0.242825 0.732696 0.272926
O206  O     O_3   0.548229 0.652488 0.847980 -0.612711
C424  C     C_3   0.511329 0.635911 0.863090 0.093679
H92   H     H_    0.504840 0.648555 0.894015 0.149065
H93   H     H_    0.512321 0.601832 0.864959 0.127131
C425  C     C_3   0.476779 0.647992 0.834049 -0.299517
H94   H     H_    0.476339 0.681806 0.830372 0.238876
H95   H     H_    0.482387 0.633949 0.803571 0.235149
C426  C     C_3   0.435247 0.633994 0.849918 -0.960956
H96   H     H_    0.435169 0.600392 0.854962 0.271782
H97   H     H_    0.411252 0.641613 0.827164 0.276284
H98   H     H_    0.427934 0.649955 0.878993 0.273216
O207  O     O_3   0.451793 0.846864 0.347650 -0.618607
C427  C     C_3   0.438782 0.824773 0.312700 0.113325
H99   H     H_    0.464259 0.825348 0.290227 0.179039
H100  H     H_    0.411803 0.838585 0.296981 0.125116
C428  C     C_3   0.429710 0.780173 0.323865 -0.371824
H101  H     H_    0.456371 0.766903 0.340253 0.250717
H102  H     H_    0.402674 0.778899 0.344388 0.218831
C429  C     C_3   0.420880 0.754541 0.285857 -0.897385
H103  H     H_    0.393969 0.766973 0.269276 0.261605
H104  H     H_    0.414173 0.722534 0.295017 0.273869
H105  H     H_    0.447796 0.754443 0.265131 0.274178
O208  O     O_3   0.548591 0.347146 0.153312 -0.613847
C430  C     C_3   0.511737 0.363674 0.137920 0.089509
H106  H     H_    0.502376 0.346123 0.110303 0.154167
H107  H     H_    0.514283 0.396741 0.129595 0.122865
C431  C     C_3   0.478766 0.359517 0.170825 -0.302346
H108  H     H_    0.476540 0.327030 0.180668 0.239239
H109  H     H_    0.487475 0.378316 0.197812 0.237389
C432  C     C_3   0.437089 0.373559 0.155354 -0.955945
H110  H     H_    0.438779 0.405543 0.143976 0.271699
H111  H     H_    0.414510 0.372267 0.180706 0.276497
H112  H     H_    0.426500 0.353078 0.130393 0.271107
O209  O     O_3   0.152268 0.651531 0.452824 -0.620362
C433  C     C_3   0.175186 0.686565 0.441643 0.112063
H113  H     H_    0.173993 0.708288 0.467769 0.178400
H114  H     H_    0.162522 0.703279 0.414713 0.125815
C434  C     C_3   0.219914 0.675049 0.433719 -0.371298
H115  H     H_    0.232076 0.657718 0.460305 0.250545
H116  H     H_    0.221871 0.655284 0.406137 0.218622
C435  C     C_3   0.246248 0.712958 0.426871 -0.896485
H117  H     H_    0.234940 0.730477 0.400062 0.261295
H118  H     H_    0.278343 0.703549 0.420960 0.274801
H119  H     H_    0.245659 0.732917 0.454380 0.273475
O210  O     O_3   0.651533 0.847902 0.547045 -0.613172
C436  C     C_3   0.635088 0.864186 0.510614 0.090596
H120  H     H_    0.648084 0.895143 0.504972 0.146987
H121  H     H_    0.601038 0.866434 0.511739 0.128462
C437  C     C_3   0.646808 0.835840 0.475286 -0.296842
H122  H     H_    0.680584 0.831886 0.474600 0.238478
H123  H     H_    0.632575 0.805331 0.480201 0.235504
C438  C     C_3   0.632736 0.852769 0.434220 -0.960868
H124  H     H_    0.599161 0.857981 0.434409 0.271442
H125  H     H_    0.640152 0.830518 0.409637 0.276768
H126  H     H_    0.648796 0.881940 0.427573 0.273896
O211  O     O_3   0.847671 0.348336 0.452785 -0.616720
C439  C     C_3   0.824871 0.313005 0.442257 0.108431
H127  H     H_    0.825987 0.291890 0.468838 0.179817
H128  H     H_    0.837714 0.295707 0.415744 0.114671
C440  C     C_3   0.780152 0.324226 0.433905 -0.371638
H129  H     H_    0.767783 0.342010 0.460135 0.250788
H130  H     H_    0.778290 0.343471 0.405989 0.216400
C441  C     C_3   0.753986 0.286105 0.427553 -0.894916
H131  H     H_    0.765501 0.268135 0.401094 0.260905
H132  H     H_    0.721892 0.295291 0.421330 0.274637
H133  H     H_    0.754492 0.266658 0.455389 0.273618
O212  O     O_3   0.346955 0.153374 0.548672 -0.613900
C442  C     C_3   0.362587 0.137462 0.511675 0.091510
H134  H     H_    0.350450 0.106098 0.506428 0.145914
H135  H     H_    0.396683 0.136338 0.511681 0.130007
C443  C     C_3   0.348791 0.165238 0.476739 -0.297083
H136  H     H_    0.314918 0.168103 0.477216 0.238422
H137  H     H_    0.362191 0.196195 0.481102 0.235253
C444  C     C_3   0.361997 0.148531 0.435246 -0.962456
H138  H     H_    0.395701 0.144426 0.434266 0.271571
H139  H     H_    0.352999 0.170361 0.410872 0.276467
H140  H     H_    0.346724 0.118801 0.429245 0.273510
O213  O     O_3   0.848123 0.651135 0.546838 -0.620968
C445  C     C_3   0.826256 0.686825 0.558176 0.112343
H141  H     H_    0.828454 0.708730 0.532311 0.177713
H142  H     H_    0.839136 0.702873 0.585447 0.125524
C446  C     C_3   0.781099 0.676736 0.565475 -0.367710
H143  H     H_    0.768726 0.659919 0.538631 0.249960
H144  H     H_    0.778180 0.656929 0.592899 0.220245
C447  C     C_3   0.755891 0.715456 0.572251 -0.901990
H145  H     H_    0.767426 0.732497 0.599295 0.261965
H146  H     H_    0.723449 0.707072 0.577730 0.274998
H147  H     H_    0.757428 0.735492 0.544874 0.271598
O214  O     O_3   0.353733 0.852333 0.457852 -0.612413
C448  C     C_3   0.364826 0.875738 0.492689 0.109811
H148  H     H_    0.338305 0.875597 0.513929 0.177905
H149  H     H_    0.371605 0.908533 0.485994 0.106786
C449  C     C_3   0.401561 0.856370 0.514323 -0.366874
H150  H     H_    0.395475 0.823375 0.519841 0.251630
H151  H     H_    0.429070 0.859175 0.494617 0.213436
C450  C     C_3   0.410304 0.877367 0.555088 -0.910945
H152  H     H_    0.416959 0.910333 0.550220 0.263482
H153  H     H_    0.437299 0.862874 0.569729 0.278723
H154  H     H_    0.383667 0.874274 0.575938 0.269169
O215  O     O_3   0.152037 0.348745 0.546858 -0.618782
C451  C     C_3   0.173982 0.313101 0.558107 0.112725
H155  H     H_    0.171801 0.291182 0.532210 0.178569
H156  H     H_    0.161157 0.297038 0.585371 0.123081
C452  C     C_3   0.219127 0.323279 0.565354 -0.368622
H157  H     H_    0.231436 0.340125 0.538525 0.250266
H158  H     H_    0.222036 0.343089 0.592814 0.219754
C453  C     C_3   0.244421 0.284610 0.572006 -0.902103
H159  H     H_    0.232948 0.267538 0.599030 0.261369
H160  H     H_    0.276851 0.293059 0.577454 0.275154
H161  H     H_    0.242898 0.264576 0.544588 0.271585
O216  O     O_3   0.646738 0.148162 0.457477 -0.612140
C454  C     C_3   0.635795 0.124891 0.492412 0.107523
H162  H     H_    0.662983 0.123675 0.512777 0.177157
H163  H     H_    0.627291 0.092472 0.485653 0.105068
C455  C     C_3   0.600646 0.145700 0.515390 -0.359129
H164  H     H_    0.608388 0.178349 0.521064 0.251131
H165  H     H_    0.572438 0.144343 0.496513 0.213493
C456  C     C_3   0.592204 0.124712 0.556188 -0.913164
H166  H     H_    0.583812 0.092137 0.551159 0.262771
H167  H     H_    0.566397 0.140340 0.571868 0.278937
H168  H     H_    0.619631 0.126301 0.576202 0.268780
O217  O     O_3   0.857006 0.959088 0.851615 -0.631336
C457  C     C_3   0.815032 0.966020 0.842880 0.138958
H169  H     H_    0.813854 0.992637 0.821811 0.170162
H170  H     H_    0.798782 0.976825 0.870497 0.154032
C458  C     C_3   0.792209 0.930715 0.821462 -0.433468
H171  H     H_    0.806427 0.924491 0.791220 0.230750
H172  H     H_    0.793422 0.902281 0.839783 0.213532
C459  C     C_3   0.747189 0.941798 0.815759 -0.907275
H173  H     H_    0.733413 0.951385 0.845325 0.275812
H174  H     H_    0.730023 0.914759 0.804734 0.271795
H175  H     H_    0.743989 0.966986 0.793206 0.270274
O218  O     O_3   0.154830 0.047382 0.848959 -0.626528
C460  C     C_3   0.130203 0.011532 0.848104 0.135993
H176  H     H_    0.151476 0.985039 0.847166 0.167167
H177  H     H_    0.113126 0.009675 0.818967 0.159798
C461  C     C_3   0.101690 0.005138 0.885194 -0.420437
H178  H     H_    0.120343 0.001755 0.913377 0.230796
H179  H     H_    0.080604 0.031409 0.889383 0.225839
C462  C     C_3   0.075239 0.967274 0.879042 -0.951432
H180  H     H_    0.056619 0.970273 0.850783 0.269339
H181  H     H_    0.054094 0.964143 0.905342 0.275107
H182  H     H_    0.094634 0.939489 0.876717 0.269728
O219  O     O_3   0.152771 0.951753 0.152909 -0.614453
C463  C     C_3   0.187657 0.942167 0.176742 0.113183
H183  H     H_    0.208571 0.968906 0.175342 0.180472
H184  H     H_    0.205407 0.915458 0.164953 0.124599
C464  C     C_3   0.175596 0.934950 0.221443 -0.379278
H185  H     H_    0.157208 0.961277 0.232678 0.252328
H186  H     H_    0.156720 0.906798 0.223710 0.209163
C465  C     C_3   0.213202 0.929925 0.248589 -0.892664
H187  H     H_    0.231770 0.903406 0.238213 0.260246
H188  H     H_    0.203416 0.924487 0.280644 0.275757
H189  H     H_    0.232256 0.958037 0.247711 0.273570
O220  O     O_3   0.853429 0.041333 0.145520 -0.603388
C466  C     C_3   0.876392 0.005916 0.135373 0.109606
H190  H     H_    0.873995 0.984417 0.161559 0.181882
H191  H     H_    0.909701 0.011827 0.130832 0.105553
C467  C     C_3   0.858793 0.985124 0.097238 -0.373256
H192  H     H_    0.825394 0.980298 0.101290 0.253926
H193  H     H_    0.863700 0.005044 0.070187 0.204555
C468  C     C_3   0.879326 0.943958 0.089229 -0.910320
H194  H     H_    0.912716 0.948135 0.084592 0.262315
H195  H     H_    0.866153 0.929923 0.061240 0.276315
H196  H     H_    0.874166 0.922906 0.115370 0.270601
O221  O     O_3   0.046529 0.848829 0.150651 -0.616286
C469  C     C_3   0.054390 0.825854 0.186531 0.107317
H197  H     H_    0.027207 0.828876 0.206695 0.179350
H198  H     H_    0.081031 0.837222 0.204611 0.114797
C470  C     C_3   0.060355 0.780551 0.176026 -0.371399
H199  H     H_    0.034090 0.769630 0.157412 0.250290
H200  H     H_    0.088796 0.776728 0.157841 0.217771
C471  C     C_3   0.063643 0.754470 0.214564 -0.891889
H201  H     H_    0.090072 0.764531 0.233386 0.261004
H202  H     H_    0.068205 0.721928 0.205902 0.277818
H203  H     H_    0.035186 0.756935 0.232960 0.269789
O222  O     O_3   0.954393 0.850635 0.847259 -0.622273
C472  C     C_3   0.989582 0.850413 0.872843 0.139006
H204  H     H_    0.016634 0.850436 0.852290 0.167982
H205  H     H_    0.991675 0.821085 0.889581 0.162120
C473  C     C_3   0.994310 0.887230 0.902125 -0.427537
H206  H     H_    0.997548 0.915778 0.884010 0.230349
H207  H     H_    0.967404 0.890488 0.922544 0.225259
C474  C     C_3   0.031522 0.881532 0.929549 -0.949797
H208  H     H_    0.028329 0.853219 0.948058 0.268178
H209  H     H_    0.033932 0.907902 0.950779 0.273019
H210  H     H_    0.059764 0.879434 0.910844 0.272039
O223  O     O_3   0.048404 0.152953 0.847204 -0.614179
C475  C     C_3   0.057986 0.176774 0.812314 0.112850
H211  H     H_    0.031244 0.175383 0.791414 0.180378
H212  H     H_    0.084651 0.164946 0.794544 0.122647
C476  C     C_3   0.065268 0.221500 0.824379 -0.378900
H213  H     H_    0.038980 0.232775 0.842777 0.252334
H214  H     H_    0.093416 0.223756 0.843249 0.208628
C477  C     C_3   0.070311 0.248631 0.786771 -0.894914
H215  H     H_    0.096792 0.238215 0.768192 0.259163
H216  H     H_    0.075795 0.280705 0.796559 0.275921
H217  H     H_    0.042204 0.247765 0.767724 0.273768
O224  O     O_3   0.958482 0.145769 0.146803 -0.607906
C478  C     C_3   0.993985 0.135759 0.123950 0.106346
H218  H     H_    0.015266 0.162150 0.126227 0.180208
H219  H     H_    0.988169 0.130933 0.090655 0.107363
C479  C     C_3   0.015020 0.097896 0.141819 -0.373350
H220  H     H_    0.019711 0.102194 0.175214 0.252766
H221  H     H_    0.995342 0.070634 0.136996 0.205781
C480  C     C_3   0.056285 0.090110 0.121457 -0.907477
H222  H     H_    0.052248 0.085235 0.088076 0.262637
H223  H     H_    0.070496 0.062308 0.134823 0.277942
H224  H     H_    0.077101 0.116473 0.126545 0.269471
O225  O     O_3   0.151390 0.150874 0.953360 -0.615711
C481  C     C_3   0.174374 0.186737 0.945381 0.108603
H225  H     H_    0.171771 0.206806 0.972699 0.180040
H226  H     H_    0.162701 0.204957 0.918981 0.114182
C482  C     C_3   0.219544 0.176151 0.938781 -0.373027
H227  H     H_    0.230763 0.157440 0.964842 0.251003
H228  H     H_    0.222947 0.158028 0.910230 0.215460
C483  C     C_3   0.245656 0.214666 0.935270 -0.893373
H229  H     H_    0.235298 0.233575 0.909028 0.259223
H230  H     H_    0.278096 0.205948 0.930257 0.276985
H231  H     H_    0.243612 0.233008 0.963814 0.272756
O226  O     O_3   0.151073 0.845053 0.047482 -0.621952
C484  C     C_3   0.152559 0.869617 0.011633 0.140437
H232  H     H_    0.153301 0.848267 0.985189 0.168750
H233  H     H_    0.182006 0.886168 0.009947 0.160798
C485  C     C_3   0.115998 0.898753 0.004924 -0.426750
H234  H     H_    0.087565 0.880534 0.001324 0.232062
H235  H     H_    0.111910 0.919943 0.031127 0.226057
C486  C     C_3   0.122885 0.925078 0.967117 -0.946794
H236  H     H_    0.151311 0.943389 0.970460 0.269092
H237  H     H_    0.096874 0.946532 0.963593 0.275058
H238  H     H_    0.125358 0.905597 0.939404 0.268649
O227  O     O_3   0.840704 0.842713 0.944683 -0.612387
C487  C     C_3   0.823146 0.806207 0.928941 0.128011
H239  H     H_    0.812368 0.787694 0.955290 0.166974
H240  H     H_    0.845828 0.786740 0.912730 0.143158
C488  C     C_3   0.786285 0.814682 0.901011 -0.387036
H241  H     H_    0.760170 0.825885 0.919681 0.235231
H242  H     H_    0.793879 0.838430 0.878054 0.214456
C489  C     C_3   0.773807 0.776092 0.877854 -0.955011
H243  H     H_    0.799165 0.765700 0.857755 0.270982
H244  H     H_    0.746856 0.782714 0.858321 0.267159
H245  H     H_    0.766078 0.751201 0.899599 0.274725
O228  O     O_3   0.854303 0.146777 0.041525 -0.607722
C490  C     C_3   0.864286 0.123881 0.006022 0.104865
H246  H     H_    0.837902 0.126128 0.984744 0.179027
H247  H     H_    0.869110 0.090577 0.011842 0.106369
C491  C     C_3   0.902120 0.141752 0.984971 -0.370682
H248  H     H_    0.897816 0.175153 0.980248 0.252526
H249  H     H_    0.929369 0.136982 0.004659 0.206063
C492  C     C_3   0.909899 0.121315 0.943722 -0.911974
H250  H     H_    0.914780 0.087928 0.947793 0.262497
H251  H     H_    0.937679 0.134685 0.929497 0.278569
H252  H     H_    0.883545 0.126348 0.922900 0.268074
O229  O     O_3   0.357072 0.961074 0.357615 -0.611374
C493  C     C_3   0.384091 0.992786 0.369830 0.119424
H253  H     H_    0.381399 0.017859 0.347075 0.174649
H254  H     H_    0.416898 0.983459 0.369884 0.121647
C494  C     C_3   0.372484 0.009708 0.412003 -0.371126
H255  H     H_    0.340407 0.020949 0.411357 0.241587
H256  H     H_    0.374951 0.985170 0.435325 0.208862
C495  C     C_3   0.400836 0.044601 0.424499 -0.972471
H257  H     H_    0.432807 0.033399 0.427079 0.268161
H258  H     H_    0.391203 0.056893 0.454667 0.263046
H259  H     H_    0.399644 0.069589 0.401548 0.275685
O230  O     O_3   0.642504 0.038618 0.357976 -0.606664
C496  C     C_3   0.614962 0.007411 0.370290 0.121545
H260  H     H_    0.617478 0.982037 0.347809 0.175559
H261  H     H_    0.582290 0.017171 0.370003 0.121052
C497  C     C_3   0.625978 0.990812 0.412705 -0.372935
H262  H     H_    0.657648 0.978476 0.412220 0.241127
H263  H     H_    0.624351 0.015769 0.435687 0.208867
C498  C     C_3   0.596418 0.957141 0.425677 -0.974392
H264  H     H_    0.564954 0.969620 0.428570 0.268209
H265  H     H_    0.605888 0.944645 0.455778 0.262978
H266  H     H_    0.596329 0.932023 0.402806 0.276211
O231  O     O_3   0.656942 0.946448 0.658022 -0.615056
C499  C     C_3   0.693846 0.931351 0.675252 0.126426
H267  H     H_    0.712327 0.958079 0.685180 0.168283
H268  H     H_    0.713032 0.914802 0.652563 0.141335
C500  C     C_3   0.686223 0.904104 0.712812 -0.390128
H269  H     H_    0.675091 0.923229 0.738641 0.234154
H270  H     H_    0.662697 0.880587 0.706058 0.215856
C501  C     C_3   0.725312 0.881862 0.725337 -0.953326
H271  H     H_    0.735593 0.861180 0.700387 0.270262
H272  H     H_    0.719407 0.863039 0.752953 0.266513
H273  H     H_    0.750001 0.904188 0.732070 0.275479
O232  O     O_3   0.349297 0.046440 0.651356 -0.614741
C502  C     C_3   0.313943 0.055378 0.674795 0.109513
H274  H     H_    0.293445 0.028344 0.672920 0.179357
H275  H     H_    0.295958 0.081895 0.662996 0.122901
C503  C     C_3   0.325281 0.062523 0.719705 -0.376690
H276  H     H_    0.343888 0.036402 0.730997 0.252276
H277  H     H_    0.343715 0.090932 0.722422 0.208281
C504  C     C_3   0.287234 0.066866 0.746382 -0.896028
H278  H     H_    0.268430 0.093173 0.735949 0.259695
H279  H     H_    0.296496 0.072272 0.778605 0.275566
H280  H     H_    0.268598 0.038490 0.745050 0.272473
O233  O     O_3   0.038771 0.358612 0.642487 -0.612505
C505  C     C_3   0.007699 0.372295 0.615455 0.119408
H281  H     H_    0.982044 0.350108 0.617311 0.175035
H282  H     H_    0.017367 0.372921 0.582750 0.124550
C506  C     C_3   0.991757 0.414596 0.628033 -0.373081
H283  H     H_    0.980533 0.413481 0.660099 0.241797
H284  H     H_    0.016823 0.437412 0.626089 0.207992
C507  C     C_3   0.957136 0.428535 0.600052 -0.970503
H285  H     H_    0.968375 0.431722 0.568155 0.270040
H286  H     H_    0.945477 0.458689 0.610512 0.258269
H287  H     H_    0.931685 0.406072 0.600645 0.275292
O234  O     O_3   0.953303 0.348288 0.348977 -0.614305
C508  C     C_3   0.943186 0.325612 0.313442 0.110947
H288  H     H_    0.969876 0.327121 0.292472 0.180155
H289  H     H_    0.916664 0.338374 0.296141 0.122392
C509  C     C_3   0.935170 0.280705 0.324215 -0.380154
H290  H     H_    0.961276 0.268498 0.342237 0.252698
H291  H     H_    0.906996 0.278404 0.343051 0.209115
C510  C     C_3   0.929653 0.254696 0.285839 -0.885361
H292  H     H_    0.903346 0.266062 0.267606 0.261055
H293  H     H_    0.923627 0.222468 0.294698 0.276508
H294  H     H_    0.957764 0.255601 0.266787 0.273001
O235  O     O_3   0.045811 0.650334 0.349827 -0.608054
C511  C     C_3   0.010078 0.632569 0.366329 0.087452
H295  H     H_    0.008084 0.638470 0.399843 0.135547
H296  H     H_    0.009518 0.598911 0.360868 0.129187
C512  C     C_3   0.972849 0.651635 0.345574 -0.286027
H297  H     H_    0.972037 0.684986 0.352241 0.233084
H298  H     H_    0.975303 0.647411 0.311920 0.237515
C513  C     C_3   0.933244 0.632047 0.360454 -0.980366
H299  H     H_    0.906768 0.646921 0.345277 0.276880
H300  H     H_    0.930057 0.635860 0.394067 0.274754
H301  H     H_    0.932988 0.598940 0.352737 0.263060
O236  O     O_3   0.961644 0.640920 0.642050 -0.608329
C514  C     C_3   0.992503 0.627114 0.614795 0.120526
H302  H     H_    0.018356 0.649070 0.616699 0.175853
H303  H     H_    0.982703 0.626757 0.582129 0.120830
C515  C     C_3   0.008144 0.584610 0.626996 -0.373121
H304  H     H_    0.019728 0.585523 0.658937 0.241570
H305  H     H_    0.982830 0.562052 0.625237 0.207714
C516  C     C_3   0.042310 0.570385 0.598549 -0.974192
H306  H     H_    0.030663 0.567329 0.566787 0.268086
H307  H     H_    0.053825 0.540118 0.608775 0.259129
H308  H     H_    0.067969 0.592613 0.598885 0.275415
O237  O     O_3   0.651167 0.645419 0.957154 -0.628619
C517  C     C_3   0.659191 0.687871 0.961947 0.138066
H309  H     H_    0.682046 0.690618 0.986926 0.169960
H310  H     H_    0.631920 0.703797 0.974072 0.157501
C518  C     C_3   0.677365 0.709931 0.924406 -0.437988
H311  H     H_    0.707580 0.696401 0.916698 0.225210
H312  H     H_    0.657235 0.707027 0.897299 0.227371
C519  C     C_3   0.682285 0.755543 0.933347 -0.901284
H313  H     H_    0.652876 0.768868 0.943988 0.276111
H314  H     H_    0.691319 0.771844 0.905068 0.270909
H315  H     H_    0.706057 0.760443 0.957108 0.269225
O238  O     O_3   0.651305 0.349257 0.046343 -0.614660
C520  C     C_3   0.674732 0.313820 0.054980 0.110128
H316  H     H_    0.672743 0.293419 0.027859 0.180047
H317  H     H_    0.663000 0.295737 0.081442 0.123973
C521  C     C_3   0.719672 0.325087 0.061971 -0.380987
H318  H     H_    0.730887 0.343807 0.035917 0.252634
H319  H     H_    0.722507 0.343404 0.090459 0.208836
C522  C     C_3   0.746327 0.286973 0.065960 -0.884571
H320  H     H_    0.735970 0.268053 0.092192 0.262029
H321  H     H_    0.778573 0.296185 0.071264 0.276105
H322  H     H_    0.744879 0.268456 0.037494 0.272644
O239  O     O_3   0.356425 0.355814 0.960048 -0.611669
C523  C     C_3   0.368399 0.382047 0.992512 0.117895
H323  H     H_    0.344861 0.379528 0.016882 0.175821
H324  H     H_    0.369590 0.415018 0.983798 0.120015
C524  C     C_3   0.409759 0.369016 0.010292 -0.367674
H325  H     H_    0.408300 0.336413 0.019842 0.244646
H326  H     H_    0.433969 0.372377 0.986724 0.207344
C525  C     C_3   0.421328 0.395383 0.047026 -0.970953
H327  H     H_    0.424358 0.427925 0.037729 0.267932
H328  H     H_    0.451077 0.384904 0.059587 0.262657
H329  H     H_    0.397651 0.392908 0.071239 0.275443
O240  O     O_3   0.357719 0.642786 0.038875 -0.607639
C526  C     C_3   0.369887 0.615649 0.007213 0.120736
H330  H     H_    0.347015 0.618182 0.982224 0.175786
H331  H     H_    0.370103 0.582852 0.016619 0.120250
C527  C     C_3   0.411953 0.627322 0.990128 -0.371714
H332  H     H_    0.411125 0.659359 0.978775 0.242299
H333  H     H_    0.435372 0.625056 0.014594 0.208237
C528  C     C_3   0.424449 0.598823 0.955318 -0.971874
H334  H     H_    0.427285 0.566916 0.966642 0.268197
H335  H     H_    0.454492 0.608551 0.942853 0.262476
H336  H     H_    0.401364 0.599748 0.930445 0.275742

loop_
_geom_bond_atom_site_label_1
_geom_bond_atom_site_label_2
_ccdc_geom_bond_type
C429  H104  S    
C498  H265  S    
C1    C176  A    
C515  H304  S    
C136  C238  S    
O166  Zn19  S    
C122  O122  A    
C281  C336  A    
C396  H27   S    
C29   O221  S    
C33   C166  A    
C521  C522  S    
C59   O11   A    
C97   C202  S    
O155  Zn14  S    
C284  C330  A    
C45   C170  A    
O133  Zn32  S    
C471  H202  S    
C520  H316  S    
C402  H42   S    
C57   O9    A    
C506  H284  S    
C269  C321  A    
C128  O133  A    
C88   O76   A    
C400  C401  S    
C27   C159  A    
C37   C178  A    
O10   Zn10  S    
O204  C418  S    
C508  H288  S    
C431  H109  S    
O182  Zn43  S    
C206  C350  T    
C89   O88   A    
O186  Zn48  S    
O115  Zn17  S    
O38   Zn29  S    
C317  F29   S    
C114  O114  A    
O161  Zn24  S    
O37   Zn30  S    
C525  H327  S    
C219  C363  T    
O102  Zn8   S    
O14   Zn14  S    
C177  C352  S    
C482  H227  S    
O163  Zn22  S    
C397  H30   S    
O39   Zn32  S    
C478  C479  S    
C429  H105  S    
C179  C350  S    
C21   O213  S    
C442  H134  S    
O153  Zn16  S    
C135  O174  A    
C299  F11   S    
C26   C163  A    
C282  C329  A    
C5    C149  A    
O230  C496  S    
C298  F10   S    
C497  H263  S    
O228  C490  S    
C134  C239  S    
O114  Zn20  S    
O88   Zn43  S    
C439  H127  S    
C444  H140  S    
C119  O119  A    
C186  C359  S    
C106  O106  A    
C11   C154  A    
O200  C406  S    
C43   C175  A    
C524  H326  S    
C302  F14   S    
C389  C390  S    
C80   O36   A    
C319  F31   S    
C402  H40   S    
C103  O146  A    
C495  H258  S    
C494  H256  S    
C417  H77   S    
C506  C507  S    
C14   C151  A    
O76   Zn40  S    
C472  C473  S    
C477  H216  S    
C46   C174  A    
O60   Zn15  S    
C303  F15   S    
C131  C224  S    
C117  O117  A    
C191  C354  S    
C100  O100  A    
O140  Zn34  S    
C47   C176  A    
C245  C308  A    
C112  O153  A    
C390  H14   S    
C286  C336  A    
C409  C410  S    
C387  H6    S    
O207  C427  S    
C508  H289  S    
C165  C372  S    
C509  C510  S    
O178  Zn44  S    
C86   C286  S    
O67   Zn24  S    
C62   C255  S    
C139  O182  A    
C405  H48   S    
C278  C331  A    
C311  F23   S    
C480  H222  S    
C452  H157  S    
C509  H291  S    
C509  H290  S    
C466  C467  S    
O43   Zn35  S    
C126  O135  A    
O193  C385  S    
C93   O96   A    
C385  H2    S    
O95   Zn48  S    
C432  H111  S    
C243  C291  A    
O125  Zn28  S    
C155  C382  S    
C493  H254  S    
C502  H275  S    
C226  C370  T    
C477  H217  S    
C89   C283  S    
C144  O189  A    
O183  Zn42  S    
C414  H70   S    
C182  C347  S    
C433  H113  S    
C482  H228  S    
C449  H150  S    
C421  C422  S    
C47   C183  A    
C83   O46   A    
C329  F41   S    
C288  C329  A    
C500  H270  S    
C63   O15   A    
C467  H192  S    
O238  C520  S    
C514  C515  S    
O11   Zn11  S    
C515  C516  S    
C328  F40   S    
C141  C230  S    
O229  C493  S    
C246  C294  A    
C99   O99   A    
C105  C210  S    
C136  O172  A    
O170  Zn40  S    
C24   C185  A    
C77   C247  S    
C405  H49   S    
C463  H184  S    
C97   O97   A    
C108  O108  A    
C112  C195  S    
C129  C218  S    
C279  C327  A    
C90   O87   A    
C480  H224  S    
C385  C386  S    
C39   C191  A    
C42   C190  A    
C64   C259  S    
C505  H282  S    
C12   C181  A    
C435  H119  S    
C254  C314  A    
C88   O77   A    
O74   Zn38  S    
C51   O54   A    
C437  H122  S    
C416  C417  S    
O73   Zn37  S    
C407  H52   S    
C270  C322  A    
C114  C201  S    
C404  H46   S    
C415  H72   S    
C521  H318  S    
O78   Zn37  S    
O75   Zn39  S    
C210  C354  T    
C480  H223  S    
O77   Zn38  S    
O152  Zn1   S    
C236  C380  T    
O30   Zn25  S    
O157  Zn12  S    
O29   Zn26  S    
C216  C360  T    
C457  H170  S    
C126  O130  A    
C503  H277  S    
C98   O151  A    
C408  H55   S    
C335  F47   S    
C140  C233  S    
C510  H294  S    
C40   O232  S    
O8    Zn8   S    
C160  C365  S    
O80   Zn39  S    
O120  Zn22  S    
C58   O63   A    
C212  C356  T    
C125  O129  A    
C265  C320  A    
C94   O90   A    
C520  C521  S    
C54   O51   A    
C75   O30   A    
C505  C506  S    
C410  H60   S    
C19   C190  A    
C448  H148  S    
C57   C276  S    
C27   O219  S    
C450  H153  S    
O135  Zn30  S    
O224  C478  S    
O92   Zn48  S    
C273  C324  A    
O108  Zn10  S    
C50   O2    A    
C419  C420  S    
C440  H130  S    
C11   O203  S    
O218  C460  S    
C71   O23   A    
O136  Zn29  S    
C87   C285  S    
C140  O181  A    
C449  H151  S    
C60   O61   A    
O16   Zn16  S    
C461  H178  S    
C23   C186  A    
C46   O238  S    
C461  C462  S    
C291  F3    S    
O86   Zn41  S    
O100  Zn2   S    
O164  Zn21  S    
C194  C338  T    
C503  C504  S    
C139  C235  S    
C45   O237  S    
C401  C402  S    
C234  C378  T    
C523  H324  S    
C17   C146  A    
C470  H199  S    
C180  C349  S    
C117  O164  A    
C9    C184  A    
C488  C489  S    
C419  H81   S    
O158  Zn11  S    
O24   Zn24  S    
O181  Zn44  S    
C37   C187  A    
C181  C348  S    
C7    O199  S    
C388  H8    S    
C87   O75   A    
C192  C353  S    
C434  C435  S    
C391  H16   S    
C118  O118  A    
C26   C158  A    
C474  H210  S    
O49   Zn6   S    
C522  H321  S    
C67   C254  S    
C495  H257  S    
C2    C146  A    
C443  H137  S    
O150  Zn3   S    
C73   C252  S    
C189  C356  S    
C240  C384  T    
O51   Zn8   S    
C445  C446  S    
C288  C334  A    
C428  H101  S    
C214  C358  T    
C259  C314  A    
O169  Zn39  S    
C423  H89   S    
C114  O167  A    
C107  O158  A    
C309  F21   S    
C399  H33   S    
C85   O80   A    
C483  H230  S    
C424  H92   S    
C457  H169  S    
C7    C170  A    
O239  C523  S    
O6    Zn6   S    
C109  O156  A    
C307  F19   S    
C136  O173  A    
C395  H25   S    
C25   C164  A    
C187  C358  S    
C31   O223  S    
O57   Zn14  S    
C443  C444  S    
C403  C404  S    
C111  O111  A    
C275  C297  A    
C32   O224  S    
C446  H144  S    
O33   Zn29  S    
O59   Zn16  S    
C44   C173  A    
C507  H287  S    
C87   O78   A    
C3    C147  A    
C386  H3    S    
C488  H242  S    
C65   O72   A    
C414  H69   S    
C113  C194  S    
O94   Zn45  S    
C1    C145  A    
O215  C451  S    
C519  H315  S    
C315  F27   S    
C8    C169  A    
C512  C513  S    
C468  H196  S    
C473  H207  S    
O212  C442  S    
C259  C305  A    
C137  O177  A    
C514  H302  S    
C526  H331  S    
O52   Zn7   S    
C458  H171  S    
C135  C240  S    
C4    O196  S    
C166  C371  S    
C41   C171  A    
C83   C242  S    
C501  H272  S    
C427  C428  S    
C72   O24   A    
C427  H100  S    
C486  H237  S    
C159  C366  S    
C487  H240  S    
C78   O34   A    
C474  H208  S    
O17   Zn17  S    
O22   Zn22  S    
C323  F35   S    
C412  H64   S    
C142  O186  A    
O144  Zn33  S    
C387  H7    S    
O72   Zn19  S    
C527  H332  S    
C25   O217  S    
C450  H152  S    
C53   O52   A    
C80   O37   A    
C28   C160  A    
C286  C332  A    
C80   C241  S    
C310  F22   S    
C84   C246  S    
C447  H145  S    
C217  C361  T    
C108  C197  S    
C196  C340  T    
O210  C436  S    
C462  H182  S    
C274  C296  A    
O85   Zn42  S    
C49   C268  S    
C256  C316  A    
C215  C359  T    
C454  H162  S    
C413  H66   S    
C442  H135  S    
C501  H273  S    
C507  H286  S    
C253  C307  A    
C440  H129  S    
C510  H292  S    
C454  H163  S    
O165  Zn20  S    
C195  C339  T    
C465  H187  S    
C272  C324  A    
C109  O109  A    
O179  Zn41  S    
C34   C165  A    
C266  C312  A    
C39   C184  A    
C254  C302  A    
C423  H91   S    
O129  Zn31  S    
C464  C465  S    
C28   O220  S    
C483  H231  S    
C389  H11   S    
C249  C298  A    
C428  C429  S    
O180  Zn42  S    
O137  Zn35  S    
O175  Zn38  S    
C40   C180  A    
C484  H232  S    
C507  H285  S    
C103  O103  A    
C130  O143  A    
C422  H88   S    
C46   C177  A    
O233  C505  S    
C103  C206  S    
C528  H335  S    
C133  C237  S    
C221  C365  T    
C262  C310  A    
C14   O206  S    
C271  C303  A    
C153  C384  S    
C28   C161  A    
C287  C333  A    
C17   O209  S    
C434  H116  S    
C242  C299  A    
C116  O165  A    
C98   C209  S    
C52   O53   A    
C322  F34   S    
C482  C483  S    
O220  C466  S    
C106  O159  A    
C55   C264  S    
C294  F6    S    
C21   C148  A    
C490  C491  S    
C293  F5    S    
C451  H155  S    
O113  Zn19  S    
C513  H300  S    
C406  H51   S    
C486  H236  S    
C460  H177  S    
C33   O225  S    
O160  Zn9   S    
C430  H107  S    
O70   Zn17  S    
C469  H197  S    
C499  H267  S    
O159  Zn10  S    
O69   Zn18  S    
C232  C376  T    
C274  C323  A    
C92   C277  S    
C241  C289  A    
C104  O145  A    
C431  C432  S    
C421  H85   S    
C172  C341  S    
C398  H31   S    
C62   O59   A    
C132  C220  S    
C308  F20   S    
C143  C236  S    
C260  C313  A    
C56   C275  S    
C481  H226  S    
C82   O42   A    
O62   Zn9   S    
O205  C421  S    
C2    C175  A    
C270  C294  A    
C127  O134  A    
C255  C311  A    
C3    C174  A    
C65   C260  S    
C70   O22   A    
C399  H35   S    
C203  C347  T    
C251  C305  A    
C424  C425  S    
C411  H61   S    
C277  C335  A    
C465  H189  S    
C265  C293  A    
C35   C168  A    
C453  H159  S    
C48   O240  S    
O131  Zn29  S    
C281  C328  A    
C77   O40   A    
C91   C279  S    
O156  Zn13  S    
C66   C265  S    
C441  H133  S    
C78   O39   A    
C283  C326  A    
O9    Zn9   S    
C252  C311  A    
O19   Zn19  S    
C142  O191  A    
C168  C369  S    
C413  H67   S    
C435  H118  S    
C43   C192  A    
O107  Zn9   S    
C386  C387  S    
C433  H114  S    
O112  Zn14  S    
C426  H97   S    
C440  C441  S    
O13   Zn13  S    
C104  O104  A    
C481  C482  S    
C131  O139  A    
C112  O112  A    
C128  O132  A    
O26   Zn26  S    
C72   O65   A    
C425  H94   S    
C21   C188  A    
C455  H164  S    
C134  O170  A    
C504  H280  S    
O48   Zn35  S    
C389  H10   S    
C515  H305  S    
C108  O157  A    
C306  F18   S    
O240  C526  S    
C156  C381  S    
C39   O231  S    
C222  C366  T    
O47   Zn36  S    
C301  F13   S    
C70   O67   A    
C34   C162  A    
C469  C470  S    
C228  C372  T    
C128  C221  S    
C412  C413  S    
C30   O222  S    
C402  H41   S    
C101  O148  A    
C207  C351  T    
C517  H309  S    
C110  O155  A    
C35   C164  A    
C8    O200  S    
C456  H168  S    
C13   C180  A    
C19   C152  A    
O36   Zn32  S    
C145  C380  S    
C78   C245  S    
C64   O57   A    
C38   C182  A    
C473  C474  S    
C511  C512  S    
C314  F26   S    
C118  C207  S    
O123  Zn25  S    
C69   O21   A    
C500  H269  S    
C385  H1    S    
C75   C249  S    
C421  H86   S    
C171  C342  S    
C397  C398  S    
C496  H260  S    
C436  H121  S    
C47   O239  S    
C120  O161  A    
C318  F30   S    
C413  C414  S    
C199  C343  T    
C459  H174  S    
O234  C508  S    
O96   Zn47  S    
C5    C172  A    
C332  F44   S    
C41   C186  A    
O55   Zn4   S    
C476  C477  S    
C24   O216  S    
C56   O49   A    
C69   O68   A    
C438  H124  S    
O41   Zn33  S    
O79   Zn40  S    
C444  H139  S    
C95   O94   A    
O90   Zn46  S    
O106  Zn12  S    
C464  H185  S    
C52   O4    A    
O34   Zn30  S    
O65   Zn22  S    
C438  H126  S    
C53   O5    A    
O226  C484  S    
C251  C302  A    
O134  Zn31  S    
C484  C485  S    
C2    O194  S    
C132  O141  A    
C95   C278  S    
C485  H235  S    
C51   O3    A    
C183  C346  S    
O110  Zn16  S    
C64   O16   A    
C164  C361  S    
C305  F17   S    
C101  O101  A    
C61   O60   A    
C521  H319  S    
C30   C168  A    
C22   O214  S    
C390  H13   S    
C416  H73   S    
C415  H71   S    
C30   C157  A    
C466  H190  S    
C123  O123  A    
C445  H141  S    
C10   C183  A    
C85   C288  S    
C450  H154  S    
O56   Zn3   S    
C492  H251  S    
C492  H250  S    
C121  O121  A    
C490  H246  S    
O2    Zn2   S    
C451  C452  S    
C269  C299  A    
O35   Zn31  S    
C267  C318  A    
O222  C472  S    
C517  C518  S    
C403  H44   S    
O209  C433  S    
C266  C319  A    
C313  F25   S    
C92   O85   A    
C249  C307  A    
C268  C306  A    
O197  C397  S    
C432  H110  S    
O194  C388  S    
C470  C471  S    
C518  H312  S    
C493  C494  S    
C74   O26   A    
C393  H19   S    
O122  Zn28  S    
C316  F28   S    
C16   C147  A    
C115  O115  A    
C225  C369  T    
O151  Zn2   S    
C205  C349  T    
O139  Zn33  S    
C296  F8    S    
O64   Zn11  S    
C519  H314  S    
C445  H142  S    
C256  C300  A    
C113  O113  A    
C154  C383  S    
O82   Zn42  S    
C67   O19   A    
C489  H243  S    
C111  O154  A    
C467  H193  S    
C118  O163  A    
C514  H303  S    
C418  H79   S    
C134  O175  A    
O223  C475  S    
C479  H221  S    
O203  C415  S    
C119  C198  S    
C411  H63   S    
C460  H176  S    
C33   C158  A    
C420  H84   S    
C475  H211  S    
C121  O128  A    
C253  C313  A    
O31   Zn28  S    
C460  C461  S    
C452  C453  S    
C29   C165  A    
O68   Zn23  S    
C107  O107  A    
O126  Zn27  S    
C403  H43   S    
C392  C393  S    
C278  C326  A    
C170  C343  S    
C505  H281  S    
C117  C196  S    
C15   O207  S    
C197  C341  T    
C250  C309  A    
C40   C189  A    
O235  C511  S    
C24   C154  A    
C485  H234  S    
C512  H298  S    
C437  H123  S    
C86   O79   A    
C151  C374  S    
C407  H53   S    
C522  H320  S    
C449  C450  S    
O208  C430  S    
C290  F2    S    
C135  O171  A    
O99   Zn1   S    
C157  C368  S    
C289  F1    S    
C176  C337  S    
C495  H259  S    
C235  C379  T    
O45   Zn34  S    
C516  H308  S    
C18   O210  S    
C91   O86   A    
C479  C480  S    
O42   Zn34  S    
O196  C394  S    
C124  O124  A    
C321  F33   S    
C79   O38   A    
O54   Zn1   S    
O132  Zn30  S    
C408  H54   S    
C90   C281  S    
C20   O212  S    
C282  C327  A    
C224  C368  T    
C81   C248  S    
C202  C346  T    
C152  C373  S    
C121  C225  S    
C19   O211  S    
C55   O7    A    
C162  C363  S    
C204  C348  T    
C125  O136  A    
C439  H128  S    
C471  H201  S    
C520  H317  S    
C423  H90   S    
C149  C376  S    
C487  H239  S    
C478  H219  S    
C17   C192  A    
C227  C371  T    
C100  C213  S    
C18   C191  A    
C243  C306  A    
C431  H108  S    
C32   C167  A    
O98   Zn4   S    
O219  C463  S    
C407  C408  S    
C75   O27   A    
O142  Zn35  S    
C406  H50   S    
C393  H20   S    
C496  H261  S    
O177  Zn43  S    
O63   Zn12  S    
C257  C316  A    
C73   O25   A    
C526  H330  S    
C102  O102  A    
O172  Zn38  S    
C258  C315  A    
C280  C332  A    
C496  C497  S    
C105  O105  A    
C123  C228  S    
C498  H266  S    
C246  C297  A    
C283  C333  A    
C409  H57   S    
C504  H278  S    
O128  Zn25  S    
C36   C167  A    
C51   C262  S    
O231  C499  S    
C59   C270  S    
C277  C325  A    
C497  H262  S    
C98   O98   A    
C4    C148  A    
C130  O138  A    
C453  H161  S    
C9    O201  S    
O195  C391  S    
O217  C457  S    
C42   C169  A    
C100  O149  A    
C410  C411  S    
O66   Zn21  S    
C448  H149  S    
C95   O91   A    
C524  H325  S    
C326  F38   S    
C130  C222  S    
C146  C379  S    
C478  H218  S    
C494  C495  S    
C271  C323  A    
C504  H279  S    
C477  H215  S    
C524  C525  S    
C261  C317  A    
C474  H209  S    
C436  H120  S    
C211  C355  T    
O116  Zn18  S    
C519  H313  S    
O138  Zn36  S    
O44   Zn36  S    
C73   O32   A    
C263  C319  A    
C499  H268  S    
C74   O31   A    
C400  H37   S    
O5    Zn5   S    
C119  O162  A    
C133  O176  A    
C200  C344  T    
C23   C150  A    
C399  H34   S    
C508  C509  S    
O237  C517  S    
C492  H252  S    
O21   Zn21  S    
C394  H22   S    
C336  F48   S    
C139  O179  A    
C405  H47   S    
C76   C251  S    
O143  Zn34  S    
C37   O229  S    
C433  C434  S    
C90   O82   A    
C523  C524  S    
C20   C189  A    
C76   O29   A    
C218  C362  T    
C93   O89   A    
C446  H143  S    
C518  H311  S    
C432  H112  S    
O146  Zn7   S    
C255  C315  A    
C86   O74   A    
C493  H253  S    
C133  O169  A    
C396  H28   S    
C416  H74   S    
C397  H29   S    
C461  H179  S    
C12   C149  A    
C144  C232  S    
C327  F39   S    
C66   O71   A    
C161  C364  S    
O214  C448  S    
C59   O62   A    
C83   O43   A    
C488  H241  S    
O211  C439  S    
C124  C226  S    
O141  Zn36  S    
C285  C330  A    
C81   O41   A    
O174  Zn39  S    
C193  C337  T    
O154  Zn15  S    
C68   O20   A    
C475  C476  S    
C56   O8    A    
C99   C208  S    
C451  H156  S    
C258  C304  A    
C463  H183  S    
C58   O10   A    
C113  O168  A    
O130  Zn32  S    
C479  H220  S    
C502  C503  S    
C430  H106  S    
C50   O55   A    
C115  O166  A    
C491  H249  S    
O97   Zn3   S    
C148  C377  S    
O185  Zn47  S    
C260  C298  A    
C44   C188  A    
C415  C416  S    
O176  Zn37  S    
C261  C291  A    
C50   C273  S    
C94   O95   A    
C60   C253  S    
O187  Zn45  S    
O46   Zn33  S    
C404  C405  S    
C127  O131  A    
O162  Zn23  S    
O12   Zn12  S    
C239  C383  T    
C468  H195  S    
O184  Zn41  S    
C462  H181  S    
C173  C340  S    
O188  Zn46  S    
O40   Zn31  S    
C5    O197  S    
C188  C357  S    
C198  C342  T    
C81   O48   A    
C441  H131  S    
C462  H180  S    
C250  C300  A    
C6    O198  S    
O127  Zn26  S    
C57   O64   A    
C447  H146  S    
C503  H276  S    
C408  H56   S    
C333  F45   S    
C122  O127  A    
C264  C308  A    
C169  C344  S    
O101  Zn7   S    
C427  H99   S    
C71   O66   A    
O118  Zn24  S    
C390  H12   S    
C388  C389  S    
O18   Zn18  S    
C96   O92   A    
C388  H9    S    
C3    O195  S    
C300  F12   S    
C79   O35   A    
C231  C375  T    
C401  H39   S    
C512  H297  S    
C12   O204  S    
C68   O69   A    
C464  H186  S    
C527  C528  S    
C54   C271  S    
C409  H58   S    
C41   O233  S    
C426  H96   S    
C428  H102  S    
C456  H166  S    
O53   Zn2   S    
C11   C182  A    
O61   Zn10  S    
C304  F16   S    
C49   O56   A    
C396  H26   S    
C248  C303  A    
O25   Zn25  S    
C111  C214  S    
C48   C181  A    
C137  C231  S    
C63   O58   A    
C229  C373  T    
C490  H247  S    
C465  H188  S    
C190  C355  S    
C491  H248  S    
C201  C345  T    
C29   C159  A    
C163  C362  S    
C223  C367  T    
C434  H115  S    
C312  F24   S    
C466  H191  S    
O201  C409  S    
C65   O17   A    
C209  C353  T    
C60   O12   A    
C497  C498  S    
C8    C152  A    
C93   C284  S    
C280  C328  A    
C61   O13   A    
C523  H323  S    
O84   Zn44  S    
C425  C426  S    
C238  C382  T    
C499  C500  S    
O119  Zn21  S    
C68   C261  S    
O81   Zn41  S    
C447  H147  S    
C16   O208  S    
C419  H80   S    
O206  C424  S    
C55   O50   A    
C469  H198  S    
C92   O84   A    
C158  C367  S    
C208  C352  T    
C53   C266  S    
C525  H329  S    
C247  C295  A    
O20   Zn20  S    
C129  O137  A    
C391  H15   S    
C248  C296  A    
C275  C322  A    
O225  C481  S    
C522  H322  S    
C237  C381  T    
C22   C187  A    
O109  Zn15  S    
C525  H328  S    
C257  C309  A    
C513  H299  S    
C13   C155  A    
C417  H76   S    
C13   O205  S    
C472  H205  S    
C443  H136  S    
C233  C377  T    
O149  Zn4   S    
C244  C292  A    
C459  H175  S    
O190  Zn47  S    
C52   C269  S    
C245  C293  A    
C124  O125  A    
C84   O44   A    
C230  C374  T    
C394  C395  S    
C91   O83   A    
C511  H295  S    
C110  O110  A    
C147  C378  S    
C395  H24   S    
O83   Zn43  S    
C458  C459  S    
C109  C212  S    
O93   Zn46  S    
C20   C155  A    
C453  H160  S    
C116  C205  S    
C422  H87   S    
C127  C223  S    
C273  C301  A    
C446  C447  S    
C325  F37   S    
C67   O70   A    
O124  Zn26  S    
C472  H204  S    
O213  C445  S    
C105  O160  A    
C401  H38   S    
C1    O193  S    
C184  C345  S    
C386  H4    S    
C129  O144  A    
C48   C172  A    
C418  C419  S    
C392  H17   S    
C437  C438  S    
O121  Zn27  S    
O105  Zn11  S    
C131  O142  A    
C43   O235  S    
C398  C399  S    
C150  C375  S    
C79   C243  S    
C526  C527  S    
C473  H206  S    
C74   C250  S    
O50   Zn5   S    
C425  H95   S    
C174  C339  S    
C106  C193  S    
C455  H165  S    
C6    C171  A    
C458  H172  S    
O199  C403  S    
O7    Zn7   S    
C70   C263  S    
C448  C449  S    
C31   C163  A    
C178  C351  S    
C66   O18   A    
O32   Zn27  S    
C392  H18   S    
C501  H271  S    
C107  C216  S    
C58   C257  S    
C220  C364  T    
C138  O178  A    
C463  C464  S    
C331  F43   S    
C276  C321  A    
C267  C289  A    
C486  H238  S    
O198  C400  S    
C213  C357  T    
C96   O93   A    
C175  C338  S    
O91   Zn47  S    
C247  C312  A    
C412  H65   S    
C36   C160  A    
O232  C502  S    
C483  H229  S    
C517  H310  S    
C120  O120  A    
O58   Zn13  S    
C424  H93   S    
C400  H36   S    
C143  O187  A    
O171  Zn37  S    
C72   C267  S    
C96   C282  S    
O87   Zn44  S    
C498  H264  S    
C411  H62   S    
C82   O47   A    
C513  H301  S    
O1    Zn1   S    
C63   C272  S    
C471  H203  S    
O27   Zn27  S    
C138  O183  A    
O173  Zn40  S    
C42   O234  S    
C455  C456  S    
C287  C331  A    
C241  C310  A    
C285  C335  A    
C31   C166  A    
C61   C274  S    
C442  C443  S    
C32   C161  A    
C140  O180  A    
C395  C396  S    
C491  C492  S    
C516  H306  S    
C454  C455  S    
C82   C244  S    
C84   O45   A    
C476  H214  S    
O23   Zn23  S    
C88   C287  S    
C6    C150  A    
C36   O228  S    
C500  C501  S    
C15   C156  A    
C510  H293  S    
C18   C153  A    
C35   O227  S    
C264  C320  A    
C252  C304  A    
C518  C519  S    
C125  C219  S    
C185  C360  S    
C34   O226  S    
C27   C162  A    
C438  H125  S    
C143  O190  A    
C468  H194  S    
C410  H59   S    
C494  H255  S    
C436  C437  S    
C26   O218  S    
C484  H233  S    
C244  C301  A    
C25   C157  A    
O117  Zn23  S    
C22   C156  A    
C422  C423  S    
C7    C151  A    
O148  Zn5   S    
C426  H98   S    
C94   C280  S    
O227  C487  S    
C334  F46   S    
C404  H45   S    
C16   C177  A    
C330  F42   S    
C444  H138  S    
O103  Zn5   S    
C528  H336  S    
C297  F9    S    
O4    Zn4   S    
O221  C469  S    
C387  H5    S    
C123  O126  A    
C429  H103  S    
C398  H32   S    
C527  H333  S    
C489  H245  S    
O15   Zn15  S    
C110  C199  S    
C104  C211  S    
O104  Zn6   S    
O168  Zn17  S    
C97   O152  A    
C138  C229  S    
C14   C179  A    
O167  Zn18  S    
C141  O192  A    
O202  C412  S    
C487  C488  S    
C101  C204  S    
C137  O184  A    
C430  C431  S    
C476  H213  S    
C414  H68   S    
C126  C217  S    
C485  C486  S    
C102  O147  A    
C470  H200  S    
C38   C185  A    
C115  C200  S    
O111  Zn13  S    
C116  O116  A    
C324  F36   S    
C391  C392  S    
C85   O73   A    
C4    C173  A    
C167  C370  S    
C262  C318  A    
O191  Zn46  S    
C528  H334  S    
C481  H225  S    
C276  C290  A    
O28   Zn28  S    
O89   Zn45  S    
C292  F4    S    
C272  C292  A    
C489  H244  S    
C268  C317  A    
C393  H21   S    
C467  C468  S    
O192  Zn45  S    
O216  C454  S    
C49   O1    A    
C62   O14   A    
C10   O202  S    
C263  C295  A    
C122  C227  S    
C284  C325  A    
C44   O236  S    
C132  O140  A    
C420  H83   S    
C475  H212  S    
C406  C407  S    
C452  H158  S    
C279  C334  A    
C77   O33   A    
C99   O150  A    
C441  H132  S    
C71   C256  S    
C506  H283  S    
C420  H82   S    
C141  O185  A    
C45   C179  A    
C10   C145  A    
C9    C153  A    
C502  H274  S    
C102  C215  S    
C142  C234  S    
C38   O230  S    
C435  H117  S    
C295  F7    S    
O145  Zn8   S    
C456  H167  S    
O71   Zn20  S    
C144  O188  A    
C15   C178  A    
C418  H78   S    
C120  C203  S    
C417  H75   S    
O147  Zn6   S    
C89   O81   A    
C320  F32   S    
C242  C290  A    
C516  H307  S    
O236  C514  S    
C459  H173  S    
O189  Zn48  S    
C23   O215  S    
C76   O28   A    
C439  C440  S    
O3    Zn3   S    
C511  H296  S    
C69   C258  S    
C394  H23   S    
C457  C458  S    
C54   O6    A    
