data_mof_unit_41544.cif
_audit_creation_date              2013-03-05T16:03:59-0500
_audit_creation_method            fapswitch 2.2
_symmetry_space_group_name_H-M    P1
_symmetry_Int_Tables_number       1
_space_group_crystal_system       triclinic
_cell_length_a                    13.00158
_cell_length_b                    10.868322
_cell_length_c                    9.560791
_cell_angle_alpha                 90.80893
_cell_angle_beta                  97.941892
_cell_angle_gamma                 92.383571
_cell_volume                      1336.60618416

loop_
_atom_site_label
_atom_site_type_symbol
_atom_site_description
_atom_site_fract_x
_atom_site_fract_y
_atom_site_fract_z
_atom_type_partial_charge
O1    O     O_R   0.499990 0.319660 0.618740 -0.575525
O2    O     O_R   0.500010 0.680340 0.381260 -0.575524
O3    O     O_R   0.499990 0.319630 0.381170 -0.526519
O4    O     O_R   0.500010 0.680370 0.618830 -0.526521
C1    C     C_R   0.509438 0.262726 0.501273 0.873252
C2    C     C_R   0.490562 0.737274 0.498728 0.873248
O5    O     O_R   0.349000 0.499990 0.599490 -0.585769
O6    O     O_R   0.651000 0.500010 0.400510 -0.585770
O7    O     O_R   0.348990 0.499960 0.361920 -0.573868
O8    O     O_R   0.651010 0.500040 0.638080 -0.573869
C3    C     C_R   0.300214 0.501204 0.472022 0.827777
C4    C     C_R   0.699786 0.498796 0.527978 0.827779
Cu1   Cu    Cu3+1 0.500000 0.500020 0.640660 1.038908
Cu2   Cu    Cu3+1 0.500000 0.499980 0.359340 1.038909
C5    C     C_R   0.813411 0.498793 0.545139 -0.101335
C6    C     C_R   0.186589 0.501205 0.454861 -0.101335
C7    C     C_R   0.018763 0.453268 0.316499 0.175924
C8    C     C_R   0.981238 0.546720 0.683504 0.175924
C9    C     C_R   0.126461 0.467157 0.326381 -0.169857
C10   C     C_R   0.873539 0.532831 0.673622 -0.169855
C11   C     C_R   0.138034 0.529160 0.572358 -0.188976
C12   C     C_R   0.861965 0.470842 0.427640 -0.188971
C13   C     C_R   0.030181 0.519672 0.564591 0.070378
C14   C     C_R   0.969819 0.480323 0.435409 0.070377
H1    H     H_    0.814562 0.443142 0.329548 0.203268
H2    H     H_    0.185437 0.556872 0.670445 0.203271
H3    H     H_    0.837179 0.552095 0.765693 0.200518
H4    H     H_    0.162822 0.447884 0.234314 0.200518
C15   C     C_R   0.509094 0.061484 0.373252 0.269802
C16   C     C_R   0.490911 0.938517 0.626749 0.269803
C17   C     C_R   0.480387 0.935814 0.369273 0.089157
C18   C     C_R   0.519617 0.064187 0.630728 0.089160
C19   C     C_R   0.482127 0.872149 0.497404 -0.293826
C20   C     C_R   0.517875 0.127852 0.502596 -0.293824
C21   C     C_R   0.430297 0.426062 0.057654 0.297369
C22   C     C_R   0.569703 0.573937 0.942346 0.297368
C23   C     C_R   0.430800 0.426755 0.909972 -0.026299
C24   C     C_R   0.569200 0.573245 0.090028 -0.026301
H5    H     H_    0.375787 0.367852 0.841525 0.162960
H6    H     H_    0.624213 0.632147 0.158475 0.162959
N1    N     N_R   0.500030 0.500030 0.852080 -0.204756
N2    N     N_R   0.499970 0.499970 0.147920 -0.204755
I1    I     I_    0.937373 0.383484 0.120892 -0.252699
I2    I     I_    0.062631 0.616480 0.879119 -0.252719
N3    N     N_R   0.545718 0.117224 0.252599 0.167075
O9    O     O_R   0.637169 0.173142 0.266760 -0.325435
O10   O     O_R   0.490938 0.109757 0.128283 -0.273230
N4    N     N_R   0.454289 0.882776 0.747405 0.167075
O11   O     O_R   0.362835 0.826868 0.733249 -0.325434
O12   O     O_R   0.509072 0.890245 0.871719 -0.273230
I3    I     I_    0.413351 0.851402 0.170604 -0.068518
I4    I     I_    0.586654 0.148600 0.829395 -0.068519
I5    I     I_    0.316659 0.303933 0.124512 -0.209768
I6    I     I_    0.683345 0.696062 0.875488 -0.209772

loop_
_geom_bond_atom_site_label_1
_geom_bond_atom_site_label_2
_geom_bond_distance
_ccdc_geom_bond_type
C16   C18   1.399441 A    
O7    Cu2   1.966920 S    
C17   C19   1.413357 A    
C6    C11   1.398242 A    
C10   H3    1.077130 S    
C8    I2    2.130442 S    
O6    C4    1.294319 A    
C21   I5    2.115462 S    
C3    C6    1.463681 S    
C2    C19   1.474609 S    
Cu2   N2    2.021287 S    
C13   C14   1.419000 A    
C1    C20   1.474607 S    
C22   C24   1.413003 A    
C15   C17   1.399440 A    
Cu1   Cu2   2.689636 S    
O5    C3    1.294318 A    
C9    H4    1.077123 S    
O7    C3    1.302008 A    
C22   N1    1.383636 A    
O2    C2    1.297733 A    
O3    Cu2   1.974107 S    
O8    C4    1.302007 A    
C6    C9    1.398107 A    
O1    C1    1.297733 A    
N4    O12   1.298106 A    
N4    O11   1.301723 A    
C24   H6    1.081849 S    
C11   H2    1.080216 S    
C24   N2    1.356925 A    
C4    C5    1.463681 S    
C8    C10   1.392077 A    
C11   C13   1.393362 A    
C23   N1    1.356924 A    
C5    C10   1.398113 A    
O2    Cu2   1.968430 S    
C12   C14   1.393364 A    
C7    C14   1.410644 A    
O1    Cu1   1.968429 S    
C7    C9    1.392076 A    
C8    C13   1.410645 A    
O5    Cu1   1.948242 S    
C22   I6    2.115465 S    
C23   H5    1.081849 S    
O4    C2    1.305180 A    
N3    O10   1.298104 A    
C16   N4    1.439414 S    
C7    I1    2.130451 S    
C17   I3    2.153124 S    
C21   N2    1.383636 A    
Cu1   N1    2.021287 S    
C18   I4    2.153119 S    
O6    Cu2   1.948240 S    
C16   C19   1.411219 A    
C21   C23   1.413002 A    
N3    O9    1.301724 A    
C15   C20   1.411216 A    
C12   H1    1.080226 S    
C5    C12   1.398246 A    
O4    Cu1   1.974108 S    
C15   N3    1.439411 S    
O3    C1    1.305179 A    
O8    Cu1   1.966919 S    
C18   C20   1.413355 A    
