data_mof_unit_17086.cif
_audit_creation_date              2012-10-26T19:07:26-0400
_audit_creation_method            fapswitch 2.2
_symmetry_space_group_name_H-M    P1
_symmetry_Int_Tables_number       1
_space_group_crystal_system       triclinic
_cell_length_a                    15.081574
_cell_length_b                    13.699951
_cell_length_c                    10.644654
_cell_angle_alpha                 90.17285
_cell_angle_beta                  90.10149
_cell_angle_gamma                 89.944854
_cell_volume                      2199.35014449

loop_
_atom_site_label
_atom_site_type_symbol
_atom_type_description
_atom_site_fract_x
_atom_site_fract_y
_atom_site_fract_z
_atom_type_partial_charge
C1    C     C_R   0.328482 0.500037 0.500452 0.573211
C2    C     C_R   0.953588 0.677437 0.484257 -0.124692
C3    C     C_R   0.441871 0.793557 0.575183 0.033543
C4    C     C_R   0.557920 0.206424 0.424558 0.035948
C5    C     C_R   0.558324 0.793171 0.425331 0.040975
C6    C     C_R   0.442085 0.206932 0.575516 0.040614
C7    C     C_R   0.559589 0.896187 0.423328 -0.015897
C8    C     C_R   0.440619 0.103879 0.577228 -0.015410
C9    C     C_R   0.440521 0.896644 0.577095 -0.015663
C10   C     C_R   0.559405 0.103366 0.422958 -0.014458
C11   C     C_R   0.500009 0.948209 0.500137 0.055864
C12   C     C_R   0.671518 0.499968 0.499460 0.558283
C13   C     C_R   0.500000 0.051837 0.500096 0.056039
C14   C     C_R   0.618786 0.948190 0.346705 -0.137765
C15   C     C_R   0.381477 0.051836 0.653912 -0.138266
C16   C     C_R   0.381395 0.949184 0.653793 -0.141950
C17   C     C_R   0.618639 0.050824 0.346436 -0.142197
C18   C     C_R   0.499981 0.499781 0.259200 0.570653
C19   C     C_R   0.500530 0.500185 0.740717 0.581954
C20   C     C_3   0.431775 0.554042 0.041932 -0.139507
C21   C     C_3   0.569047 0.445568 0.957615 -0.155076
C22   C     C_3   0.508817 0.592719 0.959410 -0.129135
C23   C     C_R   0.953524 0.500001 0.499693 0.067083
C24   C     C_3   0.492125 0.406940 0.040329 -0.142441
C25   C     C_3   0.424791 0.462470 0.958074 0.062513
C26   C     C_3   0.576160 0.537178 0.041506 0.060298
C27   C     C_3   0.500697 0.500576 0.877198 -0.004006
C28   C     C_3   0.500211 0.499213 0.122577 -0.004553
C29   C     C_R   0.814621 0.588510 0.491060 -0.122011
C30   C     C_R   0.185375 0.411520 0.508750 -0.132752
C31   C     C_R   0.768358 0.499931 0.498841 0.001092
C32   C     C_R   0.231643 0.500094 0.501064 0.001514
C33   C     C_R   0.814813 0.411359 0.506412 -0.127006
C34   C     C_R   0.046481 0.500052 0.500502 0.064339
C35   C     C_R   0.185196 0.588683 0.493759 -0.125094
C36   C     C_R   0.907192 0.410782 0.507026 0.017380
C37   C     C_R   0.092816 0.589270 0.493206 0.015035
C38   C     C_2   0.339804 0.422071 0.906900 0.578975
C39   C     C_2   0.661153 0.579233 0.090382 0.581334
C40   C     C_R   0.906997 0.589166 0.491545 0.017816
C41   C     C_R   0.093004 0.410880 0.508517 0.012234
C42   C     C_R   0.953972 0.322562 0.515106 -0.124177
C43   C     C_R   0.046035 0.677492 0.485154 -0.124698
C44   C     C_R   0.046417 0.322613 0.515872 -0.123318
Cu1   Cu    Cu3+1 0.500000 0.597420 0.500000 0.970848
Cu2   Cu    Cu3+1 0.500000 0.402580 0.500000 0.959363
H1    H     H_    0.375356 0.597541 0.078894 0.135479
H2    H     H_    0.080938 0.746440 0.479465 0.112129
H3    H     H_    0.081469 0.253704 0.522105 0.114464
H4    H     H_    0.918535 0.746344 0.477952 0.110324
H5    H     H_    0.396582 0.752841 0.633861 0.129717
H6    H     H_    0.603043 0.247116 0.365598 0.124339
H7    H     H_    0.604030 0.752203 0.367506 0.163448
H8    H     H_    0.396975 0.248023 0.634490 0.141049
H9    H     H_    0.665145 0.909498 0.286907 0.120153
H10   H     H_    0.335256 0.090501 0.713944 0.126841
H11   H     H_    0.335105 0.910914 0.713725 0.113463
H12   H     H_    0.625246 0.401890 0.920316 0.147511
H13   H     H_    0.664898 0.089082 0.286443 0.110787
H14   H     H_    0.230954 0.445253 0.800888 0.338010
H15   H     H_    0.720631 0.685744 0.190525 0.325882
H16   H     H_    0.516343 0.668494 0.924307 0.143044
H17   H     H_    0.484773 0.331181 0.075567 0.153916
H18   H     H_    0.778880 0.657045 0.484658 0.124107
H19   H     H_    0.221111 0.342976 0.514986 0.130470
H20   H     H_    0.779219 0.342795 0.512358 0.125985
H21   H     H_    0.220794 0.657248 0.487919 0.127145
H22   H     H_    0.919070 0.253617 0.520830 0.111787
N1    N     N_R   0.500000 0.743810 0.500000 -0.246249
N2    N     N_R   0.500000 0.256190 0.500000 -0.244085
O1    O     O_R   0.370260 0.582280 0.500030 -0.510366
O2    O     O_R   0.286141 0.480565 0.830924 -0.704292
O3    O     O_2   0.731514 0.538686 0.067418 -0.519000
O4    O     O_R   0.659379 0.664821 0.161802 -0.714643
O5    O     O_R   0.629740 0.417720 0.499970 -0.515277
O6    O     O_R   0.629740 0.582280 0.499970 -0.507161
O7    O     O_R   0.370260 0.417720 0.500030 -0.506902
O8    O     O_R   0.499980 0.582260 0.316850 -0.477674
O9    O     O_R   0.500020 0.417740 0.683150 -0.499354
O10   O     O_R   0.500020 0.582260 0.683150 -0.502545
O11   O     O_R   0.499980 0.417740 0.316850 -0.510591
O12   O     O_2   0.318101 0.338314 0.931128 -0.528747

loop_
_geom_bond_atom_site_label_1
_geom_bond_atom_site_label_2
_ccdc_geom_bond_type
C44   H3    S    
C21   C26   S    
C8    C13   A    
Cu1   O1    S    
C34   C37   A    
C1    O7    A    
C36   C42   A    
C18   O11   A    
C4    N2    A    
Cu1   Cu2   S    
C7    C11   A    
C1    O1    A    
C4    H6    S    
Cu1   O6    S    
C5    H7    S    
C35   C37   A    
C9    C16   A    
Cu2   O9    S    
C26   C39   S    
C20   C25   S    
H14   O2    S    
C10   C17   A    
C23   C40   A    
C33   C36   A    
C39   O4    S    
C5    N1    A    
C2    H4    S    
C7    C14   A    
C31   C33   A    
C30   C41   A    
Cu1   O8    S    
C19   C27   S    
C43   H2    S    
C14   H9    S    
C21   C27   S    
C29   H18   S    
C38   O12   D    
C42   H22   S    
C14   C17   A    
C34   C41   A    
C42   C44   A    
C6    H8    S    
Cu2   O5    S    
C33   H20   S    
C38   O2    S    
Cu1   N1    S    
C30   H19   S    
C32   C35   A    
C18   C28   S    
C24   C25   S    
C5    C7    A    
C3    H5    S    
C6    C8    A    
C20   C28   S    
C1    C32   S    
C37   C43   A    
C3    C9    A    
C25   C38   S    
C22   H16   S    
Cu2   O11   S    
C35   H21   S    
C2    C43   A    
C18   O8    A    
C23   C34   A    
C19   O9    A    
C9    C11   A    
C17   H13   S    
C20   C22   S    
C8    C15   A    
C22   C27   S    
C12   O6    A    
C12   C31   S    
C41   C44   A    
C21   C24   S    
C25   C27   S    
C4    C10   A    
C6    N2    A    
C3    N1    A    
C24   C28   S    
C10   C13   A    
Cu2   O7    S    
H15   O4    S    
C24   H17   S    
C26   C28   S    
C15   H10   S    
C21   H12   S    
C29   C31   A    
C30   C32   A    
C11   C13   A    
C29   C40   A    
Cu1   O10   S    
C16   H11   S    
C39   O3    D    
C19   O10   A    
Cu2   N2    S    
C20   H1    S    
C2    C40   A    
C23   C36   A    
C22   C26   S    
C12   O5    A    
C15   C16   A    
