data_mof_unit_39897.cif
_audit_creation_date              2012-12-10T20:58:03-0500
_audit_creation_method            fapswitch 2.2
_symmetry_space_group_name_H-M    P1
_symmetry_Int_Tables_number       1
_space_group_crystal_system       triclinic
_cell_length_a                    18.183762
_cell_length_b                    18.256374
_cell_length_c                    18.332673
_cell_angle_alpha                 120.050831
_cell_angle_beta                  89.922228
_cell_angle_gamma                 119.915745
_cell_volume                      4308.4481442

loop_
_atom_site_label
_atom_site_type_symbol
_atom_type_description
_atom_site_fract_x
_atom_site_fract_y
_atom_site_fract_z
_atom_type_partial_charge
C1    C     C_R   0.357864 0.220314 0.361297 0.503147
C2    C     C_3   0.800145 0.941435 0.718770 -0.224092
C3    C     C_R   0.848260 0.780143 0.836032 0.025913
C4    C     C_R   0.776692 0.790282 0.836494 -0.102228
C5    C     C_R   0.754937 0.826834 0.914541 -0.127348
C6    C     C_R   0.804614 0.853534 0.992332 -0.106938
C7    C     C_R   0.876115 0.843691 0.992175 -0.118430
C8    C     C_R   0.898010 0.807142 0.914248 -0.102072
C9    C     C_3   0.525782 0.136039 0.634655 0.000846
C10   C     C_3   0.523593 0.039493 0.602539 -0.256922
C11   C     C_3   0.432577 0.940825 0.533838 -0.495914
C12   C     C_R   0.175761 0.186030 0.906963 0.029308
C13   C     C_3   0.698746 0.897520 0.698830 0.065378
C14   C     C_R   0.241534 0.170897 0.921183 -0.110290
C15   C     C_R   0.226206 0.108010 0.949854 -0.117716
C16   C     C_R   0.145648 0.060606 0.965227 -0.105586
C17   C     C_R   0.080262 0.075841 0.951968 -0.129955
C18   C     C_R   0.095161 0.138212 0.922946 -0.102962
C19   C     C_R   0.641011 0.781062 0.639947 0.485010
C20   C     C_3   0.799187 0.102263 0.802768 0.065051
C21   C     C_3   0.739176 0.057976 0.849860 -0.234342
C22   C     C_3   0.858515 0.060556 0.779647 -0.226118
C23   C     C_3   0.646586 0.391710 0.208902 -0.232282
C24   C     C_3   0.706443 0.391208 0.149580 -0.233880
C25   C     C_3   0.726158 0.584161 0.288456 -0.237189
C26   C     C_3   0.784306 0.516085 0.345296 -0.234838
C27   C     C_3   0.277931 0.579510 0.360524 -0.230210
C28   C     C_3   0.698131 0.497617 0.301792 0.072025
C29   C     C_3   0.799501 0.497335 0.200190 0.074112
C30   C     C_3   0.785069 0.583208 0.227728 -0.234706
C31   C     C_R   0.359836 0.501190 0.641243 0.501041
C32   C     C_3   0.844121 0.516346 0.285694 -0.235137
C33   C     C_R   0.336973 0.178287 0.594799 -0.104136
C34   C     C_R   0.332282 0.131924 0.505287 -0.050405
C35   C     C_R   0.264980 0.107701 0.442439 0.076549
C36   C     C_R   0.202313 0.129796 0.470110 -0.078951
C37   C     C_R   0.206513 0.174796 0.559519 -0.106490
C38   C     C_3   0.299992 0.500537 0.302237 0.068253
C39   C     C_R   0.273579 0.198627 0.621718 -0.107520
C40   C     C_R   0.206288 0.946466 0.292452 -0.053652
C41   C     C_R   0.193691 0.893080 0.199204 0.006473
C42   C     C_R   0.234029 0.949325 0.161843 -0.049365
C43   C     C_R   0.640649 0.498754 0.359354 0.496389
C44   C     C_R   0.286102 0.055821 0.216642 -0.166019
C45   C     C_R   0.298895 0.108559 0.307721 0.003538
C46   C     C_R   0.257439 0.054323 0.346315 -0.044004
C47   C     C_R   0.287617 0.878687 0.034992 -0.079395
C48   C     C_R   0.279618 0.832844 0.944601 -0.108163
C49   C     C_3   0.197799 0.500307 0.200732 0.069735
C50   C     C_R   0.210368 0.809422 0.885167 -0.103228
C51   C     C_R   0.148867 0.831624 0.915977 -0.111779
C52   C     C_R   0.156678 0.877514 0.006330 -0.068398
C53   C     C_R   0.226028 0.901088 0.066256 0.067445
C54   C     C_R   0.923946 0.676650 0.602260 -0.111674
C55   C     C_R   0.641905 0.500713 0.640628 0.504748
C56   C     C_R   0.871115 0.606637 0.622838 -0.141280
C57   C     C_R   0.844978 0.638647 0.698888 0.047155
C58   C     C_R   0.871686 0.742097 0.754047 -0.014702
C59   C     C_R   0.923641 0.811296 0.732175 -0.091204
C60   C     C_3   0.149999 0.391587 0.181802 -0.234397
C61   C     C_R   0.951821 0.779804 0.657879 0.276773
C62   C     C_R   0.842342 0.560682 0.775543 -0.156062
C63   C     C_R   0.799736 0.501360 0.808449 0.025875
C64   C     C_R   0.705413 0.444269 0.788026 0.007008
C65   C     C_R   0.655772 0.443937 0.731051 -0.136845
C66   C     C_R   0.698418 0.503302 0.698061 0.024906
C67   C     C_R   0.358002 0.500207 0.359413 0.496330
C68   C     C_R   0.793223 0.564788 0.722454 -0.016164
C69   C     C_R   0.607557 0.282015 0.781733 0.312832
C70   C     C_R   0.563917 0.235034 0.825072 -0.099676
C71   C     C_3   0.218542 0.579732 0.301251 -0.231251
C72   C     C_R   0.564965 0.294306 0.911655 -0.153594
C73   C     C_R   0.611235 0.401181 0.957176 -0.129608
C74   C     C_R   0.657193 0.449294 0.916515 -0.125211
C75   C     C_R   0.656465 0.390586 0.829374 0.076927
C76   C     C_R   0.385912 0.796916 0.712567 -0.101967
C77   C     C_R   0.368781 0.731631 0.738923 -0.064803
C78   C     C_R   0.287922 0.632280 0.692680 0.062073
C79   C     C_3   0.348494 0.530575 0.242230 -0.235604
C80   C     C_R   0.223862 0.599834 0.621017 -0.089380
C81   C     C_R   0.241124 0.665535 0.595114 -0.121744
C82   C     C_3   0.678093 0.940576 0.653186 -0.236304
C83   C     C_R   0.322177 0.763846 0.640657 -0.105486
C84   C     C_R   0.214150 0.558603 0.773091 -0.163707
C85   C     C_R   0.195199 0.498311 0.805411 0.017060
C86   C     C_R   0.232336 0.440780 0.784810 -0.033857
C87   C     C_R   0.287090 0.445382 0.732460 -0.162777
C88   C     C_R   0.304938 0.504364 0.699078 0.016005
C89   C     C_R   0.269259 0.563487 0.721050 -0.037621
C90   C     C_R   0.285050 0.411075 0.886644 -0.112331
C91   C     C_3   0.288217 0.530072 0.182270 -0.233835
C92   C     C_R   0.271928 0.349069 0.915655 -0.123034
C93   C     C_3   0.737309 0.060581 0.713929 -0.232481
C94   C     C_R   0.190669 0.250974 0.875135 0.018348
C95   C     C_R   0.123422 0.215219 0.804054 -0.111233
C96   C     C_R   0.137010 0.276706 0.774335 -0.076772
C97   C     C_R   0.217329 0.375702 0.816500 0.055274
C98   C     C_R   0.857084 0.498560 0.142796 0.493785
C99   C     C_R   0.138554 0.499500 0.861579 0.502837
C100  C     C_R   0.856784 0.218880 0.862006 0.492501
C101  C     C_R   0.138436 0.780214 0.141899 0.497884
C102  C     C_R   0.855947 0.500840 0.863078 0.509021
C103  C     C_3   0.210200 0.391653 0.241385 -0.232194
C104  C     C_3   0.680745 0.938008 0.789189 -0.233094
C105  C     C_R   0.139773 0.500010 0.142972 0.494668
C106  C     C_R   0.168252 0.892493 0.336662 0.077725
C107  C     C_R   0.217943 0.870400 0.370366 -0.058997
C108  C     C_R   0.182719 0.820184 0.412178 -0.106203
C109  C     C_R   0.098340 0.792838 0.421455 -0.099281
C110  C     C_R   0.049197 0.816049 0.389315 -0.102040
C111  C     C_R   0.083716 0.865317 0.346606 -0.071947
C112  C     C_3   0.095092 0.884344 0.668182 -0.000319
C113  C     C_3   0.157643 0.978237 0.666625 -0.243160
C114  C     C_3   0.255165 0.014087 0.692328 -0.486968
H1    H     H_    0.365057 0.475158 0.199344 0.129780
H2    H     H_    0.694669 0.085039 0.866174 0.123040
H3    H     H_    0.817498 0.912569 0.752043 0.124168
H4    H     H_    0.412950 0.608823 0.284529 0.102097
H5    H     H_    0.815689 0.914746 0.655316 0.138067
H6    H     H_    0.902627 0.090828 0.745653 0.122709
H7    H     H_    0.902447 0.087763 0.842107 0.119221
H8    H     H_    0.696050 0.909257 0.823862 0.099263
H9    H     H_    0.781996 0.086719 0.913920 0.103494
H10   H     H_    0.584772 0.376298 0.175018 0.133185
H11   H     H_    0.625255 0.328178 0.216918 0.113627
H12   H     H_    0.154851 0.560505 0.316825 0.122948
H13   H     H_    0.715145 0.328282 0.129661 0.109739
H14   H     H_    0.672154 0.374207 0.087503 0.141391
H15   H     H_    0.665341 0.572833 0.257774 0.106939
H16   H     H_    0.323765 0.607936 0.195343 0.103564
H17   H     H_    0.751975 0.569891 0.167188 0.108549
H18   H     H_    0.823326 0.591695 0.411986 0.147496
H19   H     H_    0.765851 0.454678 0.355494 0.106748
H20   H     H_    0.855096 0.455332 0.267192 0.104470
H21   H     H_    0.910996 0.592089 0.324358 0.138318
H22   H     H_    0.764290 0.660976 0.354185 0.120311
H23   H     H_    0.174064 0.368473 0.283033 0.103852
H24   H     H_    0.850905 0.660014 0.263502 0.112762
H25   H     H_    0.276641 0.233160 0.690847 0.110529
H26   H     H_    0.389491 0.198130 0.643309 0.083576
H27   H     H_    0.380842 0.114927 0.484791 0.083421
H28   H     H_    0.275691 0.474040 0.110881 0.135832
H29   H     H_    0.149714 0.110836 0.422234 0.085516
H30   H     H_    0.157733 0.191073 0.580590 0.100519
H31   H     H_    0.318034 0.097842 0.187456 0.143312
H32   H     H_    0.341373 0.896393 0.080497 0.090598
H33   H     H_    0.327017 0.815341 0.920584 0.098983
H34   H     H_    0.084942 0.368700 0.194914 0.100922
H35   H     H_    0.204317 0.773932 0.815252 0.107973
H36   H     H_    0.095185 0.813276 0.869862 0.091362
H37   H     H_    0.108442 0.893845 0.029615 0.085507
H38   H     H_    0.223655 0.333196 0.198198 0.140499
H39   H     H_    0.944162 0.651191 0.543736 0.094426
H40   H     H_    0.851237 0.527662 0.580016 0.106286
H41   H     H_    0.944560 0.890743 0.774318 0.118388
H42   H     H_    0.914937 0.606435 0.792625 0.138212
H43   H     H_    0.583282 0.399300 0.714967 0.137702
H44   H     H_    0.529365 0.152730 0.792278 0.092747
H45   H     H_    0.605914 0.911448 0.638774 0.127373
H46   H     H_    0.530379 0.257341 0.943790 0.099455
H47   H     H_    0.612026 0.446895 0.024332 0.101050
H48   H     H_    0.134649 0.332941 0.110312 0.138186
H49   H     H_    0.693583 0.532489 0.952905 0.100204
H50   H     H_    0.335446 0.814486 0.620419 0.094844
H51   H     H_    0.448485 0.873198 0.747960 0.087055
H52   H     H_    0.418459 0.758043 0.794867 0.086330
H53   H     H_    0.160877 0.523818 0.585303 0.094569
H54   H     H_    0.191663 0.640278 0.539754 0.086584
H55   H     H_    0.186338 0.603145 0.788736 0.144100
H56   H     H_    0.690679 0.912942 0.588213 0.104168
H57   H     H_    0.316005 0.402141 0.717801 0.145363
H58   H     H_    0.347852 0.486806 0.918986 0.099582
H59   H     H_    0.324633 0.378305 0.970642 0.094755
H60   H     H_    0.242265 0.559271 0.403771 0.130079
H61   H     H_    0.060948 0.139084 0.770790 0.100470
H62   H     H_    0.084795 0.247684 0.719024 0.095466
H63   H     H_    0.341074 0.658703 0.405127 0.125249
H64   H     H_    0.253642 0.658913 0.317138 0.125343
H65   H     H_    0.283471 0.891533 0.363633 0.082346
H66   H     H_    0.220790 0.802505 0.437432 0.086209
H67   H     H_    0.778817 0.090585 0.678378 0.110504
H68   H     H_    0.071252 0.754250 0.454069 0.100170
H69   H     H_    0.984433 0.795986 0.397713 0.102150
H70   H     H_    0.045062 0.882715 0.321680 0.082110
H71   H     H_    0.103101 0.821493 0.622756 0.120497
H72   H     H_    0.115533 0.908009 0.737958 0.137945
H73   H     H_    0.137037 0.958529 0.598827 0.184878
H74   H     H_    0.152417 0.042509 0.714291 0.175095
H75   H     H_    0.276911 0.032735 0.759445 0.144062
H76   H     H_    0.299420 0.084648 0.694222 0.143408
H77   H     H_    0.262693 0.952771 0.642556 0.137728
H78   H     H_    0.693329 0.088426 0.727910 0.138632
H79   H     H_    0.737591 0.769340 0.776509 0.127397
H80   H     H_    0.699525 0.834340 0.914713 0.093860
H81   H     H_    0.787696 0.881816 0.052700 0.099401
H82   H     H_    0.914596 0.864438 0.052414 0.099114
H83   H     H_    0.953600 0.799983 0.914781 0.095246
H84   H     H_    0.515301 0.138506 0.576444 0.146099
H85   H     H_    0.468293 0.130165 0.659335 0.101610
H86   H     H_    0.577059 0.042700 0.572044 0.169181
H87   H     H_    0.536973 0.036967 0.660025 0.148425
H88   H     H_    0.378322 0.935360 0.563481 0.136432
H89   H     H_    0.608471 0.908010 0.777385 0.122155
H90   H     H_    0.432997 0.872320 0.512092 0.138037
H91   H     H_    0.418526 0.940129 0.474474 0.139534
H92   H     H_    0.303954 0.206351 0.908767 0.097639
H93   H     H_    0.276720 0.095906 0.960041 0.105889
H94   H     H_    0.133937 0.012463 0.987787 0.105269
H95   H     H_    0.018040 0.039399 0.964254 0.113342
H96   H     H_    0.044604 0.150689 0.914390 0.101908
O1    O     O_3   0.500000 0.500000 0.500000 -0.433493
O2    O     O_R   0.113800 0.731630 0.056520 -0.533427
O3    O     O_R   0.819390 0.439310 0.886160 -0.525404
O4    O     O_R   0.383400 0.268380 0.323710 -0.554304
O5    O     O_R   0.115110 0.560720 0.179280 -0.551283
O6    O     O_R   0.941380 0.560750 0.885620 -0.557865
O7    O     O_R   0.115110 0.439270 0.057830 -0.546885
O8    O     O_R   0.942690 0.268390 0.886930 -0.554569
O9    O     O_R   0.114340 0.731630 0.178520 -0.537870
O10   O     O_R   0.820160 0.439310 0.057830 -0.549306
O11   O     O_R   0.113800 0.560730 0.885620 -0.546071
O12   O     O_R   0.383400 0.560740 0.616060 -0.533765
O13   O     O_R   0.555060 0.731630 0.615290 -0.547907
O14   O     O_R   0.383950 0.439280 0.616600 -0.546359
O15   O     O_R   0.677590 0.560710 0.444390 -0.544471
O16   O     O_R   0.556370 0.439260 0.616600 -0.555503
O17   O     O_R   0.382640 0.439290 0.322940 -0.550405
O18   O     O_R   0.678360 0.560700 0.616060 -0.539245
O19   O     O_R   0.382640 0.560750 0.444390 -0.546220
O20   O     O_3   0.005233 0.850359 0.639320 -0.580912
O21   O     O_3   0.611561 0.226169 0.697297 -0.572680
O22   O     O_R   0.555060 0.439270 0.322940 -0.554349
O23   O     O_R   0.383950 0.268380 0.445700 -0.534219
O24   O     O_R   0.677590 0.731610 0.615290 -0.554488
O25   O     O_3   0.997750 0.500010 0.002220 -0.436696
O26   O     O_R   0.942690 0.560750 0.179280 -0.547012
O27   O     O_R   0.114340 0.439270 0.886160 -0.534065
O28   O     O_R   0.820160 0.268410 0.886930 -0.541201
Zn1   Zn    Zn3+2 0.456040 0.586770 0.543190 0.923545
Zn2   Zn    Zn3+2 0.456820 0.413240 0.543960 0.928540
Zn3   Zn    Zn3+2 0.631110 0.586750 0.543190 0.921719
Zn4   Zn    Zn3+2 0.456040 0.413240 0.369660 0.911135
Zn5   Zn    Zn3+2 0.041710 0.413240 0.959030 0.921805
Zn6   Zn    Zn3+2 0.866640 0.413270 0.959030 0.934924
Zn7   Zn    Zn3+2 0.040930 0.586780 0.958260 0.930150
Zn8   Zn    Zn3+2 0.041710 0.586770 0.132560 0.919124

loop_
_geom_bond_atom_site_label_1
_geom_bond_atom_site_label_2
_ccdc_geom_bond_type
C109  H68   S    
C66   C68   A    
C87   C88   A    
C82   H56   S    
C34   H27   S    
C26   C32   S    
C105  O5    A    
C37   H30   S    
C79   H1    S    
C41   C42   A    
O1    Zn3   S    
C35   C36   A    
C83   H50   S    
C9    O21   S    
C25   H15   S    
C77   H52   S    
C54   H39   S    
C99   O11   A    
C57   C58   A    
C27   C71   S    
C7    C8    A    
C91   H16   S    
C77   C78   A    
C108  C109  A    
C25   C28   S    
C40   C46   A    
O10   Zn6   S    
C29   C30   S    
C49   C60   S    
C43   O15   A    
C29   C98   S    
C114  H76   S    
C55   O16   A    
C36   C37   A    
C18   H96   S    
O23   Zn2   S    
C29   C32   S    
C17   H95   S    
C103  H23   S    
C42   C53   S    
C112  H72   S    
C74   H49   S    
C78   C80   A    
C104  H8    S    
C38   C79   S    
C27   C38   S    
O15   Zn3   S    
C30   H17   S    
C113  H73   S    
C48   H33   S    
O28   Zn6   S    
O12   Zn1   S    
C112  O20   S    
C56   C57   A    
C108  H66   S    
C17   C18   A    
C34   C35   A    
C73   C74   A    
C25   H22   S    
C2    C13   S    
C95   H61   S    
C110  C111  A    
C6    H81   S    
C73   H47   S    
C24   C29   S    
C21   C104  S    
C93   H67   S    
C64   C75   S    
O18   Zn3   S    
C95   C96   A    
C51   H36   S    
C1    O23   A    
C16   C17   A    
C2    C22   S    
C24   H13   S    
C60   H48   S    
C23   C24   S    
C71   H12   S    
C100  O28   A    
C114  H77   S    
C11   H91   S    
O19   Zn1   S    
C60   C103  S    
C96   H62   S    
C9    C10   S    
O25   Zn8   S    
C79   C91   S    
C30   H24   S    
C47   C53   A    
C91   H28   S    
C48   C50   A    
C47   H32   S    
C100  O8    A    
C78   C89   S    
C114  H75   S    
C80   H53   S    
O1    Zn4   S    
C12   C94   S    
C8    H83   S    
C94   C95   A    
C42   C44   A    
C49   C91   S    
C63   C102  S    
C27   H60   S    
C112  C113  S    
C81   C83   A    
C2    H3    S    
C33   C34   A    
C54   C56   A    
C106  C111  A    
C101  O2    A    
C4    H79   S    
C39   H25   S    
C59   C61   A    
O16   Zn2   S    
C74   C75   A    
O27   Zn5   S    
C51   C52   A    
C62   H42   S    
C104  H89   S    
O26   Zn8   S    
C19   O13   A    
C84   C85   A    
C56   H40   S    
C3    C8    A    
C112  H71   S    
C59   H41   S    
C43   O22   A    
C72   C73   A    
C13   C19   S    
C49   C105  S    
C79   H4    S    
C20   C93   S    
C50   C51   A    
O6    Zn7   S    
C23   C28   S    
C113  H74   S    
C13   C82   S    
C63   C64   A    
C70   H44   S    
C11   H88   S    
C55   O18   A    
C21   H9    S    
C22   H6    S    
O7    Zn5   S    
C38   C103  S    
C85   C99   S    
C31   O12   A    
C101  O9    A    
C102  O3    A    
C90   C92   A    
C47   C48   A    
C20   C100  S    
C67   O17   A    
C107  C108  A    
C87   H57   S    
C96   C97   A    
C20   C21   S    
C62   C63   A    
C92   C94   A    
C61   O20   S    
O9    Zn8   S    
C76   H51   S    
C33   C39   A    
O8    Zn5   S    
C76   C77   A    
C13   C104  S    
O14   Zn2   S    
O25   Zn5   S    
C85   C86   A    
C6    C7    A    
C103  H38   S    
C102  O6    A    
C40   C41   A    
C12   C14   A    
C110  H69   S    
C84   H55   S    
C105  O7    A    
C14   H92   S    
C49   C71   S    
C9    H84   S    
O22   Zn4   S    
C86   C97   S    
C84   C89   A    
C57   C68   S    
C90   H58   S    
C3    C4    A    
C38   C67   S    
C19   O24   A    
C76   C83   A    
O17   Zn4   S    
C55   C66   S    
C26   H18   S    
C52   C53   A    
C71   H64   S    
C22   H7    S    
C40   C106  S    
C113  C114  S    
C98   O10   A    
C93   H78   S    
C25   C30   S    
C31   C88   S    
C90   C97   A    
C107  H65   S    
C86   C87   A    
C36   H29   S    
O3    Zn6   S    
C44   C45   A    
C27   H63   S    
C20   C22   S    
C80   C81   A    
C16   H94   S    
C10   H86   S    
C32   H21   S    
C2    H5    S    
C23   H10   S    
C54   C61   A    
C62   C68   A    
C92   H59   S    
C65   H43   S    
C60   H34   S    
C28   C43   S    
C26   C28   S    
C72   H46   S    
C23   H11   S    
O4    Zn4   S    
C64   C65   A    
C69   O21   S    
C58   C59   A    
C37   C39   A    
C26   H19   S    
O13   Zn1   S    
C109  C110  A    
C32   H20   S    
C82   H45   S    
C50   H35   S    
C1    C45   S    
C44   H31   S    
C5    C6    A    
C21   H2    S    
O11   Zn7   S    
C52   H37   S    
O2    Zn7   S    
C111  H70   S    
C81   H54   S    
C41   C101  S    
C69   C75   A    
O1    Zn1   S    
C11   H90   S    
C69   C70   A    
C10   H87   S    
O25   Zn6   S    
C10   C11   S    
O24   Zn3   S    
C9    H85   S    
C31   O14   A    
C99   O27   A    
C3    C58   S    
C45   C46   A    
C4    C5    A    
C98   O26   A    
C88   C89   A    
C67   O19   A    
O5    Zn8   S    
C82   C93   S    
C65   C66   A    
C106  C107  A    
C12   C18   A    
C1    O4    A    
C24   H14   S    
O1    Zn2   S    
C14   C15   A    
C70   C72   A    
C33   H26   S    
C7    H82   S    
C35   C46   S    
O25   Zn7   S    
C15   H93   S    
C15   C16   A    
C5    H80   S    
