data_mof_unit_22181.cif
_audit_creation_date              2012-12-10T18:53:47-0500
_audit_creation_method            fapswitch 2.2
_symmetry_space_group_name_H-M    P1
_symmetry_Int_Tables_number       1
_space_group_crystal_system       triclinic
_cell_length_a                    10.720438
_cell_length_b                    9.781356
_cell_length_c                    19.149919
_cell_angle_alpha                 91.329511
_cell_angle_beta                  90.003404
_cell_angle_gamma                 89.999182
_cell_volume                      2007.52796664

loop_
_atom_site_label
_atom_site_type_symbol
_atom_type_description
_atom_site_fract_x
_atom_site_fract_y
_atom_site_fract_z
_atom_type_partial_charge
Br1   Br    Br    0.503808 0.796008 0.129668 -0.426047
Br2   Br    Br    0.503380 0.204479 0.870591 -0.425723
Br3   Br    Br    0.627467 0.773872 0.875318 -0.406813
Br4   Br    Br    0.626146 0.226051 0.124485 -0.406297
C1    C     C_R   0.259688 0.500001 0.500008 0.850585
C2    C     C_R   0.063884 0.623045 0.491056 -0.197425
C3    C     C_R   0.872682 0.500003 0.500023 -0.010705
C4    C     C_R   0.127373 0.500004 0.500027 -0.006742
C5    C     C_R   0.609696 0.072021 0.499901 -0.087425
C6    C     C_R   0.390372 0.928034 0.500488 -0.103863
C7    C     C_R   0.390369 0.071991 0.500014 -0.103618
C8    C     C_R   0.609693 0.927954 0.499607 -0.087450
C9    C     C_R   0.472195 0.618213 0.250225 0.022143
C10   C     C_R   0.472391 0.381927 0.749826 0.021997
C11   C     C_R   0.533661 0.625985 0.751243 -0.005725
C12   C     C_R   0.740325 0.500000 0.500006 0.877519
C13   C     C_R   0.533094 0.374061 0.248690 -0.005808
C14   C     C_R   0.510805 0.626230 0.180198 0.211393
C15   C     C_R   0.510940 0.374008 0.819874 0.211395
C16   C     C_R   0.568810 0.615382 0.821564 0.214693
C17   C     C_R   0.568132 0.384690 0.178351 0.214795
C18   C     C_R   0.557676 0.509973 0.145308 -0.106123
C19   C     C_R   0.558046 0.490233 0.854686 -0.105947
C20   C     C_R   0.497083 0.495300 0.286985 -0.189411
C21   C     C_R   0.497371 0.504759 0.713013 -0.189320
C22   C     C_3   0.394283 0.735305 0.282275 -0.358832
C23   C     C_R   0.562503 0.490914 0.930048 0.423472
C24   C     C_3   0.263818 0.686458 0.303994 -0.319400
C25   C     C_3   0.183787 0.805359 0.331096 -0.873230
C26   C     C_3   0.394385 0.264869 0.717815 -0.358694
C27   C     C_3   0.263925 0.313818 0.696133 -0.319662
C28   C     C_3   0.183621 0.194917 0.669298 -0.873104
C29   C     C_3   0.521802 0.769526 0.722336 -0.323935
C30   C     C_3   0.646047 0.822548 0.693407 -0.296919
C31   C     C_3   0.637986 0.975002 0.678745 -0.854794
C32   C     C_3   0.521116 0.230522 0.277577 -0.323973
C33   C     C_3   0.645409 0.177243 0.306328 -0.296818
C34   C     C_R   0.562384 0.509584 0.069943 0.423415
C35   C     C_3   0.637231 0.024764 0.320896 -0.854959
C36   C     C_R   0.496065 0.498213 0.364551 0.892805
C37   C     C_R   0.496157 0.501795 0.635450 0.892745
C38   C     C_R   0.063888 0.376966 0.509016 -0.197400
C39   C     C_R   0.936190 0.623023 0.490913 -0.197548
C40   C     C_R   0.936192 0.376988 0.509151 -0.197554
H1    H     H_    0.112391 0.281211 0.516251 0.149721
H2    H     H_    0.170524 0.881696 0.289695 0.274417
H3    H     H_    0.090824 0.766687 0.346878 0.253043
H4    H     H_    0.216481 0.637716 0.258143 0.238586
H5    H     H_    0.270149 0.609631 0.345533 0.217637
H6    H     H_    0.443372 0.787252 0.326209 0.224140
H7    H     H_    0.378895 0.818260 0.245114 0.239061
H8    H     H_    0.228422 0.144015 0.623389 0.249935
H9    H     H_    0.170212 0.118983 0.710877 0.274598
H10   H     H_    0.090737 0.233703 0.653438 0.253106
H11   H     H_    0.216794 0.362940 0.741945 0.238669
H12   H     H_    0.887720 0.718737 0.483427 0.143912
H13   H     H_    0.270259 0.390361 0.654458 0.217642
H14   H     H_    0.443394 0.212860 0.673871 0.223989
H15   H     H_    0.379017 0.181928 0.754983 0.239166
H16   H     H_    0.557995 0.995582 0.643744 0.258001
H17   H     H_    0.625538 0.034694 0.728315 0.294410
H18   H     H_    0.725243 0.009099 0.653215 0.243253
H19   H     H_    0.722447 0.806367 0.731512 0.251284
H20   H     H_    0.671076 0.766225 0.644438 0.234785
H21   H     H_    0.445721 0.776936 0.683483 0.204110
H22   H     H_    0.487946 0.840877 0.764114 0.238660
H23   H     H_    0.887720 0.281277 0.516639 0.143967
H24   H     H_    0.557339 0.004225 0.355965 0.257880
H25   H     H_    0.624542 0.965216 0.271302 0.294759
H26   H     H_    0.724539 0.990474 0.346310 0.243276
H27   H     H_    0.721690 0.193407 0.268152 0.251366
H28   H     H_    0.670678 0.233411 0.355305 0.234588
H29   H     H_    0.445204 0.223228 0.316533 0.204100
H30   H     H_    0.486954 0.159283 0.235828 0.238686
H31   H     H_    0.112384 0.718802 0.483830 0.149745
H32   H     H_    0.697448 0.126161 0.499716 0.130994
H33   H     H_    0.302648 0.873908 0.501218 0.130154
H34   H     H_    0.302640 0.126136 0.499682 0.130132
H35   H     H_    0.697445 0.873795 0.499373 0.130999
H36   H     H_    0.228723 0.855745 0.377113 0.250166
N1    N     N_R   0.500000 0.857200 0.500000 -0.073195
N2    N     N_R   0.500000 0.142800 0.500000 -0.073206
N3    N     N_R   0.672101 0.503463 0.034767 -0.096071
N4    N     N_R   0.453498 0.496932 0.965425 -0.113949
N5    N     N_R   0.672169 0.495185 0.965324 -0.095946
N6    N     N_R   0.453433 0.505471 0.034456 -0.113693
O1    O     O_R   0.316770 0.614620 0.500000 -0.633453
O2    O     O_R   0.683230 0.385380 0.500000 -0.635934
O3    O     O_R   0.683230 0.614620 0.500000 -0.636004
O4    O     O_R   0.316770 0.385380 0.500000 -0.633471
O5    O     O_R   0.499990 0.614700 0.398140 -0.607016
O6    O     O_R   0.500010 0.385300 0.601860 -0.607065
O7    O     O_R   0.500010 0.614700 0.601860 -0.620564
O8    O     O_R   0.499990 0.385300 0.398140 -0.620549
Zn1   Zn    Zn3+2 0.500000 0.653120 0.500000 0.930718
Zn2   Zn    Zn3+2 0.500000 0.346880 0.500000 0.930767

loop_
_geom_bond_atom_site_label_1
_geom_bond_atom_site_label_2
_ccdc_geom_bond_type
O2    Zn2   S    
C34   N3    A    
C35   H24   S    
C4    C38   A    
C29   H21   S    
C2    H31   S    
Br1   C14   S    
C9    C14   A    
C34   N6    A    
C24   C25   S    
N4    N6    A    
C22   H6    S    
C26   C27   S    
N1    Zn1   S    
C11   C21   A    
C18   C34   S    
C8    H35   S    
C36   O5    A    
O6    Zn2   S    
C23   N4    A    
C30   C31   S    
C23   N5    A    
C28   H8    S    
C37   O7    A    
O1    Zn1   S    
C5    H32   S    
C19   C23   S    
C1    O4    A    
C5    N2    A    
C12   O3    A    
O7    Zn1   S    
C17   C18   A    
C38   C40   A    
C10   C26   S    
C28   H10   S    
C6    H33   S    
C29   H22   S    
C13   C32   S    
C11   C16   A    
C13   C20   A    
N2    Zn2   S    
C32   H29   S    
C21   C37   S    
C2    C4    A    
C13   C17   A    
C9    C20   A    
C31   H16   S    
C38   H1    S    
O3    Zn1   S    
C15   C19   A    
C7    H34   S    
C24   H5    S    
C27   C28   S    
C16   C19   A    
C26   H15   S    
C30   H20   S    
C29   C30   S    
C35   H25   S    
Br3   C16   S    
C31   H17   S    
C3    C40   A    
O8    Zn2   S    
C32   H30   S    
C3    C12   S    
N3    N5    A    
C25   H3    S    
C3    C39   A    
C2    C39   A    
C33   H27   S    
C9    C22   S    
C7    N2    A    
C28   H9    S    
C24   H4    S    
Br2   C15   S    
C14   C18   A    
C10   C15   A    
C36   O8    A    
C1    C4    S    
O4    Zn2   S    
C6    N1    A    
C22   C24   S    
C25   H2    S    
C27   H13   S    
C33   C35   S    
C22   H7    S    
Br4   C17   S    
C25   H36   S    
C26   H14   S    
C30   H19   S    
C20   C36   S    
C35   H26   S    
C8    N1    A    
C31   H18   S    
C10   C21   A    
C5    C8    A    
C6    C7    A    
O5    Zn1   S    
C1    O1    A    
C39   H12   S    
C37   O6    A    
C32   C33   S    
C33   H28   S    
C12   O2    A    
C40   H23   S    
C27   H11   S    
C11   C29   S    
