data_mof_unit_21187.cif
_audit_creation_date              2012-12-10T17:28:31-0500
_audit_creation_method            fapswitch 2.2
_symmetry_space_group_name_H-M    P1
_symmetry_Int_Tables_number       1
_space_group_crystal_system       triclinic
_cell_length_a                    10.457949
_cell_length_b                    11.940966
_cell_length_c                    13.013486
_cell_angle_alpha                 90.891905
_cell_angle_beta                  88.640363
_cell_angle_gamma                 86.288342
_cell_volume                      1620.99476187

loop_
_atom_site_label
_atom_site_type_symbol
_atom_type_description
_atom_site_fract_x
_atom_site_fract_y
_atom_site_fract_z
_atom_type_partial_charge
C1    C     C_R   0.501754 0.519359 0.700520 0.915489
C2    C     C_R   0.547059 0.565797 0.126353 -0.087643
C3    C     C_R   0.554665 0.440641 0.976746 0.058154
C4    C     C_R   0.566211 0.549959 0.019439 0.059650
C5    C     C_R   0.371922 0.961247 0.414486 -0.333996
C6    C     C_R   0.627330 0.038908 0.586417 -0.335436
C7    C     C_R   0.384643 0.844090 0.421050 0.538632
C8    C     C_R   0.613698 0.156139 0.580546 0.536849
C9    C     C_R   0.557349 0.854859 0.535025 -0.059586
C10   C     C_R   0.443305 0.145091 0.464438 -0.065123
C11   C     C_R   0.547047 0.973183 0.530573 0.025167
C12   C     C_R   0.506658 0.480452 0.299252 0.912382
C13   C     C_R   0.453289 0.026829 0.469295 0.024675
C14   C     C_R   0.740722 0.498701 0.481747 0.922594
C15   C     C_R   0.259515 0.501451 0.518717 0.933686
C16   C     C_R   0.917951 0.290216 0.436560 0.070395
C17   C     C_R   0.083047 0.709753 0.567734 0.067325
C18   C     C_R   0.977832 0.191214 0.473468 -0.224948
C19   C     C_R   0.022033 0.809331 0.533123 -0.224493
C20   C     C_R   0.070200 0.196256 0.548154 -0.173864
C21   C     C_R   0.928746 0.805646 0.458918 -0.175488
C22   C     C_R   0.112800 0.299769 0.578451 0.438952
C23   C     C_R   0.529617 0.471115 0.188553 -0.107734
C24   C     C_R   0.886326 0.702710 0.426438 0.439573
C25   C     C_R   0.062965 0.399721 0.532950 -0.018498
C26   C     C_R   0.937074 0.601606 0.469939 -0.016797
C27   C     C_R   0.952735 0.396103 0.474434 0.001698
C28   C     C_R   0.047818 0.604658 0.528276 0.004630
C29   C     C_R   0.121073 0.502711 0.541838 -0.173073
C30   C     C_R   0.879422 0.498079 0.459969 -0.170726
C31   C     C_1   0.832298 0.280633 0.352231 0.197353
C32   C     C_1   0.172187 0.717451 0.650343 0.194467
C33   C     C_1   0.530681 0.679062 0.168862 0.350788
C34   C     C_R   0.525613 0.526185 0.809800 -0.095940
C35   C     C_1   0.481103 0.324931 0.834230 0.336119
C36   C     C_1   0.642202 0.743170 0.983302 0.190949
C37   C     C_1   0.598378 0.232890 0.006992 0.202501
C38   C     C_R   0.587796 0.639857 0.952201 -0.019998
C39   C     C_R   0.563068 0.346713 0.041963 -0.024980
C40   C     C_R   0.564681 0.627295 0.848906 -0.222475
C41   C     C_R   0.544418 0.363158 0.146009 -0.214782
C42   C     C_R   0.525294 0.430345 0.872475 -0.086379
Cl1   Cl    Cl    0.212610 0.303203 0.684666 -0.618388
Cl2   Cl    Cl    0.784380 0.702747 0.320750 -0.622291
Cl3   Cl    Cl    0.715384 0.233345 0.655418 -0.593359
Cl4   Cl    Cl    0.278756 0.767514 0.349567 -0.588127
H1    H     H_    0.888471 0.883127 0.427267 0.173062
H2    H     H_    0.628811 0.812659 0.582240 0.141954
H3    H     H_    0.109717 0.119524 0.581678 0.173230
H4    H     H_    0.298634 0.000531 0.366958 0.180465
H5    H     H_    0.699812 0.999734 0.634754 0.180282
H6    H     H_    0.950772 0.110018 0.446255 0.157335
H7    H     H_    0.049222 0.890041 0.561453 0.157275
H8    H     H_    0.540561 0.289952 0.194021 0.185806
H9    H     H_    0.577929 0.697366 0.798420 0.170874
H10   H     H_    0.372188 0.187243 0.416883 0.146477
N1    N     N_R   0.523130 0.207800 0.519340 -0.124916
N2    N     N_R   0.476870 0.792200 0.480660 -0.124093
N3    N     N_1   0.764856 0.271795 0.283936 -0.197550
N4    N     N_1   0.242893 0.724115 0.716892 -0.178154
N5    N     N_1   0.518123 0.769890 0.201651 -0.111387
N6    N     N_1   0.447529 0.239892 0.804976 -0.099601
N7    N     N_1   0.686208 0.825853 0.007320 -0.135048
N8    N     N_1   0.627147 0.141779 0.979744 -0.141323
O1    O     O_R   0.506170 0.421700 0.658830 -0.565759
O2    O     O_R   0.493830 0.578300 0.341170 -0.565345
O3    O     O_R   0.491330 0.609310 0.646410 -0.639317
O4    O     O_R   0.508670 0.390690 0.353590 -0.641316
O5    O     O_R   0.690650 0.406190 0.506220 -0.578206
O6    O     O_R   0.309350 0.593810 0.493780 -0.574804
O7    O     O_R   0.675800 0.593810 0.493800 -0.607156
O8    O     O_R   0.324200 0.406190 0.506200 -0.604487
Zn1   Zn    Zn3+2 0.509910 0.374730 0.508290 1.026358
Zn2   Zn    Zn3+2 0.490090 0.625270 0.491710 1.027441

loop_
_geom_bond_atom_site_label_1
_geom_bond_atom_site_label_2
_ccdc_geom_bond_type
C3    C42   A    
C14   O7    A    
C34   C42   A    
C18   H6    S    
C39   C41   A    
C16   C31   S    
C15   O8    A    
C12   O4    A    
C12   C23   S    
C34   C40   A    
C28   C29   A    
C19   C21   A    
C24   C26   A    
N1    Zn1   S    
O2    Zn2   S    
O1    Zn1   S    
C9    N2    A    
C31   N3    T    
C35   C42   S    
C8    Cl3   S    
C17   C19   A    
C22   C25   A    
O6    Zn2   S    
C1    O1    A    
O5    Zn1   S    
C6    H5    S    
C36   N7    T    
C10   H10   S    
C7    N2    A    
C5    C13   A    
C19   H7    S    
C16   C27   A    
C3    C39   A    
C27   C30   A    
C14   C30   S    
C1    C34   S    
C15   C29   S    
C25   C29   A    
C7    Cl4   S    
C10   N1    A    
C6    C11   A    
C5    C7    A    
C6    C8    A    
O4    Zn1   S    
C12   O2    A    
C2    C4    A    
C20   H3    S    
C8    N1    A    
C22   Cl1   S    
C40   H9    S    
O3    Zn2   S    
C9    C11   A    
C2    C33   S    
C16   C18   A    
C20   C22   A    
C26   C30   A    
C24   Cl2   S    
C14   O5    A    
C5    H4    S    
C32   N4    T    
C3    C4    A    
C37   N8    T    
N2    Zn2   S    
C15   O6    A    
C17   C28   A    
C4    C38   A    
O8    Zn1   S    
C10   C13   A    
O7    Zn2   S    
C25   C27   A    
C26   C28   A    
C23   C41   A    
C36   C38   S    
C37   C39   S    
C38   C40   A    
C11   C13   A    
C1    O3    A    
C35   N6    T    
C18   C20   A    
C41   H8    S    
C9    H2    S    
C33   N5    T    
C21   C24   A    
C2    C23   A    
C17   C32   S    
C21   H1    S    
