data_mof_unit_35153.cif
_audit_creation_date              2013-03-05T15:40:55-0500
_audit_creation_method            fapswitch 2.2
_symmetry_space_group_name_H-M    P1
_symmetry_Int_Tables_number       1
_space_group_crystal_system       triclinic
_cell_length_a                    11.806687
_cell_length_b                    11.95077
_cell_length_c                    19.232499
_cell_angle_alpha                 89.866162
_cell_angle_beta                  90.002399
_cell_angle_gamma                 120.023956
_cell_volume                      2349.54543623

loop_
_atom_site_label
_atom_site_type_symbol
_atom_site_description
_atom_site_fract_x
_atom_site_fract_y
_atom_site_fract_z
_atom_type_partial_charge
O1    O     O_R   0.434830 0.101190 0.575190 -0.487177
O2    O     O_R   0.898810 0.333640 0.575190 -0.489544
O3    O     O_R   0.666360 0.565170 0.575190 -0.485037
O4    O     O_R   0.480130 0.360720 0.570290 -0.495981
O5    O     O_R   0.639280 0.119410 0.570290 -0.494474
O6    O     O_R   0.880590 0.519870 0.570290 -0.493460
C1    C     C_R   0.550852 0.476911 0.596574 0.545918
C2    C     C_R   0.522328 0.073618 0.596527 0.549056
C3    C     C_R   0.923508 0.447071 0.597054 0.545567
O7    O     O_R   0.439410 0.104260 0.424150 -0.445296
O8    O     O_R   0.895740 0.335150 0.424150 -0.443400
O9    O     O_R   0.664850 0.560590 0.424150 -0.443607
O10   O     O_R   0.484380 0.363570 0.430280 -0.487311
O11   O     O_R   0.636430 0.120810 0.430280 -0.485609
O12   O     O_R   0.879190 0.515620 0.430280 -0.487189
C4    C     C_R   0.547922 0.479261 0.406106 0.573695
C5    C     C_R   0.520417 0.068882 0.405930 0.578033
C6    C     C_R   0.930136 0.451409 0.405880 0.577107
Cr1   Cr    Cr6+3 0.468420 0.238090 0.499960 1.127221
Cr2   Cr    Cr6+3 0.761910 0.230330 0.499960 1.126461
Cr3   Cr    Cr6+3 0.769670 0.531580 0.499960 1.129799
O13   O     O_3   0.666667 0.333333 0.499980 -0.323743
C7    C     C_1   0.033850 0.514915 0.859172 0.006465
C8    C     C_1   0.452541 0.565798 0.847773 -0.005014
C9    C     C_1   0.434029 0.886673 0.847690 -0.009008
C10   C     C_1   0.995317 0.495652 0.726351 -0.023733
C11   C     C_1   0.483300 0.522548 0.718478 -0.016663
C12   C     C_1   0.476014 0.960313 0.718303 -0.016535
C13   C     C_1   0.013673 0.507109 0.798072 -0.030705
C14   C     C_1   0.463770 0.545690 0.787743 -0.024886
C15   C     C_1   0.453695 0.917810 0.787598 -0.026227
C16   C     C_1   0.971724 0.478865 0.665687 0.025300
C17   C     C_1   0.508501 0.502235 0.661054 0.025266
C18   C     C_1   0.496063 0.005824 0.660902 0.026111
C19   C     C_2   0.016506 0.509513 0.346962 -0.070828
C20   C     C_2   0.488070 0.513608 0.349860 -0.067472
C21   C     C_2   0.486287 0.975101 0.349843 -0.072393
C22   C     C_2   0.039109 0.513138 0.196676 -0.136652
C23   C     C_2   0.448213 0.562089 0.205648 -0.159094
C24   C     C_2   0.437647 0.892279 0.205366 -0.155530
C25   C     C_2   0.105953 0.479177 0.240868 -0.150507
C26   C     C_2   0.511919 0.656830 0.251933 -0.162572
C27   C     C_2   0.343869 0.845384 0.254146 -0.159558
C28   C     C_2   0.075970 0.453854 0.314871 0.171520
C29   C     C_2   0.540336 0.634763 0.323882 0.190416
C30   C     C_2   0.363989 0.902063 0.324444 0.193004
H1    H     H_    0.180848 0.460236 0.221144 0.166328
H2    H     H_    0.554864 0.756265 0.234587 0.159365
H3    H     H_    0.245716 0.770472 0.240090 0.152526
H4    H     H_    0.962741 0.532417 0.213234 0.101304
H5    H     H_    0.405240 0.460724 0.218593 0.130750
H6    H     H_    0.536064 0.970437 0.215525 0.126683
H7    H     H_    0.014084 0.590591 0.322848 0.119875
H8    H     H_    0.405174 0.432503 0.325504 0.119474
H9    H     H_    0.568359 0.973874 0.325326 0.114992
O14   O     O_R   0.548200 0.655360 0.951320 -0.483378
O15   O     O_R   0.344640 0.892840 0.951320 -0.468079
O16   O     O_R   0.107160 0.451800 0.951320 -0.505437
O17   O     O_R   0.505020 0.871000 0.955840 -0.486306
O18   O     O_R   0.129000 0.634020 0.955840 -0.518111
O19   O     O_R   0.365980 0.494980 0.955840 -0.463066
C31   C     C_R   0.408164 0.850818 0.919142 0.536925
C32   C     C_R   0.075027 0.527280 0.929127 0.548063
C33   C     C_R   0.441979 0.591281 0.919195 0.533750
O20   O     O_R   0.543640 0.655270 0.102360 -0.466150
O21   O     O_R   0.344730 0.888370 0.102360 -0.448433
O22   O     O_R   0.111630 0.456360 0.102360 -0.499689
O23   O     O_R   0.500790 0.870920 0.095850 -0.481068
O24   O     O_R   0.129080 0.629870 0.095850 -0.507140
O25   O     O_R   0.370130 0.499210 0.095850 -0.459941
C34   C     C_R   0.406403 0.845998 0.134623 0.535972
C35   C     C_R   0.074359 0.525740 0.123903 0.557526
C36   C     C_R   0.437956 0.593044 0.134005 0.535218
Cr4   Cr    Cr6+3 0.515700 0.760130 0.026360 1.053807
Cr5   Cr    Cr6+3 0.239870 0.755570 0.026360 1.042452
Cr6   Cr    Cr6+3 0.244430 0.484300 0.026360 1.050982
O26   O     O_3   0.333333 0.666667 0.026340 -0.337512
N1    N     N_R   0.109256 0.367976 0.350540 0.103120
O27   O     O_R   0.118823 0.279551 0.316004 -0.306455
O28   O     O_R   0.149770 0.390728 0.414661 -0.302163
N2    N     N_R   0.629464 0.745845 0.364214 0.103418
O29   O     O_R   0.604885 0.753694 0.429445 -0.300317
O30   O     O_R   0.723225 0.847152 0.333602 -0.303228
N3    N     N_R   0.250494 0.879190 0.363756 0.104883
O31   O     O_R   0.242767 0.852312 0.429819 -0.299323
O32   O     O_R   0.146860 0.864554 0.331700 -0.303356

loop_
_geom_bond_atom_site_label_1
_geom_bond_atom_site_label_2
_geom_bond_distance
_ccdc_geom_bond_type
C9    C15   1.199845 T    
O12   C6    1.278476 A    
C23   H5    1.081852 S    
O8    C6    1.285249 A    
C10   C16   1.193396 T    
C24   C34   1.446518 S    
C19   H7    1.086458 S    
O1    C2    1.297752 A    
O6    C3    1.310611 A    
N2    O29   1.301839 A    
O16   Cr6   2.057393 S    
O15   C31   1.255443 A    
O5    Cr2   1.937571 S    
C11   C17   1.200297 T    
O18   C32   1.219353 A    
C7    C13   1.193557 T    
N3    O32   1.301561 A    
O3    C1    1.303862 A    
N1    O28   1.301884 A    
O7    C5    1.273451 A    
O23   Cr4   1.952361 S    
O20   C36   1.244888 A    
O22   C35   1.191442 A    
C3    C16   1.413022 S    
C2    C18   1.424564 S    
O4    Cr1   1.950113 S    
C24   C27   1.340458 D    
O9    C4    1.276612 A    
Cr4   O26   1.864649 S    
O14   C33   1.257793 A    
C6    C19   1.447023 S    
C7    C32   1.413262 S    
C12   C18   1.199571 T    
C8    C33   1.426574 S    
Cr3   O13   2.051520 S    
C11   C14   1.403505 S    
C1    C17   1.425748 S    
O11   C5    1.277198 A    
O4    C1    1.312952 A    
N2    O30   1.301302 A    
C23   C26   1.338860 D    
O19   Cr6   1.931671 S    
C22   C35   1.446067 S    
O8    Cr2   2.050019 S    
O1    Cr1   2.065686 S    
O14   Cr4   2.070525 S    
O10   Cr1   1.946288 S    
O2    Cr2   2.059463 S    
O11   Cr2   1.942016 S    
Cr1   O13   2.026830 S    
N3    O31   1.301771 A    
C22   C25   1.352336 D    
N1    O27   1.301297 A    
C27   H3    1.086461 S    
C5    C21   1.461409 S    
C24   H6    1.084216 S    
O6    Cr3   1.935610 S    
O9    Cr3   2.050478 S    
O20   Cr4   2.054457 S    
C26   C29   1.477721 S    
O19   C33   1.260634 A    
O21   C34   1.240618 A    
O7    Cr1   2.064889 S    
O25   C36   1.241939 A    
C25   H1    1.085251 S    
C20   C29   1.352534 D    
C26   H2    1.084301 S    
Cr6   O26   1.887420 S    
C19   C28   1.336244 D    
Cr5   O26   1.876113 S    
O17   Cr4   1.941585 S    
C30   N3    1.440332 S    
Cr2   O13   2.040844 S    
O25   Cr6   1.938235 S    
C25   C28   1.460622 S    
O3    Cr3   2.057958 S    
O24   C35   1.203925 A    
O16   C32   1.216732 A    
O17   C31   1.260456 A    
C12   C15   1.402306 S    
C29   N2    1.441562 S    
O5    C2    1.305120 A    
C22   H4    1.084315 S    
O18   Cr5   1.941462 S    
O15   Cr5   2.064589 S    
C28   N1    1.441757 S    
C4    C20   1.458140 S    
O23   C34   1.246406 A    
O21   Cr5   2.057282 S    
O24   Cr5   1.943751 S    
C9    C31   1.425343 S    
C23   C36   1.446538 S    
C27   C30   1.478631 S    
C8    C14   1.200592 T    
C20   H8    1.081461 S    
C21   H9    1.084343 S    
O12   Cr3   1.937133 S    
C10   C13   1.392675 S    
O10   C4    1.284358 A    
O22   Cr6   2.044594 S    
C21   C30   1.351342 D    
O2    C3    1.306342 A    
