data_mof_unit_35426.cif
_audit_creation_date              2012-12-10T20:31:06-0500
_audit_creation_method            fapswitch 2.2
_symmetry_space_group_name_H-M    P1
_symmetry_Int_Tables_number       1
_space_group_crystal_system       triclinic
_cell_length_a                    14.947936
_cell_length_b                    10.661314
_cell_length_c                    9.876638
_cell_angle_alpha                 89.947919
_cell_angle_beta                  89.70159
_cell_angle_gamma                 90.006803
_cell_volume                      1573.96484287

loop_
_atom_site_label
_atom_site_type_symbol
_atom_type_description
_atom_site_fract_x
_atom_site_fract_y
_atom_site_fract_z
_atom_type_partial_charge
C1    C     C_R   0.502478 0.260183 0.500180 0.906787
C2    C     C_R   0.907262 0.574002 0.601419 0.008630
C3    C     C_R   0.953770 0.377736 0.295411 -0.191638
C4    C     C_R   0.046649 0.374805 0.296505 -0.232493
C5    C     C_R   0.093278 0.437377 0.398609 0.117311
C6    C     C_R   0.046871 0.503805 0.500733 0.092325
C7    C     C_R   0.093721 0.566939 0.603969 0.132081
C8    C     C_R   0.047579 0.632404 0.704999 -0.248904
C9    C     C_R   0.954751 0.636034 0.703808 -0.187318
C10   C     C_R   0.185767 0.435098 0.400383 -0.293700
C11   C     C_R   0.231425 0.499423 0.501550 -0.070275
C12   C     C_R   0.326910 0.499445 0.500412 0.908326
C13   C     C_R   0.186218 0.564167 0.603634 -0.286427
C14   C     C_R   0.503114 0.063884 0.623067 0.022354
C15   C     C_R   0.514355 0.128710 0.501899 -0.087283
C16   C     C_R   0.539846 0.064834 0.383963 -0.227579
C17   C     C_R   0.538681 0.935236 0.383574 -0.232114
C18   C     C_R   0.512276 0.871495 0.501385 -0.042563
C19   C     C_R   0.501706 0.936077 0.622730 -0.024851
C20   C     C_3   0.429791 0.927665 0.728761 -0.643162
C21   C     C_3   0.430927 0.071978 0.729429 0.913834
C22   C     C_R   0.425489 0.463914 0.071799 0.044391
C23   C     C_R   0.501278 0.739918 0.500020 0.862884
C24   C     C_R   0.574708 0.533063 0.070950 0.514317
C25   C     C_R   0.574870 0.529105 0.926661 -0.283927
C26   C     C_R   0.425644 0.463651 0.929137 0.217026
C27   C     C_3   0.336923 0.526835 0.922907 -0.586723
C28   C     C_3   0.336816 0.528598 0.076675 0.303289
C29   C     C_R   0.673150 0.502347 0.499689 0.900346
C30   C     C_R   0.814072 0.577603 0.598448 0.399145
C31   C     C_R   0.768876 0.508461 0.498766 -0.180289
C32   C     C_R   0.814891 0.444283 0.397124 -0.310426
C33   C     C_R   0.907281 0.443268 0.396397 0.107208
C34   C     C_R   0.953749 0.507080 0.499546 -0.011933
H1    H     H_    0.553295 0.886066 0.290131 0.171923
H2    H     H_    0.367160 0.886632 0.687539 0.198592
H3    H     H_    0.634806 0.552666 0.870738 0.207089
H4    H     H_    0.340846 0.621410 0.875480 0.218222
H5    H     H_    0.284627 0.464351 0.880309 0.173026
H6    H     H_    0.284381 0.468902 0.124631 0.057585
H7    H     H_    0.918299 0.328599 0.216060 0.146699
H8    H     H_    0.081969 0.323826 0.217806 0.141176
H9    H     H_    0.222310 0.382650 0.324122 0.148555
H10   H     H_    0.083274 0.680882 0.784619 0.141245
H11   H     H_    0.920452 0.687284 0.783227 0.185202
N1    N     N_R   0.499390 0.499140 0.142800 -0.123415
N2    N     N_R   0.499390 0.499180 0.857150 -0.109060
O1    O     O_R   0.500010 0.316790 0.614690 -0.579185
O2    O     O_R   0.500000 0.316760 0.385350 -0.645487
O3    O     O_R   0.367850 0.499990 0.614680 -0.617448
O4    O     O_R   0.367840 0.499950 0.385340 -0.605608
O5    O     O_R   0.500000 0.683240 0.614650 -0.614809
O6    O     O_R   0.499990 0.683210 0.385310 -0.593789
O7    O     O_R   0.632160 0.500050 0.614660 -0.595602
O8    O     O_R   0.632150 0.500010 0.385320 -0.568984
Zn1   Zn    Zn3+2 0.500010 0.500020 0.653130 0.983748
Zn2   Zn    Zn3+2 0.499990 0.499980 0.346870 1.005327
O9    O     O_3   0.767262 0.645802 0.694846 -0.623533
C35   C     C_3   0.750027 0.766466 0.641884 0.117359
H12   H     H_    0.701860 0.760988 0.556661 0.129171
H13   H     H_    0.812681 0.812909 0.606003 0.133410
C36   C     C_3   0.709107 0.847950 0.752013 -0.873197
H14   H     H_    0.756214 0.856920 0.838023 0.241346
H15   H     H_    0.695396 0.942804 0.710585 0.215123
H16   H     H_    0.645467 0.805837 0.788752 0.255844
H17   H     H_    0.453438 0.880640 0.822145 0.180559
O10   O     O_3   0.352325 0.124876 0.673399 -0.626701
C37   C     C_3   0.283070 0.129658 0.771195 0.131787
H18   H     H_    0.299031 0.199443 0.851256 0.177171
H19   H     H_    0.271466 0.036204 0.818619 0.123671
C38   C     C_3   0.197007 0.170975 0.702893 -0.854114
H20   H     H_    0.178812 0.103516 0.621950 0.259735
H21   H     H_    0.141877 0.174906 0.778560 0.206158
H22   H     H_    0.205904 0.265554 0.657688 0.271106
O11   O     O_3   0.458723 0.136882 0.848988 -0.632774
C39   C     C_3   0.530019 0.080298 0.920446 0.020280
H23   H     H_    0.580128 0.035043 0.853264 0.146194
H24   H     H_    0.502882 0.009808 0.992753 0.153542
C40   C     C_3   0.578569 0.180651 0.000904 -0.803340
H25   H     H_    0.531397 0.227209 0.071997 0.250507
H26   H     H_    0.633764 0.137480 0.059597 0.198215
H27   H     H_    0.607154 0.251948 0.930986 0.262370
O12   O     O_3   0.650862 0.567747 0.140332 -0.581949
C41   C     C_3   0.678234 0.689672 0.101905 0.094881
H28   H     H_    0.620366 0.754540 0.087851 0.119729
H29   H     H_    0.718176 0.685287 0.006859 0.166311
C42   C     C_3   0.737413 0.743936 0.212100 -0.830874
H30   H     H_    0.797153 0.683603 0.226804 0.262342
H31   H     H_    0.759695 0.839610 0.182881 0.198157
H32   H     H_    0.699456 0.749665 0.308738 0.242995
O13   O     O_3   0.345936 0.650851 0.130180 -0.563240
C43   C     C_3   0.260660 0.704343 0.150200 0.112241
H33   H     H_    0.220993 0.648729 0.224678 0.150660
H34   H     H_    0.223540 0.710332 0.052903 0.124828
C44   C     C_3   0.271931 0.836218 0.206209 -0.813111
H35   H     H_    0.310496 0.894808 0.133394 0.247468
H36   H     H_    0.205270 0.879588 0.223080 0.200742
H37   H     H_    0.308218 0.832736 0.304063 0.262894
H38   H     H_    0.778528 0.392917 0.320146 0.193024
H39   H     H_    0.223113 0.614136 0.680988 0.149025
H40   H     H_    0.555313 0.114190 0.291040 0.170331

loop_
_geom_bond_atom_site_label_1
_geom_bond_atom_site_label_2
_ccdc_geom_bond_type
C8    C9    A    
C42   H30   S    
C9    H11   S    
C44   H35   S    
C39   C40   S    
C44   H37   S    
C7    C8    A    
C26   C27   S    
C14   C21   S    
C20   H17   S    
C24   O12   S    
C39   H24   S    
C5    C6    A    
C29   O7    A    
C3    C33   A    
C27   H4    S    
C15   C16   A    
O2    Zn2   S    
C18   C19   A    
C36   H15   S    
C25   H3    S    
C41   H28   S    
O12   C41   S    
C27   H5    S    
C16   C17   A    
C41   C42   S    
C1    C15   S    
C25   N2    A    
C2    C34   A    
C35   H12   S    
C22   C28   S    
C21   O10   S    
C23   O6    A    
O7    Zn1   S    
C35   H13   S    
C18   C23   S    
C39   H23   S    
O13   C43   S    
C40   H26   S    
O6    Zn2   S    
C37   H18   S    
C29   O8    A    
O9    C35   S    
C43   C44   S    
O3    Zn1   S    
O10   C37   S    
O11   C39   S    
C36   H14   S    
C40   H27   S    
C31   C32   A    
C43   H34   S    
C17   C18   A    
C24   C25   A    
C26   N2    A    
O4    Zn2   S    
C22   N1    A    
O8    Zn2   S    
N1    Zn2   S    
C3    C4    A    
C12   O4    A    
C38   H21   S    
O1    Zn1   S    
C3    H7    S    
C35   C36   S    
C36   H16   S    
C10   H9    S    
C14   C19   A    
C8    H10   S    
C41   H29   S    
C4    C5    A    
C19   C20   S    
C38   H22   S    
C12   O3    A    
C11   C12   S    
C44   H36   S    
C1    O1    A    
C6    C7    A    
C21   O11   S    
C32   H38   S    
C2    C30   A    
C24   N1    A    
C32   C33   A    
C13   H39   S    
C42   H31   S    
C5    C10   A    
C29   C31   S    
C11   C13   A    
C23   O5    A    
C30   C31   A    
C4    H8    S    
C37   C38   S    
C30   O9    S    
C43   H33   S    
C33   C34   A    
C28   O13   S    
C10   C11   A    
C40   H25   S    
C20   H2    S    
C6    C34   A    
C16   H40   S    
C7    C13   A    
C38   H20   S    
C20   C21   S    
C37   H19   S    
C22   C26   A    
C42   H32   S    
C27   C28   S    
C28   H6    S    
C14   C15   A    
C17   H1    S    
C2    C9    A    
C1    O2    A    
O5    Zn1   S    
N2    Zn1   S    
