data_mof_unit_62332.cif
_audit_creation_date              2012-12-10T18:08:46-0500
_audit_creation_method            fapswitch 2.2
_symmetry_space_group_name_H-M    P1
_symmetry_Int_Tables_number       1
_space_group_crystal_system       triclinic
_cell_length_a                    12.740693
_cell_length_b                    13.901034
_cell_length_c                    23.544194
_cell_angle_alpha                 90.210178
_cell_angle_beta                  92.839617
_cell_angle_gamma                 97.988891
_cell_volume                      4124.11031584

loop_
_atom_site_label
_atom_site_type_symbol
_atom_type_description
_atom_site_fract_x
_atom_site_fract_y
_atom_site_fract_z
_atom_type_partial_charge
C1    C     C_R   0.483534 0.315796 0.499410 0.825646
C2    C     C_R   0.516466 0.684204 0.500589 0.825646
C3    C     C_R   0.598654 0.504135 0.241762 -0.093089
C4    C     C_R   0.401346 0.495865 0.758238 -0.093089
C5    C     C_R   0.597972 0.503490 0.300993 -0.206646
C6    C     C_R   0.402028 0.496510 0.699007 -0.206646
C7    C     C_R   0.501848 0.500649 0.328206 -0.045728
C8    C     C_R   0.498152 0.499351 0.671794 -0.045728
C9    C     C_R   0.406600 0.498534 0.295121 -0.203265
C10   C     C_R   0.593399 0.501466 0.704879 -0.203265
C11   C     C_R   0.407533 0.499335 0.235966 -0.095499
C12   C     C_R   0.592467 0.500664 0.764034 -0.095499
C13   C     C_R   0.503461 0.502134 0.209098 0.346798
C14   C     C_R   0.496539 0.497867 0.790902 0.346798
C15   C     C_1   0.525933 0.787560 0.500923 -0.154276
C16   C     C_1   0.474067 0.212440 0.499077 -0.154275
C17   C     C_2   0.543585 0.978458 0.501541 -0.146987
C18   C     C_2   0.456415 0.021541 0.498459 -0.146987
C19   C     C_1   0.465517 0.125369 0.498777 0.022993
C20   C     C_1   0.534482 0.874630 0.501222 0.022993
C21   C     C_2   0.028238 0.473325 0.483901 -0.252416
C22   C     C_2   0.971762 0.526675 0.516099 -0.252416
C23   C     C_R   0.500619 0.500092 0.390712 0.801609
C24   C     C_R   0.499381 0.499908 0.609288 0.801610
C25   C     C_1   0.854645 0.519252 0.511560 0.216201
C26   C     C_1   0.145354 0.480747 0.488440 0.216201
C27   C     C_R   0.475149 0.578255 0.879699 0.555496
C28   C     C_R   0.524851 0.421745 0.120301 0.555497
C29   C     C_R   0.518096 0.416460 0.880458 0.559168
C30   C     C_R   0.481904 0.583541 0.119542 0.559169
C31   C     C_R   0.520705 0.414629 0.940582 -0.071963
C32   C     C_R   0.479295 0.585371 0.059418 -0.071963
C33   C     C_R   0.499224 0.498700 0.969911 -0.045147
C34   C     C_R   0.500775 0.501300 0.030089 -0.045146
C35   C     C_R   0.476148 0.580495 0.939160 -0.043174
C36   C     C_R   0.523853 0.419505 0.060840 -0.043174
C37   C     C_R   0.543757 0.333061 0.972694 0.193847
C38   C     C_R   0.456243 0.666940 0.027306 0.193847
C39   C     C_R   0.544972 0.336752 0.031888 -0.180628
C40   C     C_R   0.455028 0.663248 0.968112 -0.180628
Cu1   Cu    Cu3+1 0.395330 0.493960 0.496390 0.988639
Cu2   Cu    Cu3+1 0.604670 0.506040 0.503610 0.988639
H1    H     H_    0.562737 0.273665 0.055412 0.210261
H2    H     H_    0.437263 0.726336 0.944588 0.210261
H3    H     H_    0.673095 0.506434 0.221183 0.146757
H4    H     H_    0.326905 0.493567 0.778817 0.146757
H5    H     H_    0.672526 0.505159 0.325398 0.164757
H6    H     H_    0.327474 0.494842 0.674601 0.164757
H7    H     H_    0.331355 0.496355 0.314883 0.166150
H8    H     H_    0.668644 0.503644 0.685117 0.166150
H9    H     H_    0.333675 0.497516 0.210900 0.147385
H10   H     H_    0.666325 0.502483 0.789100 0.147385
H11   H     H_    0.377920 0.979151 0.495687 0.162907
H12   H     H_    0.622080 0.020849 0.504313 0.162907
H13   H     H_    0.013922 0.577912 0.547076 0.165907
H14   H     H_    0.986078 0.422088 0.452924 0.165907
N1    N     N_R   0.496074 0.497355 0.851816 -0.473889
N2    N     N_R   0.503926 0.502645 0.148184 -0.473890
N3    N     N_1   0.238030 0.484870 0.490960 -0.157537
N4    N     N_1   0.761970 0.515130 0.509040 -0.157537
O1    O     O_R   0.399110 0.356330 0.496510 -0.566572
O2    O     O_R   0.600890 0.643670 0.503490 -0.566572
O3    O     O_R   0.575900 0.366540 0.502610 -0.567662
O4    O     O_R   0.424100 0.633460 0.497390 -0.567661
O5    O     O_R   0.411590 0.494870 0.414830 -0.577623
O6    O     O_R   0.588410 0.505130 0.585170 -0.577624
O7    O     O_R   0.588370 0.505070 0.420930 -0.578336
O8    O     O_R   0.411630 0.494930 0.579070 -0.578336
O9    O     O_2   0.454381 0.656728 0.849804 -0.524192
O10   O     O_2   0.545619 0.343272 0.150196 -0.524192
O11   O     O_2   0.536586 0.338663 0.850300 -0.489953
O12   O     O_2   0.463413 0.661337 0.149700 -0.489953
I1    I     I_    0.578838 0.198613 0.939559 -0.199942
I2    I     I_    0.421163 0.801388 0.060441 -0.199942

loop_
_geom_bond_atom_site_label_1
_geom_bond_atom_site_label_2
_ccdc_geom_bond_type
C38   C40   A    
C21   C26   S    
Cu2   O3    S    
Cu1   Cu2   S    
Cu1   O5    S    
Cu1   O1    S    
C4    H4    S    
C5    H5    S    
C6    H6    S    
C6    C8    A    
C17   C20   S    
C18   C19   S    
C23   O7    A    
C18   H11   S    
C33   C35   A    
C22   C25   S    
C31   C33   A    
C25   N4    T    
C32   C38   A    
C26   N3    T    
Cu2   O2    S    
C3    C13   A    
C24   O6    A    
C21   C22   D    
C1    O3    A    
C12   H10   S    
C2    O4    A    
C33   C34   A    
Cu1   O8    S    
C15   C20   T    
C9    H7    S    
Cu1   N3    S    
C4    C6    A    
C27   N1    A    
Cu2   N4    S    
C5    C7    A    
C39   H1    S    
C13   N2    S    
C27   C35   A    
C3    H3    S    
C31   C37   A    
C1    O1    A    
C32   C34   A    
C17   C18   D    
C1    C16   S    
C2    C15   S    
C9    C11   A    
C10   C12   A    
C8    C10   A    
C12   C14   A    
Cu2   O7    S    
C10   H8    S    
C38   I2    S    
C7    C9    A    
C14   N1    S    
C37   I1    S    
C36   C39   A    
C28   O10   S    
C29   N1    A    
C3    C5    A    
C27   O9    S    
C21   H14   S    
C30   O12   S    
C22   H13   S    
C28   N2    A    
C23   O5    A    
C35   C40   A    
C29   C31   A    
C30   C32   A    
C11   C13   A    
C16   C19   T    
C7    C23   S    
C30   N2    A    
C8    C24   S    
C34   C36   A    
C4    C14   A    
C11   H9    S    
C24   O8    A    
C40   H2    S    
C28   C36   A    
C37   C39   A    
Cu2   O6    S    
Cu1   O4    S    
C17   H12   S    
C2    O2    A    
C29   O11   S    
