data_mof_unit_59331.cif
_audit_creation_date              2012-12-10T18:04:43-0500
_audit_creation_method            fapswitch 2.2
_symmetry_space_group_name_H-M    P1
_symmetry_Int_Tables_number       1
_space_group_crystal_system       triclinic
_cell_length_a                    19.564885
_cell_length_b                    17.623825
_cell_length_c                    12.620435
_cell_angle_alpha                 89.998486
_cell_angle_beta                  99.10245
_cell_angle_gamma                 89.999665
_cell_volume                      4296.82846143

loop_
_atom_site_label
_atom_site_type_symbol
_atom_type_description
_atom_site_fract_x
_atom_site_fract_y
_atom_site_fract_z
_atom_type_partial_charge
C1    C     C_R   0.411178 0.102864 0.443720 0.908211
C2    C     C_R   0.780500 0.787866 0.643798 0.159200
C3    C     C_R   0.280480 0.712181 0.643890 0.159229
C4    C     C_R   0.280506 0.287873 0.643806 0.159201
C5    C     C_R   0.347544 0.740611 0.666870 -0.240460
C6    C     C_R   0.347587 0.259482 0.666736 -0.240414
C7    C     C_R   0.847570 0.240546 0.666778 -0.240429
C8    C     C_R   0.847582 0.759479 0.666725 -0.240416
C9    C     C_R   0.376104 0.778402 0.587927 -0.160034
C10   C     C_R   0.376112 0.221648 0.587797 -0.160047
C11   C     C_R   0.876107 0.278367 0.587837 -0.160047
C12   C     C_R   0.411190 0.897122 0.443730 0.908228
C13   C     C_R   0.876107 0.721647 0.587787 -0.160046
C14   C     C_R   0.675879 0.190604 0.517831 -0.253111
C15   C     C_R   0.675859 0.809372 0.517837 -0.253093
C16   C     C_R   0.175910 0.690566 0.517823 -0.253134
C17   C     C_R   0.175866 0.309379 0.517839 -0.253101
C18   C     C_R   0.684547 0.144872 0.699990 -0.186927
C19   C     C_R   0.684564 0.855148 0.699973 -0.186927
C20   C     C_R   0.184510 0.644929 0.700017 -0.186932
C21   C     C_R   0.184568 0.355152 0.699979 -0.186915
C22   C     C_R   0.360910 0.837554 0.408245 -0.257427
C23   C     C_R   0.911178 0.602863 0.443719 0.908233
C24   C     C_R   0.360853 0.162379 0.408202 -0.257362
C25   C     C_R   0.860868 0.337604 0.408215 -0.257398
C26   C     C_R   0.860848 0.662373 0.408199 -0.257372
C27   C     C_R   0.643603 0.000004 0.134818 -0.293868
C28   C     C_R   0.143603 0.500014 0.134818 -0.293889
C29   C     C_R   0.378505 0.999998 0.764521 0.119541
C30   C     C_R   0.878505 0.499998 0.764521 0.119549
C31   C     C_R   0.353974 0.999996 0.861644 -0.276461
C32   C     C_R   0.853974 0.499999 0.861644 -0.276447
C33   C     C_R   0.590607 0.899403 0.557389 0.842120
C34   C     C_R   0.911181 0.397133 0.443724 0.908234
C35   C     C_R   0.590607 0.100597 0.557388 0.842132
C36   C     C_R   0.090607 0.399403 0.557390 0.842127
C37   C     C_R   0.090607 0.600598 0.557388 0.842141
C38   C     C_R   0.400547 0.999996 0.956140 -0.150975
C39   C     C_R   0.900547 0.500000 0.956140 -0.151003
C40   C     C_R   0.472616 0.999998 0.954239 0.007805
C41   C     C_R   0.972616 0.500001 0.954238 0.007791
C42   C     C_R   0.495360 0.999999 0.853570 0.201589
C43   C     C_R   0.995360 0.500001 0.853570 0.201597
C44   C     C_R   0.522507 0.999999 0.048108 -0.039169
C45   C     C_R   0.743467 0.217506 0.537841 0.108405
C46   C     C_R   0.022507 0.500002 0.048108 -0.039163
C47   C     C_R   0.594547 0.000002 0.040671 0.137032
C48   C     C_R   0.094547 0.500010 0.040670 0.137048
C49   C     C_R   0.615720 0.000002 0.939613 -0.051693
C50   C     C_R   0.115720 0.500012 0.939612 -0.051718
C51   C     C_R   0.566180 1.000000 0.847964 -0.268730
C52   C     C_R   0.066180 0.500005 0.847963 -0.268744
C53   C     C_R   0.503415 0.999997 0.150231 0.016251
C54   C     C_R   0.003415 0.499996 0.150231 0.016173
C55   C     C_R   0.620990 0.000003 0.233061 -0.005101
C56   C     C_R   0.743450 0.782472 0.537826 0.108407
C57   C     C_R   0.120990 0.500009 0.233060 -0.005122
C58   C     C_R   0.750121 0.177161 0.724790 -0.183160
C59   C     C_R   0.750142 0.822865 0.724757 -0.183165
C60   C     C_R   0.250076 0.677236 0.724845 -0.183150
C61   C     C_R   0.250147 0.322871 0.724765 -0.183164
C62   C     C_R   0.648687 0.149721 0.595093 -0.053642
C63   C     C_R   0.648685 0.850276 0.595094 -0.053630
C64   C     C_R   0.148686 0.649724 0.595092 -0.053657
C65   C     C_R   0.148688 0.350280 0.595096 -0.053639
C66   C     C_R   0.329280 0.834986 0.299933 0.643690
C67   C     C_R   0.243492 0.717482 0.537869 0.108399
C68   C     C_R   0.329150 0.164833 0.299921 0.643628
C69   C     C_R   0.829185 0.335121 0.299923 0.643686
C70   C     C_R   0.829141 0.664818 0.299920 0.643669
C71   C     C_R   0.273096 0.787636 0.268875 -0.215472
C72   C     C_R   0.272911 0.212110 0.268866 -0.215471
C73   C     C_R   0.772964 0.287822 0.268865 -0.215473
C74   C     C_R   0.772896 0.712085 0.268866 -0.215476
C75   C     C_R   0.244774 0.747021 0.345609 -0.300010
C76   C     C_R   0.244620 0.252772 0.345588 -0.299976
C77   C     C_R   0.744665 0.247169 0.345591 -0.299986
C78   C     C_R   0.243458 0.282483 0.537831 0.108407
C79   C     C_R   0.744603 0.752746 0.345586 -0.299973
C80   C     C_R   0.274521 0.750685 0.455460 0.095806
C81   C     C_R   0.274444 0.249225 0.455415 0.095809
C82   C     C_R   0.774467 0.250749 0.455427 0.095810
C83   C     C_R   0.774433 0.749210 0.455411 0.095812
C84   C     C_R   0.337893 0.788975 0.484095 0.011611
C85   C     C_R   0.337851 0.210993 0.484020 0.011592
C86   C     C_R   0.837862 0.288998 0.484043 0.011593
C87   C     C_R   0.837844 0.710986 0.484015 0.011589
C88   C     C_1   0.688008 0.000006 0.927060 0.108727
C89   C     C_R   0.780495 0.212143 0.643831 0.159211
C90   C     C_1   0.188008 0.500024 0.927057 0.108741
C91   C     C_1   0.328638 0.999998 0.667670 0.266219
C92   C     C_1   0.828638 0.499997 0.667670 0.266212
F1    F     F_    0.350948 0.880002 0.224444 -0.664444
F2    F     F_    0.350793 0.119762 0.224471 -0.664483
F3    F     F_    0.850832 0.380181 0.224463 -0.664424
F4    F     F_    0.850786 0.619747 0.224473 -0.664431
H1    H     H_    0.663506 0.113299 0.760837 0.161674
H2    H     H_    0.878036 0.500002 0.028591 0.198867
H3    H     H_    0.298859 0.999994 0.864385 0.165805
H4    H     H_    0.798859 0.499998 0.864385 0.165813
H5    H     H_    0.584368 0.999999 0.772749 0.213867
H6    H     H_    0.084368 0.500002 0.772748 0.213877
H7    H     H_    0.377556 0.734728 0.746329 0.153811
H8    H     H_    0.377641 0.265432 0.746154 0.153790
H9    H     H_    0.877611 0.234617 0.746211 0.153795
H10   H     H_    0.877638 0.765432 0.746142 0.153790
H11   H     H_    0.778042 0.172274 0.805806 0.152811
H12   H     H_    0.663537 0.886738 0.760814 0.161668
H13   H     H_    0.778081 0.827774 0.805758 0.152817
H14   H     H_    0.277967 0.672394 0.805886 0.152804
H15   H     H_    0.278084 0.327780 0.805768 0.152811
H16   H     H_    0.643681 0.198268 0.440909 0.153444
H17   H     H_    0.643646 0.801696 0.440934 0.153427
H18   H     H_    0.143742 0.698198 0.440870 0.153493
H19   H     H_    0.143654 0.301701 0.440932 0.153425
H20   H     H_    0.700570 0.212053 0.316264 0.166932
H21   H     H_    0.700489 0.787834 0.316260 0.166945
H22   H     H_    0.200708 0.711860 0.316286 0.166928
H23   H     H_    0.163446 0.613389 0.760872 0.161688
H24   H     H_    0.200512 0.287871 0.316263 0.166940
H25   H     H_    0.249487 0.784754 0.185371 0.174633
H26   H     H_    0.249238 0.214896 0.185384 0.174642
H27   H     H_    0.749309 0.285011 0.185375 0.174640
H28   H     H_    0.749219 0.714862 0.185387 0.174650
H29   H     H_    0.428782 0.798384 0.608840 0.167679
H30   H     H_    0.428802 0.201689 0.608667 0.167606
H31   H     H_    0.928793 0.298332 0.608723 0.167627
H32   H     H_    0.928799 0.701694 0.608656 0.167599
H33   H     H_    0.657944 0.000005 0.306545 0.145411
H34   H     H_    0.163539 0.386741 0.760820 0.161666
H35   H     H_    0.157944 0.500013 0.306545 0.145403
H36   H     H_    0.698770 0.000007 0.133292 0.163734
H37   H     H_    0.198770 0.500021 0.133291 0.163728
H38   H     H_    0.450760 0.999995 0.164713 0.192069
H39   H     H_    0.950760 0.499988 0.164713 0.192108
H40   H     H_    0.378036 0.999995 0.028591 0.198820
N1    N     N_R   0.552340 0.000000 0.237260 -0.114059
N2    N     N_R   0.052340 0.500000 0.237260 -0.114054
N3    N     N_R   0.448170 0.000000 0.762060 -0.147780
N4    N     N_R   0.948170 0.500000 0.762060 -0.147776
N5    N     N_1   0.745764 0.000009 0.916853 -0.215202
N6    N     N_1   0.245763 0.500034 0.916848 -0.215174
N7    N     N_1   0.287885 0.999998 0.590416 -0.196935
N8    N     N_1   0.787885 0.499997 0.590416 -0.196930
O1    O     O_R   0.448200 0.076800 0.373930 -0.548403
O2    O     O_R   0.585240 0.076800 0.457600 -0.618418
O3    O     O_R   0.085240 0.423200 0.457600 -0.618401
O4    O     O_R   0.085240 0.576800 0.457600 -0.618435
O5    O     O_R   0.551780 0.923190 0.626070 -0.644825
O6    O     O_R   0.551780 0.076810 0.626070 -0.644808
O7    O     O_R   0.051780 0.423190 0.626070 -0.644808
O8    O     O_R   0.051780 0.576810 0.626070 -0.644814
O9    O     O_R   0.448200 0.923200 0.373930 -0.548311
O10   O     O_R   0.948200 0.576800 0.373930 -0.548378
O11   O     O_R   0.948200 0.423200 0.373930 -0.548364
O12   O     O_R   0.414750 0.076790 0.542400 -0.622388
O13   O     O_R   0.414750 0.923210 0.542400 -0.622433
O14   O     O_R   0.914750 0.576790 0.542400 -0.622396
O15   O     O_R   0.914750 0.423210 0.542400 -0.622411
O16   O     O_R   0.585240 0.923200 0.457600 -0.618398
Zn1   Zn    Zn3+2 0.522330 0.000000 0.387520 0.992415
Zn2   Zn    Zn3+2 0.022330 0.500000 0.387520 0.992402
Zn3   Zn    Zn3+2 0.477660 0.000000 0.612480 0.927936
Zn4   Zn    Zn3+2 0.977660 0.500000 0.612480 0.927955

loop_
_geom_bond_atom_site_label_1
_geom_bond_atom_site_label_2
_ccdc_geom_bond_type
C83   C87   A    
C5    H7    S    
C10   C85   A    
C8    C13   A    
C74   H28   S    
C45   C82   A    
C12   O9    A    
C80   C84   A    
C39   C41   A    
C28   C57   A    
C14   H16   S    
O6    Zn3   S    
C52   H6    S    
C76   H24   S    
C53   N1    A    
C38   C40   A    
C27   C55   A    
C43   C52   A    
C32   C39   A    
C11   C86   A    
C14   C62   A    
C23   O14   A    
C12   C22   S    
C58   H11   S    
C23   C26   S    
C22   C66   A    
C16   H18   S    
C13   H32   S    
C1    O1    A    
C44   C53   A    
C50   C90   S    
C69   F3    S    
O12   Zn3   S    
C19   C63   A    
C26   C87   A    
C73   H27   S    
C70   C74   A    
C50   C52   A    
C41   C46   A    
C15   H17   S    
C69   C73   A    
O5    Zn3   S    
C35   O6    A    
C38   H40   S    
C12   O13   A    
C20   C60   A    
C77   H20   S    
C45   C89   A    
C24   C85   A    
O13   Zn3   S    
C21   C61   A    
C44   C47   A    
O14   Zn4   S    
C42   C51   A    
C21   C65   A    
C19   H12   S    
C40   C42   A    
C27   H36   S    
C41   C43   A    
C49   C88   S    
C13   C87   A    
C75   H22   S    
C58   C89   A    
C18   C58   A    
C7    C11   A    
C14   C45   A    
C91   N7    T    
O11   Zn2   S    
C29   N3    A    
O2    Zn1   S    
C46   C48   A    
C30   N4    A    
C53   H38   S    
C28   H37   S    
C30   C32   A    
C47   C49   A    
C2    C59   A    
C18   C62   A    
C39   H2    S    
C49   C51   A    
C34   O11   A    
C4    C61   A    
C9    H29   S    
C32   H4    S    
O9    Zn1   S    
C68   C72   A    
C35   O2    A    
C22   C84   A    
C20   C64   A    
C1    O12   A    
C70   F4    S    
C5    C9    A    
C36   O3    A    
C66   C71   A    
C33   C63   S    
C46   C54   A    
C7    H9    S    
C43   N4    A    
N2    Zn2   S    
C16   C67   A    
O8    Zn4   S    
C48   C50   A    
C90   N6    T    
C2    C56   A    
C66   F1    S    
C11   H31   S    
C30   C92   S    
C18   H1    S    
C31   H3    S    
C74   C79   A    
C26   C70   A    
C25   C86   A    
C4    C6    A    
C25   C69   A    
C37   O8    A    
C61   H15   S    
C88   N5    T    
C29   C91   S    
C37   C64   S    
C17   H19   S    
C56   C83   A    
C75   C80   A    
C27   C47   A    
C28   C48   A    
C73   C77   A    
C72   H26   S    
C42   N3    A    
C36   C65   S    
O10   Zn2   S    
C3    C67   A    
C67   C80   A    
C3    C5    A    
O3    Zn2   S    
C8    H10   S    
C76   C81   A    
C6    C10   A    
C33   O16   A    
C36   O7    A    
C4    C78   A    
C25   C34   S    
C17   C65   A    
C6    H8    S    
C55   N1    A    
C31   C38   A    
C19   C59   A    
O16   Zn1   S    
C55   H33   S    
O4    Zn2   S    
C29   C31   A    
C82   C86   A    
C34   O15   A    
C71   C75   A    
C78   C81   A    
C54   N2    A    
O1    Zn1   S    
C77   C82   A    
C72   C76   A    
C54   H39   S    
C79   H21   S    
N3    Zn3   S    
C17   C78   A    
C59   H13   S    
C57   N2    A    
C57   H35   S    
C35   C62   S    
C37   O4    A    
C92   N8    T    
C15   C56   A    
C68   F2    S    
C21   H34   S    
C60   H14   S    
C24   C68   A    
C9    C84   A    
C79   C83   A    
C71   H25   S    
C40   C44   A    
C1    C24   S    
O7    Zn4   S    
C23   O10   A    
C2    C8    A    
C15   C63   A    
O15   Zn4   S    
C33   O5    A    
C16   C64   A    
C10   H30   S    
C3    C60   A    
N4    Zn4   S    
C20   H23   S    
C81   C85   A    
C51   H5    S    
N1    Zn1   S    
C7    C89   A    
