data_mof_unit_27346.cif
_audit_creation_date              2012-12-10T17:49:33-0500
_audit_creation_method            fapswitch 2.2
_symmetry_space_group_name_H-M    P1
_symmetry_Int_Tables_number       1
_space_group_crystal_system       triclinic
_cell_length_a                    10.497432
_cell_length_b                    10.689175
_cell_length_c                    9.900308
_cell_angle_alpha                 89.397857
_cell_angle_beta                  89.53289
_cell_angle_gamma                 91.697699
_cell_volume                      1110.31378698

loop_
_atom_site_label
_atom_site_type_symbol
_atom_type_description
_atom_site_fract_x
_atom_site_fract_y
_atom_site_fract_z
_atom_type_partial_charge
C1    C     C_R   0.509281 0.259942 0.501637 0.877001
C2    C     C_R   0.501721 0.058087 0.630618 0.028705
C3    C     C_R   0.516019 0.125619 0.506731 -0.060722
C4    C     C_R   0.257383 0.497528 0.500406 0.879241
C5    C     C_R   0.513742 0.063630 0.383413 -0.231633
C6    C     C_R   0.493454 0.936824 0.381106 -0.248027
C7    C     C_R   0.467261 0.871402 0.501405 -0.102531
C8    C     C_R   0.333333 0.335023 0.142994 -0.315869
C9    C     C_R   0.250273 0.252855 0.074654 0.498781
C10   C     C_R   0.248902 0.255911 0.934075 -0.076996
C11   C     C_R   0.332592 0.336478 0.862817 -0.312628
C12   C     C_3   0.962561 0.547997 0.380506 -0.199583
C13   C     C_R   0.417950 0.418720 0.929231 0.165643
C14   C     C_R   0.418144 0.418427 0.073709 0.116380
C15   C     C_R   0.578103 0.578110 0.069969 -0.117359
C16   C     C_R   0.485243 0.738675 0.500060 0.920366
C17   C     C_R   0.578111 0.578036 0.926763 -0.082570
C18   C     C_R   0.742565 0.501710 0.499453 0.917389
C19   C     C_3   0.037491 0.450434 0.619016 -0.215473
C20   C     C_3   0.953807 0.384046 0.514085 0.580026
C21   C     C_3   0.877567 0.501668 0.498350 -0.047022
C22   C     C_3   0.960185 0.570448 0.601964 -0.242060
C23   C     C_3   0.040105 0.427969 0.395736 -0.274149
C24   C     C_3   0.047846 0.616732 0.484293 -0.141726
C25   C     C_3   0.976417 0.171248 0.495982 -0.310324
C26   C     C_3   0.190297 0.810971 0.754066 -0.340543
C27   C     C_3   0.224014 0.090951 0.226979 -0.366583
C28   C     C_1   0.161856 0.174760 0.861576 0.226881
C29   C     C_3   0.122368 0.496792 0.500661 -0.044016
C30   C     C_R   0.533698 0.107413 0.758775 -0.134775
C31   C     C_R   0.494396 0.045775 0.877235 -0.252336
C32   C     C_R   0.421180 0.935803 0.870187 -0.238957
C33   C     C_R   0.396483 0.881053 0.744609 0.566508
C34   C     C_R   0.452890 0.935159 0.625269 -0.035026
H1    H     H_    0.384689 0.891899 0.962265 0.152165
H2    H     H_    0.927539 0.588437 0.284455 0.159062
H3    H     H_    0.077606 0.370511 0.312490 0.183242
H4    H     H_    0.527895 0.112940 0.287993 0.172101
H5    H     H_    0.592685 0.191147 0.769693 0.194318
H6    H     H_    0.517411 0.085514 0.974515 0.161536
H7    H     H_    0.073439 0.185926 0.538868 0.150385
H8    H     H_    0.982187 0.165267 0.384136 0.197764
H9    H     H_    0.937589 0.080062 0.534928 0.199737
H10   H     H_    0.162127 0.873272 0.669290 0.157199
H11   H     H_    0.173315 0.856363 0.852947 0.178780
H12   H     H_    0.501211 0.890000 0.284946 0.172161
H13   H     H_    0.128247 0.725527 0.751961 0.202365
H14   H     H_    0.257182 0.136270 0.321325 0.165452
H15   H     H_    0.304340 0.046247 0.173412 0.167448
H16   H     H_    0.154702 0.015119 0.256835 0.194159
H17   H     H_    0.641856 0.641927 0.122552 0.138019
H18   H     H_    0.326992 0.332330 0.249922 0.221486
H19   H     H_    0.328177 0.332292 0.755642 0.222910
H20   H     H_    0.641829 0.641852 0.871580 0.137128
H21   H     H_    0.072021 0.409505 0.714985 0.157987
H22   H     H_    0.922075 0.628649 0.684372 0.148562
H23   H     H_    0.091845 0.711958 0.471999 0.135208
N1    N     N_R   0.498800 0.498800 0.142780 -0.102673
N2    N     N_R   0.498760 0.498720 0.857170 -0.098650
N3    N     N_1   0.091689 0.109542 0.804030 -0.238088
O1    O     O_R   0.500000 0.316780 0.614690 -0.655593
O2    O     O_3   0.317664 0.775255 0.739195 -0.589511
O3    O     O_3   0.161418 0.177173 0.143714 -0.613543
O4    O     O_R   0.499990 0.316750 0.385360 -0.642651
O5    O     O_R   0.313960 0.499980 0.614650 -0.608945
O6    O     O_R   0.313940 0.499960 0.385310 -0.640486
O7    O     O_R   0.500010 0.683250 0.614640 -0.576915
O8    O     O_R   0.500000 0.683220 0.385310 -0.637713
O9    O     O_R   0.686060 0.500040 0.614690 -0.622450
O10   O     O_R   0.686040 0.500020 0.385350 -0.620826
O11   O     O_3   0.892932 0.265693 0.533908 -0.614363
Zn1   Zn    Zn3+2 0.500010 0.500020 0.653130 0.969862
Zn2   Zn    Zn3+2 0.499990 0.499980 0.346870 0.937360

loop_
_geom_bond_atom_site_label_1
_geom_bond_atom_site_label_2
_ccdc_geom_bond_type
C27   H14   S    
C18   O10   A    
C18   C21   S    
C19   C20   S    
C25   H9    S    
C26   H10   S    
C12   C23   S    
C23   C29   S    
C4    O5    A    
C19   H21   S    
C31   H6    S    
O7    Zn1   S    
C24   C29   S    
C26   H11   S    
C24   H23   S    
O4    Zn2   S    
C20   O11   S    
C16   O8    A    
C15   H17   S    
C12   H2    S    
C9    C10   A    
C8    H18   S    
C4    C29   S    
C11   H19   S    
C27   H16   S    
N2    Zn1   S    
C2    C34   A    
C18   O9    A    
C13   C14   A    
C28   N3    T    
C14   N1    A    
C32   H1    S    
C19   C22   S    
C5    H4    S    
C25   H7    S    
C33   O2    S    
C22   H22   S    
O8    Zn2   S    
C23   H3    S    
O6    Zn2   S    
C12   C21   S    
C1    C3    S    
O9    Zn1   S    
C31   C32   A    
C20   C23   S    
C30   C31   A    
O10   Zn2   S    
C33   C34   A    
C8    C9    A    
C16   O7    A    
C27   O3    S    
C26   H13   S    
C17   N2    A    
C25   O11   S    
O1    Zn1   S    
C7    C16   S    
C7    C34   A    
C22   C24   S    
C19   C29   S    
C1    O4    A    
C10   C28   S    
C15   C17   A    
C8    C14   A    
C6    H12   S    
C9    O3    S    
C3    C5    A    
C1    O1    A    
C25   H8    S    
C6    C7    A    
C13   N2    A    
O5    Zn1   S    
C12   C24   S    
C2    C30   A    
C32   C33   A    
C2    C3    A    
C26   O2    S    
C4    O6    A    
C11   C13   A    
C5    C6    A    
C15   N1    A    
C30   H5    S    
C10   C11   A    
C20   C21   S    
C21   C22   S    
C17   H20   S    
C27   H15   S    
N1    Zn2   S    
