data_mof_unit_67801.cif
_audit_creation_date              2012-12-10T16:53:55-0500
_audit_creation_method            fapswitch 2.2
_symmetry_space_group_name_H-M    P1
_symmetry_Int_Tables_number       1
_space_group_crystal_system       triclinic
_cell_length_a                    7.893713
_cell_length_b                    8.517832
_cell_length_c                    10.669427
_cell_angle_alpha                 92.018405
_cell_angle_beta                  84.850026
_cell_angle_gamma                 94.14381
_cell_volume                      712.321724877

loop_
_atom_site_label
_atom_site_type_symbol
_atom_type_description
_atom_site_fract_x
_atom_site_fract_y
_atom_site_fract_z
_atom_type_partial_charge
C1    C     C_R   0.545388 0.794349 0.501397 0.974875
C2    C     C_3   0.499181 0.526910 0.123534 -0.010636
C3    C     C_3   0.530244 0.360001 0.066525 -0.512095
C4    C     C_3   0.645307 0.647635 0.069738 -0.113432
C5    C     C_2   0.567337 0.958835 0.512243 -0.333295
C6    C     C_2   0.430441 0.041659 0.508268 -0.361382
C7    C     C_R   0.500759 0.508438 0.741974 0.895304
C8    C     C_R   0.454355 0.205866 0.505492 0.940711
C9    C     C_R   0.500644 0.510680 0.259207 0.857656
C10   C     C_3   0.318556 0.581599 0.942318 0.299610
C11   C     C_3   0.321050 0.574570 0.088154 0.051175
C12   C     C_3   0.520839 0.355723 0.924718 -0.458609
C13   C     C_3   0.650806 0.635055 0.922298 0.009265
C14   C     C_3   0.496556 0.522700 0.880028 -0.028436
H1    H     H_    0.767585 0.605018 0.095304 0.187573
H2    H     H_    0.640541 0.310380 0.878288 0.226149
H3    H     H_    0.658615 0.326291 0.086355 0.223551
H4    H     H_    0.694981 0.011497 0.522980 0.205729
H5    H     H_    0.301805 0.989500 0.500960 0.224568
H6    H     H_    0.002359 0.357528 0.428121 0.160275
H7    H     H_    0.228365 0.477378 0.121997 0.188805
H8    H     H_    0.415433 0.270446 0.898888 0.227072
H9    H     H_    0.434502 0.270303 0.109342 0.195493
H10   H     H_    0.769241 0.576648 0.889797 0.200729
N1    N     N_2   0.950330 0.457950 0.465890 -0.102759
N2    N     N_2   0.049670 0.542050 0.534110 0.081674
O1    O     O_R   0.389250 0.738570 0.508370 -0.583919
O2    O     O_R   0.678390 0.711620 0.486510 -0.562218
O3    O     O_R   0.355430 0.513500 0.696140 -0.583182
O4    O     O_R   0.644580 0.486550 0.674270 -0.585686
O5    O     O_R   0.321610 0.288380 0.513490 -0.623868
O6    O     O_R   0.610750 0.261430 0.491630 -0.624364
O7    O     O_R   0.355420 0.513450 0.325730 -0.597508
O8    O     O_R   0.644570 0.486500 0.303860 -0.630173
Zn1   Zn    Zn3+2 0.306940 0.517990 0.514600 1.043678
Zn2   Zn    Zn3+2 0.693060 0.482010 0.485400 1.019808
Br1   Br    Br    0.120275 0.435686 0.900872 -0.618416
Br2   Br    Br    0.998193 0.750370 0.571622 -0.373259
C15   C     C_3   0.295684 0.751559 0.895301 -0.331047
C16   C     C_3   0.115227 0.802990 0.893225 -0.300598
C17   C     C_3   0.122150 0.979443 0.866445 -0.765346
H11   H     H_    0.169167 0.049683 0.947587 0.264027
H12   H     H_    0.208353 0.006622 0.780632 0.271551
H13   H     H_    0.994889 0.016823 0.850240 0.300138
H14   H     H_    0.051001 0.735381 0.818923 0.298506
H15   H     H_    0.040612 0.776736 0.982832 0.253598
H16   H     H_    0.366126 0.840102 0.951704 0.237661
H17   H     H_    0.352470 0.766087 0.797438 0.231350
Br3   Br    Br    0.228574 0.755278 0.186844 -0.615672
Br4   Br    Br    0.688579 0.833792 0.832814 -0.645413
C18   C     C_3   0.633039 0.816374 0.132980 -0.337437
C19   C     C_3   0.803414 0.913751 0.136149 -0.368078
C20   C     C_3   0.790498 0.060623 0.221836 -0.802109
H18   H     H_    0.664933 0.110954 0.220158 0.255103
H19   H     H_    0.809158 0.030499 0.319343 0.266113
H20   H     H_    0.892786 0.151237 0.191281 0.255507
H21   H     H_    0.898716 0.841135 0.170963 0.273019
H22   H     H_    0.846030 0.953521 0.040753 0.276299
H23   H     H_    0.545961 0.886750 0.087064 0.251913
H24   H     H_    0.580973 0.805395 0.232490 0.220452

loop_
_geom_bond_atom_site_label_1
_geom_bond_atom_site_label_2
_ccdc_geom_bond_type
C1    O2    A    
C2    C4    S    
H6    N1    S    
C7    O3    A    
C17   H11   S    
O3    Zn1   S    
C3    H9    S    
O4    Zn2   S    
C1    O1    A    
C4    H1    S    
C2    C3    S    
C7    O4    A    
C13   C14   S    
C9    O7    A    
C6    H5    S    
C17   H12   S    
C9    O8    A    
C19   H22   S    
C5    H4    S    
C10   Br1   S    
C11   Br3   S    
C2    C11   S    
O6    Zn2   S    
C16   C17   S    
O7    Zn1   S    
C12   C14   S    
C3    H3    S    
O8    Zn2   S    
C10   C11   S    
C20   H19   S    
C16   H14   S    
C13   H10   S    
C17   H13   S    
O5    Zn1   S    
C18   H24   S    
C18   H23   S    
C19   H21   S    
C16   H15   S    
N1    Zn2   S    
C18   C19   S    
C8    O6    A    
C12   H8    S    
N2    Zn1   S    
C1    C5    S    
C13   Br4   S    
C19   C20   S    
O2    Zn2   S    
C15   H16   S    
C10   C14   S    
C20   H20   S    
C15   C16   S    
C5    C6    D    
N2    Br2   S    
C6    C8    S    
C3    C12   S    
C4    C18   S    
O1    Zn1   S    
N1    N2    D    
C20   H18   S    
C2    C9    S    
C11   H7    S    
C7    C14   S    
C8    O5    A    
C12   H2    S    
C4    C13   S    
C10   C15   S    
C15   H17   S    
