data_mof_unit_10256.cif
_audit_creation_date              2012-12-10T20:49:44-0500
_audit_creation_method            fapswitch 2.2
_symmetry_space_group_name_H-M    P1
_symmetry_Int_Tables_number       1
_space_group_crystal_system       triclinic
_cell_length_a                    8.099408
_cell_length_b                    8.932821
_cell_length_c                    16.605042
_cell_angle_alpha                 89.999221
_cell_angle_beta                  84.828849
_cell_angle_gamma                 89.999953
_cell_volume                      1196.49437312

loop_
_atom_site_label
_atom_site_type_symbol
_atom_type_description
_atom_site_fract_x
_atom_site_fract_y
_atom_site_fract_z
_atom_type_partial_charge
C1    C     C_R   0.500000 0.782049 0.500000 0.982949
C2    C     C_R   0.500000 0.217941 0.500000 0.907213
C3    C     C_1   0.500000 0.934810 0.500000 -0.156992
C4    C     C_1   0.500000 0.065172 0.500000 -0.165344
C5    C     C_R   0.476539 0.497623 0.654217 0.952293
C6    C     C_R   0.523461 0.497620 0.345783 0.952244
C7    C     C_R   0.460690 0.455609 0.739224 -0.168809
C8    C     C_R   0.539303 0.455608 0.260777 -0.168793
C9    C     C_R   0.571724 0.347136 0.763076 -0.222975
C10   C     C_R   0.428254 0.347149 0.236926 -0.222935
C11   C     C_R   0.555449 0.290326 0.840808 -0.111323
C12   C     C_R   0.444511 0.290346 0.159193 -0.111291
C13   C     C_R   0.429216 0.343046 0.896502 0.105106
C14   C     C_R   0.570744 0.343059 0.103497 0.105119
C15   C     C_R   0.314021 0.447287 0.872653 -0.225022
C16   C     C_R   0.685955 0.447287 0.127344 -0.225023
C17   C     C_R   0.329048 0.505828 0.794277 0.443468
C18   C     C_R   0.670946 0.505822 0.205720 0.443458
C19   C     C_2   0.428625 0.307706 0.982402 -0.164622
C20   C     C_2   0.571330 0.307719 0.017598 -0.164611
H1    H     H_    0.356563 0.207345 0.142186 0.163678
H2    H     H_    0.643383 0.207313 0.857817 0.163680
H3    H     H_    0.670069 0.303775 0.720873 0.186795
H4    H     H_    0.329908 0.303793 0.279130 0.186803
H5    H     H_    0.689036 0.316619 0.980930 0.162144
H6    H     H_    0.310916 0.316596 0.019067 0.162141
N1    N     N_1   0.926360 0.500000 0.499990 0.003308
N2    N     N_1   0.073640 0.500000 0.500010 0.003320
O1    O     O_R   0.363150 0.714660 0.500000 -0.606971
O2    O     O_R   0.636850 0.285340 0.500000 -0.626136
O3    O     O_R   0.636850 0.714660 0.500000 -0.607052
O4    O     O_R   0.363150 0.285340 0.500000 -0.626144
O5    O     O_R   0.346950 0.500000 0.615800 -0.567688
O6    O     O_R   0.653050 0.500000 0.384200 -0.567735
O7    O     O_R   0.620700 0.500000 0.615800 -0.617538
O8    O     O_R   0.379300 0.500000 0.384200 -0.617540
Zn1   Zn    Zn3+2 0.317220 0.500000 0.500010 1.053594
Zn2   Zn    Zn3+2 0.682780 0.500000 0.499990 1.053543
H7    H     H_    0.217144 0.487979 0.916460 0.185356
H8    H     H_    0.782833 0.487974 0.083537 0.185343
S1    S     S_3+6 0.812809 0.645421 0.231097 0.032202
O9    O     O_2   0.944070 0.573843 0.276785 -0.296845
O10   O     O_2   0.893652 0.717744 0.155841 -0.276452
O11   O     O_3   0.712946 0.777095 0.289310 -0.571888
H9    H     H_    0.801755 0.838473 0.310040 0.384518
S2    S     S_3+6 0.187200 0.645438 0.768897 0.032160
O12   O     O_2   0.055941 0.573874 0.723203 -0.296751
O13   O     O_2   0.106355 0.717752 0.844154 -0.276582
O14   O     O_3   0.287062 0.777115 0.710688 -0.571916
H10   H     H_    0.198244 0.838701 0.690115 0.384541

loop_
_geom_bond_atom_site_label_1
_geom_bond_atom_site_label_2
_ccdc_geom_bond_type
C1    C3    S    
C2    C4    S    
C15   C17   A    
C8    C18   A    
C11   C13   A    
S1    O9    D    
C11   H2    S    
C19   C20   D    
O3    Zn2   S    
C2    O2    A    
C7    C9    A    
C1    O1    A    
O4    Zn1   S    
C17   S2    S    
S1    O10   D    
S2    O14   S    
C15   H7    S    
C10   C12   A    
N2    Zn1   S    
C16   H8    S    
C5    O7    A    
C16   C18   A    
O8    Zn1   S    
C12   C14   A    
S2    O13   D    
C9    C11   A    
C13   C15   A    
S1    O11   S    
C14   C16   A    
C20   H5    S    
C13   C19   S    
N1    Zn2   S    
C3    C4    T    
C14   C20   S    
C1    O3    A    
O7    Zn2   S    
O11   H9    S    
O2    Zn2   S    
C2    O4    A    
O14   H10   S    
C18   S1    S    
O1    Zn1   S    
N1    N2    T    
C5    C7    S    
C19   H6    S    
S2    O12   D    
C9    H3    S    
C6    C8    S    
C10   H4    S    
O6    Zn2   S    
C12   H1    S    
C8    C10   A    
O5    Zn1   S    
C6    O6    A    
C6    O8    A    
C7    C17   A    
C5    O5    A    
