data_mof_unit_16637.cif
_audit_creation_date              2013-03-05T16:22:15-0500
_audit_creation_method            fapswitch 2.2
_symmetry_space_group_name_H-M    P1
_symmetry_Int_Tables_number       1
_space_group_crystal_system       triclinic
_cell_length_a                    10.514332
_cell_length_b                    10.530749
_cell_length_c                    9.77314
_cell_angle_alpha                 90.522084
_cell_angle_beta                  89.567804
_cell_angle_gamma                 89.777016
_cell_volume                      1082.03491605

loop_
_atom_site_label
_atom_site_type_symbol
_atom_site_description
_atom_site_fract_x
_atom_site_fract_y
_atom_site_fract_z
_atom_type_partial_charge
O1    O     O_R   0.500010 0.313960 0.616610 -0.593768
O2    O     O_R   0.499990 0.686040 0.383390 -0.593768
O3    O     O_R   0.500060 0.313950 0.383350 -0.624577
O4    O     O_R   0.499940 0.686050 0.616650 -0.624577
C1    C     C_R   0.498245 0.258042 0.499368 1.042333
C2    C     C_R   0.501755 0.741958 0.500632 1.042333
O5    O     O_R   0.313930 0.499970 0.616610 -0.620567
O6    O     O_R   0.686070 0.500030 0.383390 -0.620567
O7    O     O_R   0.313980 0.499960 0.383350 -0.608335
O8    O     O_R   0.686020 0.500040 0.616650 -0.608335
C3    C     C_R   0.257845 0.498554 0.500436 0.992382
C4    C     C_R   0.742155 0.501446 0.499564 0.992382
Zn1   Zn    Zn3+2 0.499970 0.500010 0.655740 1.017023
Zn2   Zn    Zn3+2 0.500030 0.499990 0.344260 1.017023
C5    C     C_3   0.040210 0.498396 0.631470 -0.242059
C6    C     C_3   0.959790 0.501604 0.368530 -0.242059
C7    C     C_3   0.955273 0.395337 0.563611 -0.233480
C8    C     C_3   0.044727 0.604663 0.436389 -0.233480
H1    H     H_    0.915810 0.309414 0.613150 0.225141
H2    H     H_    0.084190 0.690586 0.386850 0.225141
H3    H     H_    0.075272 0.498879 0.738364 0.192318
H4    H     H_    0.924728 0.501121 0.261636 0.192318
C9    C     C_3   0.876753 0.502133 0.498807 -0.146050
C10   C     C_3   0.123247 0.497867 0.501193 -0.146050
C11   C     C_3   0.960220 0.602668 0.564914 0.373804
C12   C     C_3   0.039780 0.397332 0.435086 0.373804
C13   C     C_3   0.603753 0.044389 0.558635 0.383365
C14   C     C_3   0.396247 0.955611 0.441365 0.383365
C15   C     C_3   0.601772 0.960123 0.431001 0.250997
C16   C     C_3   0.398228 0.039877 0.568999 0.250997
C17   C     C_3   0.503447 0.876174 0.502043 -0.219148
C18   C     C_3   0.496553 0.123826 0.497957 -0.219148
C19   C     C_3   0.505475 0.960189 0.632904 -0.355336
C20   C     C_3   0.494525 0.039811 0.367096 -0.355336
H5    H     H_    0.510828 0.926656 0.740097 0.207671
H6    H     H_    0.489172 0.073344 0.259903 0.207671
C21   C     C_3   0.466739 0.390456 0.047778 -0.047699
C22   C     C_3   0.533261 0.609544 0.952222 -0.047699
C23   C     C_3   0.578440 0.416086 0.949834 -0.074555
C24   C     C_3   0.421559 0.583914 0.050166 -0.074555
H7    H     H_    0.644486 0.345407 0.902746 0.163101
H8    H     H_    0.355514 0.654593 0.097254 0.163101
H9    H     H_    0.438595 0.298155 0.092667 0.160143
H10   H     H_    0.561405 0.701845 0.907333 0.160143
N1    N     N_3   0.499910 0.500030 0.863290 -0.093829
N2    N     N_3   0.500090 0.499970 0.136710 -0.093829
C25   C     C_3   0.388202 0.474401 0.952158 -0.054049
C26   C     C_3   0.611798 0.525599 0.047842 -0.054049
H11   H     H_    0.293978 0.452691 0.907269 0.157247
H12   H     H_    0.706022 0.547309 0.092731 0.157247
N3    N     N_R   0.917851 0.717295 0.636955 0.225721
O9    O     O_R   0.001546 0.793875 0.689176 -0.310167
O10   O     O_R   0.797558 0.744370 0.649264 -0.405118
N4    N     N_R   0.082149 0.282705 0.363045 0.225721
O11   O     O_R   0.998454 0.206124 0.310824 -0.310167
O12   O     O_R   0.202442 0.255630 0.350736 -0.405118
N5    N     N_R   0.716139 0.918674 0.357762 0.239331
O13   O     O_R   0.790386 0.002617 0.302527 -0.291207
O14   O     O_R   0.745186 0.798859 0.347314 -0.382583
N6    N     N_R   0.283861 0.081326 0.642238 0.239331
O15   O     O_R   0.209614 0.997383 0.697473 -0.291207
O16   O     O_R   0.254813 0.201141 0.652686 -0.382583
O17   O     O_3   0.713040 0.096127 0.617327 -0.721328
H13   H     H_    0.764031 0.022297 0.647492 0.393280
O18   O     O_3   0.286960 0.903873 0.382673 -0.721328
H14   H     H_    0.235969 0.977703 0.352508 0.393280

loop_
_geom_bond_atom_site_label_1
_geom_bond_atom_site_label_2
_geom_bond_distance
_ccdc_geom_bond_type
C24   C25   1.535764 S    
C22   C24   1.535807 S    
C13   C15   1.524541 S    
Zn2   N2    2.028408 S    
C13   C19   1.545440 S    
C24   N2    1.482254 S    
C4    C9    1.415218 S    
C7    C9    1.536610 S    
O1    C1    1.283787 A    
C7    C12   1.533461 S    
C10   C12   1.520444 S    
N5    O14   1.299953 A    
C3    C10   1.415218 S    
C8    H2    1.110486 S    
N6    O16   1.299953 A    
O4    Zn1   1.999454 S    
C22   N1    1.482527 S    
C7    H1    1.110486 S    
C16   N6    1.458111 S    
O6    Zn2   1.995949 S    
C17   C19   1.548804 S    
C21   C25   1.535468 S    
C22   C26   1.535468 S    
C23   N1    1.482254 S    
C1    C18   1.413522 S    
C24   H8    1.110363 S    
C2    C17   1.413522 S    
C14   C20   1.545440 S    
C15   C17   1.529657 S    
O2    C2    1.283787 A    
C8    C11   1.533461 S    
C12   N4    1.458378 S    
N2    C26   1.482585 S    
N1    C25   1.482585 S    
C6    C12   1.533060 S    
N4    O12   1.299911 A    
N3    O9    1.300012 A    
C16   C18   1.529657 S    
C25   H11   1.110279 S    
C15   C20   1.542285 S    
N6    O15   1.299987 A    
N3    O10   1.299911 A    
C18   C20   1.548804 S    
C21   H9    1.110339 S    
O5    C3    1.283324 A    
O7    Zn2   1.990318 S    
C11   N3    1.458378 S    
C22   H10   1.110339 S    
O5    Zn1   1.995950 S    
O6    C4    1.283324 A    
O7    C3    1.283821 A    
O3    Zn2   1.999454 S    
O8    C4    1.283821 A    
O4    C2    1.282405 A    
C5    C10   1.538318 S    
C15   N5    1.458111 S    
C6    C9    1.538318 S    
C8    C10   1.536610 S    
O1    Zn1   1.992795 S    
C5    C7    1.555179 S    
N4    O11   1.300012 A    
C6    H4    1.110423 S    
C16   C19   1.542285 S    
C13   C18   1.527634 S    
C14   C17   1.527634 S    
O3    C1    1.282405 A    
O8    Zn1   1.990317 S    
C14   C16   1.524541 S    
C14   O18   1.398350 S    
C21   C23   1.535807 S    
Zn1   N1    2.028408 S    
N5    O13   1.299987 A    
C26   H12   1.110279 S    
C19   H5    1.110331 S    
C20   H6    1.110331 S    
C9    C11   1.520444 S    
O2    Zn2   1.992795 S    
C5    C11   1.533060 S    
O17   H13   0.991035 S    
C5    H3    1.110423 S    
C23   H7    1.110363 S    
C6    C8    1.555179 S    
O18   H14   0.991036 S    
C13   O17   1.398350 S    
C21   N2    1.482527 S    
C23   C26   1.535764 S    
