data_mof_unit_40109.cif
_audit_creation_date              2012-12-11T14:17:46-0500
_audit_creation_method            fapswitch 2.2
_symmetry_space_group_name_H-M    P1
_symmetry_Int_Tables_number       1
_space_group_crystal_system       triclinic
_cell_length_a                    6.947001
_cell_length_b                    13.677161
_cell_length_c                    20.454405
_cell_angle_alpha                 102.016561
_cell_angle_beta                  91.026781
_cell_angle_gamma                 90.858713
_cell_volume                      1900.24045137

loop_
_atom_site_label
_atom_site_type_symbol
_atom_type_description
_atom_site_fract_x
_atom_site_fract_y
_atom_site_fract_z
_atom_type_partial_charge
O1    O     O_R   0.506860 0.599390 0.449240 -0.536724
O2    O     O_R   0.180220 0.594600 0.586780 -0.551940
O3    O     O_R   0.004500 0.400610 0.550760 -0.538752
C1    C     C_R   0.348737 0.615528 0.613936 0.740040
O4    O     O_R   0.177490 0.611290 0.451970 -0.542793
O5    O     O_R   0.001750 0.417420 0.414990 -0.547885
C2    C     C_R   0.345956 0.636511 0.433968 0.687329
O6    O     O_R   0.509610 0.582580 0.585010 -0.538023
O7    O     O_3   0.337420 0.436370 0.488020 -0.371459
V1    V     V_3+5 0.064680 0.511800 0.502220 1.399099
O8    O     O_R   0.671710 0.405400 0.413220 -0.537308
C3    C     C_R   0.834508 0.384820 0.385899 0.728277
O9    O     O_R   0.674440 0.388710 0.548030 -0.537244
C4    C     C_R   0.843012 0.362308 0.564390 0.708744
V2    V     V_3+5 0.564010 0.488200 0.497780 1.420906
O10   O     O_3   0.841140 0.563630 0.511980 -0.376783
C5    C     C_R   0.828706 0.112866 0.610182 0.157670
H1    H     H_    0.854502 0.168808 0.519818 0.124224
H2    H     H_    0.745836 0.992699 0.694365 0.130819
C6    C     C_R   0.849257 0.288237 0.605890 -0.141110
C7    C     C_R   0.919648 0.311853 0.927319 0.219913
C8    C     C_R   0.972809 0.382658 0.889334 0.304516
C9    C     C_R   0.953125 0.357795 0.820020 -0.114536
C10   C     C_R   0.875566 0.264511 0.785914 -0.025594
C11   C     C_R   0.839778 0.189585 0.823408 -0.048093
C12   C     C_R   0.849013 0.241502 0.714744 0.046108
C13   C     C_R   0.822665 0.139965 0.681121 0.028099
C14   C     C_R   0.783026 0.068338 0.718871 -0.266387
C15   C     C_R   0.783029 0.092204 0.788720 0.329950
C16   C     C_R   0.840964 0.316528 0.676225 0.285896
C17   C     C_R   0.848562 0.188051 0.573942 -0.243857
C18   C     C_R   0.866042 0.214250 0.894347 -0.157813
H3    H     H_    0.013121 0.411117 0.793487 0.196746
C19   C     C_2   0.956782 0.321251 0.272483 -0.197728
C20   C     C_2   0.815356 0.319716 0.317196 -0.000348
H4    H     H_    0.073902 0.375433 0.286294 0.114923
C21   C     C_2   0.956873 0.261955 0.202086 -0.132629
C22   C     C_2   0.880900 0.168857 0.182814 -0.309594
H5    H     H_    0.025800 0.296389 0.165032 0.155457
H6    H     H_    0.826072 0.128233 0.218764 0.123902
C23   C     C_2   0.206403 0.771633 0.788934 -0.108651
C24   C     C_2   0.361352 0.822340 0.818218 -0.349213
H7    H     H_    0.077618 0.772925 0.818269 0.158971
H8    H     H_    0.491993 0.821189 0.790274 0.130533
C25   C     C_2   0.195947 0.722789 0.716063 0.161673
C26   C     C_2   0.352955 0.676422 0.683890 -0.372096
H9    H     H_    0.487859 0.677034 0.711470 0.140080
C27   C     C_R   0.382952 0.890430 0.389018 -0.125826
H10   H     H_    0.390215 0.968303 0.414459 0.177342
C28   C     C_R   0.356798 0.716435 0.395983 -0.121649
C29   C     C_R   0.382716 0.686544 0.073855 -0.277292
C30   C     C_R   0.430901 0.612582 0.109245 0.358157
C31   C     C_R   0.457716 0.638058 0.179578 0.115588
C32   C     C_R   0.397202 0.734546 0.215018 0.008230
C33   C     C_R   0.368210 0.810461 0.177465 -0.007433
C34   C     C_R   0.377958 0.761311 0.286177 0.031738
C35   C     C_R   0.376633 0.863730 0.318672 0.031164
C36   C     C_R   0.363097 0.938162 0.280917 0.334311
C37   C     C_R   0.351468 0.910613 0.211076 -0.258778
C38   C     C_R   0.347438 0.689939 0.325964 -0.242311
C39   C     C_R   0.380126 0.818007 0.428006 0.306677
C40   C     C_R   0.363883 0.785703 0.106702 -0.094897
H11   H     H_    0.305960 0.614160 0.303380 0.115341
H12   H     H_    0.374348 0.668065 0.019678 0.124682
H13   H     H_    0.332926 0.968963 0.183081 0.109128
O11   O     O_R   0.203230 0.917310 0.915020 -0.541038
O12   O     O_R   0.535500 0.888690 0.048040 -0.545724
O13   O     O_R   0.711080 0.082610 0.085000 -0.545789
C41   C     C_R   0.367380 0.862919 0.065835 0.704602
O14   O     O_R   0.532630 0.905370 0.913230 -0.530425
O15   O     O_R   0.708190 0.099410 0.949230 -0.520627
C42   C     C_R   0.363305 0.884061 0.886765 0.775368
O16   O     O_R   0.206120 0.900510 0.050790 -0.545654
O17   O     O_3   0.375360 0.063570 0.011990 -0.374223
V3    V     V_3+5 0.648170 0.988200 0.997780 1.488708
O18   O     O_R   0.038240 0.111390 0.951940 -0.545401
C43   C     C_R   0.869798 0.137117 0.934598 0.896722
O19   O     O_R   0.041120 0.094710 0.086750 -0.543677
C44   C     C_R   0.876066 0.114740 0.113184 0.755658
V4    V     V_3+5 0.148810 0.011930 0.002180 1.478829
O20   O     O_3   0.871750 0.936430 0.988010 -0.377849
C45   C     C_3   0.627413 0.257978 0.295604 -0.365349
C46   C     C_3   0.435535 0.299362 0.323549 -0.671827
H14   H     H_    0.416386 0.288291 0.375294 0.249397
H15   H     H_    0.422142 0.379239 0.320694 0.211545
H16   H     H_    0.316929 0.256338 0.293092 0.196286
H17   H     H_    0.601662 0.250096 0.241179 0.207979
H18   H     H_    0.643888 0.182929 0.307505 0.193298
C47   C     C_3   0.003237 0.725967 0.679184 -0.261034
C48   C     C_3   0.857722 0.798126 0.716400 -0.861221
H19   H     H_    0.799868 0.769191 0.759004 0.229127
H20   H     H_    0.927519 0.872490 0.734647 0.249903
H21   H     H_    0.735655 0.805893 0.682143 0.221286
H22   H     H_    0.030050 0.751148 0.631817 0.185883
H23   H     H_    0.934727 0.650198 0.667912 0.192574
O21   O     O_3   0.394291 0.850571 0.496618 -0.666256
H24   H     H_    0.390927 0.792890 0.518804 0.269777
O22   O     O_3   0.352260 0.037216 0.313276 -0.661245
H25   H     H_    0.334445 0.079079 0.279582 0.285216
C49   C     C_3   0.585926 0.569344 0.211415 -0.312006
C50   C     C_3   0.767225 0.623571 0.245331 -0.747516
H26   H     H_    0.846508 0.659552 0.209632 0.232482
H27   H     H_    0.731875 0.681220 0.289892 0.238695
H28   H     H_    0.863345 0.568873 0.261987 0.208640
H29   H     H_    0.509207 0.530864 0.245766 0.155027
H30   H     H_    0.638911 0.506435 0.173006 0.229705
O23   O     O_3   0.463209 0.515774 0.075517 -0.652713
H31   H     H_    0.441368 0.510753 0.026875 0.295356
C51   C     C_3   0.816529 0.005385 0.571094 -0.346579
C52   C     C_3   0.002824 0.950326 0.578330 -0.711340
H32   H     H_    0.125432 0.988810 0.559484 0.255086
H33   H     H_    0.033249 0.947181 0.631258 0.225008
H34   H     H_    0.990168 0.872667 0.548520 0.225117
H35   H     H_    0.691110 0.965008 0.586490 0.197310
H36   H     H_    0.791618 0.002899 0.516895 0.192850
O24   O     O_3   0.802865 0.414017 0.707785 -0.655290
H37   H     H_    0.812129 0.460108 0.676602 0.276694
O25   O     O_3   0.925455 0.334054 0.996437 -0.656296
H38   H     H_    0.899346 0.406044 0.012093 0.306513
O26   O     O_3   0.054560 0.474846 0.917366 -0.646179
H39   H     H_    0.115516 0.471809 0.960983 0.295790
O27   O     O_3   0.729316 0.019967 0.823157 -0.650909
H40   H     H_    0.668087 0.962640 0.791865 0.278247

loop_
_geom_bond_atom_site_label_1
_geom_bond_atom_site_label_2
_ccdc_geom_bond_type
C22   H6    S    
C50   H26   S    
C33   C37   A    
C19   C21   S    
C23   C24   D    
C32   C33   A    
C36   O22   S    
C1    O6    A    
C48   H19   S    
C39   O21   S    
C27   C35   A    
C16   O24   S    
C25   C26   D    
O24   H37   S    
O13   V3    S    
C8    O26   S    
C49   H29   S    
C21   C22   D    
C38   H11   S    
C14   C15   A    
C10   C12   A    
O5    C3    A    
O19   V4    S    
C22   C44   S    
V2    O10   S    
O22   H25   S    
C33   C40   A    
C34   C35   A    
C19   C20   D    
C47   H22   S    
O25   H38   S    
C18   C43   S    
C52   H32   S    
O8    V2    S    
O11   C42   A    
C30   O23   S    
C9    H3    S    
O23   H31   S    
C41   O16   A    
O1    V2    S    
C25   C47   S    
O7    V1    S    
O13   C44   A    
C50   H27   S    
O17   V4    S    
C7    C8    A    
O21   H24   S    
C23   H7    S    
C29   C40   A    
C24   H8    S    
C20   C45   S    
C35   C36   A    
C8    C9    A    
C31   C49   S    
C11   C15   A    
C7    C18   A    
C32   C34   A    
O17   V3    S    
C29   C30   A    
C5    C13   A    
C4    C6    S    
C10   C11   A    
O4    C2    A    
O19   C44   A    
V3    O20   S    
C1    C26   S    
C36   C37   A    
C31   C32   A    
C34   C38   A    
C40   C41   S    
O12   C41   A    
C47   H23   S    
O2    C1    A    
C7    O25   S    
C48   H20   S    
C46   H14   S    
C9    C10   A    
C15   O27   S    
C24   C42   S    
C12   C13   A    
O18   C43   A    
C3    C20   S    
H2    C14   S    
C52   H34   S    
O3    C4    A    
C51   H35   S    
C27   H10   S    
C46   H15   S    
C12   C16   A    
O6    V2    S    
O9    V2    S    
C5    C17   A    
O12   V3    S    
O2    V1    S    
O15   C43   A    
C30   C31   A    
C48   H21   S    
C26   H9    S    
O1    C2    A    
C29   H12   S    
O18   V4    S    
C2    C28   S    
V4    O20   S    
C5    C51   S    
O5    V1    S    
O8    C3    A    
C50   H28   S    
O11   V4    S    
C49   H30   S    
C28   C38   A    
O7    V2    S    
O4    V1    S    
C21   H5    S    
O3    V1    S    
V1    O10   S    
C51   C52   S    
C6    C16   A    
O15   V3    S    
C27   C39   A    
C11   C18   A    
C45   H18   S    
C49   C50   S    
O16   V4    S    
C19   H4    S    
C52   H33   S    
C51   H36   S    
C46   H16   S    
C45   C46   S    
O14   V3    S    
O27   H40   S    
C28   C39   A    
C23   C25   S    
O26   H39   S    
O14   C42   A    
H1    C17   S    
C47   C48   S    
O9    C4    A    
C37   H13   S    
C45   H17   S    
C13   C14   A    
C6    C17   A    
