data_mof_unit_41027.cif
_audit_creation_date              2012-10-26T19:23:26-0400
_audit_creation_method            fapswitch 2.2
_symmetry_space_group_name_H-M    P1
_symmetry_Int_Tables_number       1
_space_group_crystal_system       triclinic
_cell_length_a                    27.703786
_cell_length_b                    12.993068
_cell_length_c                    11.837511
_cell_angle_alpha                 100.152894
_cell_angle_beta                  92.659989
_cell_angle_gamma                 91.858097
_cell_volume                      4186.18034054

loop_
_atom_site_label
_atom_site_type_symbol
_atom_type_description
_atom_site_fract_x
_atom_site_fract_y
_atom_site_fract_z
_atom_type_partial_charge
C1    C     C_R   0.498919 0.299206 0.478102 0.546110
C2    C     C_R   0.871650 0.391896 0.500880 0.034009
C3    C     C_R   0.355210 0.496921 0.506446 0.025525
C4    C     C_R   0.644910 0.496310 0.498102 0.055414
C5    C     C_R   0.973828 0.390865 0.533572 0.002351
C6    C     C_R   0.026828 0.580377 0.561425 0.002312
C7    C     C_R   0.976954 0.581117 0.584643 0.015458
C8    C     C_R   0.025002 0.391290 0.552588 0.014355
C9    C     C_R   0.949694 0.486008 0.556085 0.006320
C10   C     C_R   0.051363 0.486000 0.552789 0.005122
C11   C     C_R   0.946685 0.299268 0.486599 -0.139944
C12   C     C_R   0.500880 0.700555 0.521717 0.525667
C13   C     C_R   0.051968 0.670137 0.541130 -0.137638
C14   C     C_R   0.896310 0.296888 0.473513 0.002467
C15   C     C_R   0.101770 0.672536 0.527099 0.006892
C16   C     C_R   0.407904 0.499253 0.501428 0.529370
C17   C     C_R   0.592177 0.500516 0.499166 0.581287
C18   C     C_R   0.050649 0.301179 0.568353 0.094147
C19   C     C_R   0.953573 0.672748 0.633957 0.092678
C20   C     C_R   0.500666 0.814128 0.534693 -0.024070
C21   C     C_R   0.497356 0.185049 0.464476 -0.022808
C22   C     C_R   0.489824 0.012245 0.343525 -0.006684
C23   C     C_R   0.102054 0.486797 0.544169 -0.060292
C24   C     C_R   0.499959 0.985461 0.654980 -0.004140
C25   C     C_R   0.491034 0.121761 0.355534 -0.120158
C26   C     C_R   0.501107 0.876834 0.643414 -0.126000
C27   C     C_R   0.501128 0.139772 0.562430 -0.149167
C28   C     C_R   0.498314 0.859322 0.436539 -0.156168
C29   C     C_R   0.499190 0.031472 0.554662 0.040066
C30   C     C_R   0.496012 0.967445 0.444112 0.030825
C31   C     C_R   0.447117 0.420967 0.027904 -0.168330
C32   C     C_R   0.550679 0.586999 0.973125 -0.162132
C33   C     C_R   0.453923 0.422292 0.146766 0.232990
C34   C     C_R   0.898577 0.485998 0.547957 -0.059994
C35   C     C_R   0.545113 0.581125 0.853093 0.225900
C36   C     C_R   0.523602 0.534718 0.152737 0.222550
C37   C     C_R   0.475614 0.467751 0.847375 0.217813
C38   C     C_R   0.518482 0.531639 0.031901 0.001341
C39   C     C_R   0.480188 0.473133 0.968553 -0.005632
C40   C     C_R   0.178697 0.405676 0.560703 0.384436
C41   C     C_R   0.823263 0.573453 0.581363 0.382931
C42   C     C_R   0.176647 0.571424 0.502456 0.383671
C43   C     C_R   0.821442 0.398284 0.478720 0.386283
C44   C     C_R   0.281907 0.581922 0.568296 -0.026157
C45   C     C_R   0.127570 0.395804 0.553552 0.006200
C46   C     C_R   0.717556 0.409608 0.545509 -0.061670
C47   C     C_R   0.331777 0.587540 0.557501 0.066430
C48   C     C_R   0.667174 0.412644 0.538225 0.056653
C49   C     C_R   0.328264 0.401455 0.468439 -0.053655
C50   C     C_R   0.673639 0.577100 0.465096 -0.063996
C51   C     C_R   0.277548 0.402124 0.469279 -0.055906
C52   C     C_R   0.723978 0.568750 0.466501 -0.057630
C53   C     C_R   0.254129 0.491175 0.521063 0.189899
C54   C     C_R   0.746235 0.487175 0.509552 0.209085
C55   C     C_3   0.354741 0.300250 0.434577 -0.253078
C56   C     C_R   0.874525 0.579986 0.585253 0.002244
C57   C     C_3   0.323369 0.198256 0.413451 -0.317645
C58   C     C_3   0.354728 0.102949 0.390560 -0.447184
C59   C     C_3   0.652597 0.675837 0.435270 -0.272062
C60   C     C_3   0.667475 0.771473 0.527725 -0.294884
C61   C     C_3   0.644488 0.870112 0.500587 -0.453052
C62   C     C_3   0.480548 0.941237 0.226727 -0.258265
C63   C     C_3   0.464776 0.993291 0.125462 -0.314358
C64   C     C_3   0.451101 0.909861 0.019585 -0.448218
C65   C     C_3   0.495960 0.048822 0.774164 -0.261779
C66   C     C_3   0.444744 0.089791 0.787971 -0.293529
C67   C     C_R   0.101420 0.300631 0.560138 0.053649
C68   C     C_3   0.442368 0.169341 0.897988 -0.458989
C69   C     C_3   0.125653 0.195127 0.545681 -0.206247
C70   C     C_3   0.144681 0.166002 0.424515 -0.295493
C71   C     C_3   0.171720 0.064577 0.410858 -0.459638
C72   C     C_3   0.879622 0.780964 0.661915 -0.198267
C73   C     C_3   0.859224 0.820594 0.555035 -0.288972
C74   C     C_3   0.833173 0.922404 0.588089 -0.457128
C75   C     C_3   0.871464 0.189051 0.440502 -0.221574
C76   C     C_3   0.867811 0.153064 0.309727 -0.268159
C77   C     C_3   0.841296 0.046401 0.277016 -0.449669
C78   C     C_R   0.902481 0.674748 0.628619 0.045217
C79   C     C_3   0.126118 0.779591 0.528371 -0.221758
C80   C     C_3   0.156709 0.815823 0.640975 -0.276481
C81   C     C_3   0.182315 0.921803 0.643062 -0.451713
C82   C     C_R   0.127215 0.578710 0.525294 0.039433
Cu1   Cu    Cu3+1 0.503580 0.507730 0.615930 0.973325
Cu2   Cu    Cu3+1 0.496420 0.492270 0.384070 0.957623
H1    H     H_    0.501426 0.841017 0.719482 0.131231
H2    H     H_    0.032531 0.739188 0.533039 0.111211
H3    H     H_    0.498472 0.808679 0.353830 0.124970
H4    H     H_    0.505600 0.190377 0.645219 0.138751
H5    H     H_    0.375960 0.105290 0.313657 0.154155
H6    H     H_    0.379968 0.100887 0.465823 0.160245
H7    H     H_    0.331308 0.030342 0.374806 0.147852
H8    H     H_    0.302267 0.193121 0.490057 0.185186
H9    H     H_    0.298021 0.196468 0.337472 0.155612
H10   H     H_    0.374232 0.304681 0.356247 0.179533
H11   H     H_    0.382160 0.295042 0.504863 0.146279
H12   H     H_    0.487133 0.158519 0.280713 0.133765
H13   H     H_    0.655961 0.886245 0.416521 0.153911
H14   H     H_    0.604454 0.860873 0.497806 0.164957
H15   H     H_    0.656090 0.937932 0.568423 0.146239
H16   H     H_    0.655718 0.757676 0.612578 0.181027
H17   H     H_    0.707436 0.784452 0.533633 0.177869
H18   H     H_    0.665234 0.687845 0.350576 0.145286
H19   H     H_    0.612665 0.669906 0.427955 0.155392
H20   H     H_    0.483418 0.866528 0.989832 0.150015
H21   H     H_    0.422971 0.853658 0.039197 0.161830
H22   H     H_    0.436043 0.946949 0.949308 0.147970
H23   H     H_    0.415980 0.377458 0.982723 0.134740
H24   H     H_    0.432784 0.040912 0.147377 0.153360
H25   H     H_    0.494935 0.044375 0.105199 0.156045
H26   H     H_    0.513811 0.898005 0.204637 0.143404
H27   H     H_    0.450923 0.883792 0.235680 0.150056
H28   H     H_    0.452653 0.134761 0.974089 0.145178
H29   H     H_    0.467611 0.236681 0.895076 0.174837
H30   H     H_    0.404930 0.196618 0.906097 0.147803
H31   H     H_    0.433115 0.128100 0.715071 0.166398
H32   H     H_    0.418532 0.023438 0.788812 0.162558
H33   H     H_    0.503529 0.000314 0.840955 0.133504
H34   H     H_    0.580140 0.635942 0.019416 0.133315
H35   H     H_    0.523996 0.113486 0.790854 0.139955
H36   H     H_    0.443617 0.358876 0.715600 0.264697
H37   H     H_    0.408456 0.462444 0.768959 0.262821
H38   H     H_    0.554410 0.646555 0.281511 0.258427
H39   H     H_    0.590346 0.542076 0.233540 0.254332
H40   H     H_    0.612427 0.622035 0.814561 0.213540
H41   H     H_    0.573910 0.721187 0.834022 0.193830
H42   H     H_    0.386695 0.382455 0.185387 0.209882
H43   H     H_    0.424328 0.281990 0.161385 0.188195
H44   H     H_    0.203475 0.073236 0.473094 0.163452
H45   H     H_    0.255715 0.332974 0.432331 0.137751
H46   H     H_    0.147375 0.998845 0.424681 0.146899
H47   H     H_    0.184788 0.046140 0.322584 0.147029
H48   H     H_    0.113669 0.156270 0.359939 0.153151
H49   H     H_    0.169520 0.228560 0.405250 0.181895
H50   H     H_    0.154213 0.194242 0.614023 0.197590
H51   H     H_    0.100207 0.130381 0.556299 0.148251
H52   H     H_    0.802155 0.909963 0.641037 0.170917
H53   H     H_    0.858415 0.984275 0.637176 0.144740
H54   H     H_    0.819239 0.949245 0.509186 0.137132
H55   H     H_    0.889477 0.834639 0.500366 0.144822
H56   H     H_    0.746288 0.628626 0.438623 0.129184
H57   H     H_    0.833593 0.761732 0.502583 0.189592
H58   H     H_    0.852485 0.778432 0.727225 0.195557
H59   H     H_    0.905982 0.842357 0.706545 0.156751
H60   H     H_    0.646952 0.259836 0.523473 0.227597
H61   H     H_    0.648291 0.328732 0.658884 0.228577
H62   H     H_    0.343569 0.741276 0.555001 0.226918
H63   H     H_    0.394043 0.683765 0.586619 0.245644
H64   H     H_    0.860846 0.986752 0.315809 0.143574
H65   H     H_    0.803911 0.050484 0.307178 0.166533
H66   H     H_    0.839334 0.022071 0.182119 0.145937
H67   H     H_    0.734430 0.347107 0.580409 0.132006
H68   H     H_    0.848353 0.210644 0.267502 0.213545
H69   H     H_    0.904742 0.147263 0.276790 0.146553
H70   H     H_    0.892718 0.131665 0.479475 0.112144
H71   H     H_    0.835748 0.185567 0.478501 0.185640
H72   H     H_    0.207182 0.916773 0.571546 0.164626
H73   H     H_    0.155471 0.982188 0.635497 0.147591
H74   H     H_    0.203857 0.945515 0.725563 0.148627
H75   H     H_    0.132829 0.822200 0.714648 0.155967
H76   H     H_    0.184422 0.758393 0.653017 0.186419
H77   H     H_    0.147406 0.780294 0.451585 0.199732
H78   H     H_    0.264526 0.649994 0.612245 0.148867
H79   H     H_    0.098604 0.839221 0.522595 0.108688
H80   H     H_    0.997294 0.241668 0.658265 0.244748
H81   H     H_    0.018028 0.154651 0.545987 0.209854
H82   H     H_    0.013124 0.734739 0.739197 0.246095
H83   H     H_    0.986770 0.818773 0.659821 0.214911
H84   H     H_    0.964561 0.228338 0.454929 0.114344
N1    N     N_R   0.202032 0.489083 0.527682 -0.389378
N2    N     N_3   0.357236 0.686035 0.601145 -0.633252
N3    N     N_3   0.027525 0.216882 0.612858 -0.657164
N4    N     N_3   0.980559 0.758516 0.705938 -0.658281
N5    N     N_R   0.798277 0.486368 0.522792 -0.385806
N6    N     N_R   0.508960 0.519350 0.790140 -0.184596
N7    N     N_R   0.491040 0.480650 0.209860 -0.183021
N8    N     N_3   0.434223 0.410370 0.787920 -0.654551
N9    N     N_3   0.564651 0.593110 0.211827 -0.663314
N10   N     N_3   0.576982 0.642487 0.797434 -0.556286
N11   N     N_3   0.421994 0.360168 0.200804 -0.575092
N12   N     N_3   0.638440 0.331112 0.573069 -0.616112
O1    O     O_R   0.502540 0.354460 0.582000 -0.518965
O2    O     O_2   0.798013 0.651595 0.637410 -0.541988
O3    O     O_2   0.795855 0.319297 0.410546 -0.538223
O4    O     O_2   0.199131 0.643995 0.452817 -0.535945
O5    O     O_R   0.497460 0.645540 0.418000 -0.528702
O6    O     O_R   0.496500 0.341410 0.386200 -0.478461
O7    O     O_R   0.503500 0.658590 0.613800 -0.481377
O8    O     O_R   0.433290 0.506540 0.597890 -0.518759
O9    O     O_R   0.566710 0.493460 0.402110 -0.526281
O10   O     O_R   0.427240 0.493490 0.402090 -0.466896
O11   O     O_R   0.572760 0.506510 0.597910 -0.439790
O12   O     O_2   0.205077 0.335123 0.604102 -0.535511

loop_
_geom_bond_atom_site_label_1
_geom_bond_atom_site_label_2
_ccdc_geom_bond_type
H81   N3    S    
H38   N9    S    
C66   C68   S    
C34   C56   A    
C69   H50   S    
C23   C45   A    
C57   H8    S    
C33   N11   S    
C73   C74   S    
Cu2   O6    S    
C61   H14   S    
C42   C82   A    
H39   N9    S    
C51   H45   S    
C64   H21   S    
C73   H57   S    
C1    O6    A    
C17   O11   A    
C1    C21   S    
C74   H54   S    
C6    C13   A    
C29   C30   A    
C81   H72   S    
C66   H32   S    
C27   H4    S    
C50   C59   S    
C54   N5    S    
Cu1   O11   S    
C23   C82   A    
C24   C26   A    
C5    C11   A    
C38   C39   A    
C11   C14   A    
C80   H76   S    
H37   N8    S    
C27   C29   A    
C76   H68   S    
H62   N2    S    
C76   H69   S    
C56   C78   A    
Cu1   O1    S    
C64   H20   S    
C68   H28   S    
C3    C47   A    
C24   C29   A    
C72   C78   S    
C37   N6    A    
C44   C53   A    
H36   N8    S    
C15   C79   S    
C62   H27   S    
H60   N12   S    
C49   C51   A    
C22   C25   A    
C40   O12   S    
C13   H2    S    
C45   C67   A    
C70   H49   S    
C50   C52   A    
C31   C33   A    
Cu2   O10   S    
C70   C71   S    
C32   C38   A    
Cu2   N7    S    
C58   H7    S    
H40   N10   S    
C46   C54   A    
C44   C47   A    
C53   N1    S    
C68   H29   S    
C2    C34   A    
C35   N10   S    
C46   H67   S    
C21   C27   A    
C59   C60   S    
C69   H51   S    
C57   H9    S    
H82   N4    S    
C59   H18   S    
Cu1   O7    S    
Cu2   O5    S    
C61   H15   S    
C44   H78   S    
C79   H77   S    
C55   H10   S    
C33   N7    A    
C40   N1    A    
C52   C54   A    
C15   C82   A    
C3    C49   A    
C40   C45   A    
C74   H53   S    
C46   C48   A    
C81   H73   S    
C66   H31   S    
C32   C35   A    
H42   N11   S    
C76   C77   S    
C55   H11   S    
C21   C25   A    
C16   O8    A    
C77   H65   S    
C1    O1    A    
C72   C73   S    
C80   H75   S    
C73   H55   S    
C42   O4    S    
C18   C67   A    
C49   C55   S    
C12   O7    A    
C8    C18   A    
C63   C64   S    
C4    C50   A    
C60   C61   S    
C67   C69   S    
C63   H25   S    
C19   C78   A    
C72   H58   S    
C75   C76   S    
C41   C56   A    
C5    C9    A    
C62   C63   S    
C42   N1    A    
C22   C62   S    
Cu1   Cu2   S    
C62   H26   S    
C2    C43   A    
C12   C20   S    
C28   H3    S    
C70   H48   S    
C65   H35   S    
Cu2   O9    S    
C19   N4    S    
C79   H79   S    
C58   H6    S    
C77   H64   S    
C6    C7    A    
C16   O10   A    
C24   C65   S    
C25   H12   S    
C4    C17   S    
C7    C19   A    
C13   C15   A    
C9    C34   A    
C71   H44   S    
C60   H17   S    
C18   N3    S    
C48   N12   S    
C47   N2    S    
C4    C48   A    
C7    C9    A    
C41   N5    A    
C81   H74   S    
C22   C30   A    
C35   N6    A    
C31   H23   S    
C74   H52   S    
C61   H13   S    
C36   N9    S    
C32   H34   S    
C80   C81   S    
C60   H16   S    
C37   N8    S    
C77   H66   S    
C6    C10   A    
C5    C8    A    
H63   N2    S    
C64   H22   S    
H83   N4    S    
C10   C23   A    
C20   C28   A    
C59   H19   S    
C14   C75   S    
C55   C57   S    
H43   N11   S    
C28   C30   A    
C37   C39   A    
C36   C38   A    
C43   N5    A    
C75   H70   S    
Cu1   O8    S    
C57   C58   S    
C11   H84   S    
C72   H59   S    
C20   C26   A    
C26   H1    S    
C12   O5    A    
H61   N12   S    
C43   O3    S    
C52   H56   S    
C31   C39   A    
C69   C70   S    
C2    C14   A    
C58   H5    S    
C51   C53   A    
C71   H47   S    
C79   C80   S    
C75   H71   S    
C17   O9    A    
C36   N7    A    
C8    C10   A    
C65   C66   S    
Cu1   N6    S    
H41   N10   S    
C65   H33   S    
H80   N3    S    
C41   O2    S    
C63   H24   S    
C3    C16   S    
C68   H30   S    
C71   H46   S    
