data_mof_unit_28328.cif
_audit_creation_date              2012-12-10T21:41:35-0500
_audit_creation_method            fapswitch 2.2
_symmetry_space_group_name_H-M    P1
_symmetry_Int_Tables_number       1
_space_group_crystal_system       triclinic
_cell_length_a                    23.913249
_cell_length_b                    23.682373
_cell_length_c                    16.07861
_cell_angle_alpha                 90.224517
_cell_angle_beta                  93.044873
_cell_angle_gamma                 89.905707
_cell_volume                      9092.74406367

loop_
_atom_site_label
_atom_site_type_symbol
_atom_type_description
_atom_site_fract_x
_atom_site_fract_y
_atom_site_fract_z
_atom_type_partial_charge
C1    C     C_R   0.576194 0.076882 0.511121 0.886096
C2    C     C_R   0.422847 0.924253 0.488694 0.883530
C3    C     C_R   0.423948 0.077038 0.489085 0.884278
C4    C     C_R   0.575621 0.922526 0.510771 0.884100
C5    C     C_R   0.075470 0.577422 0.511022 0.883999
C6    C     C_R   0.922347 0.424747 0.488657 0.883919
C7    C     C_R   0.922458 0.575437 0.488854 0.881946
C8    C     C_R   0.077590 0.424618 0.511174 0.885247
C9    C     C_R   0.515658 0.994487 0.110007 0.276266
C10   C     C_R   0.484620 0.007341 0.889844 0.275937
C11   C     C_R   0.015793 0.505621 0.110159 0.273382
C12   C     C_R   0.982750 0.497922 0.889689 0.272708
C13   C     C_R   0.556424 0.967564 0.163033 -0.100189
C14   C     C_R   0.441213 0.029524 0.836363 -0.100195
C15   C     C_R   0.061458 0.523023 0.163718 -0.098909
C16   C     C_R   0.935135 0.487012 0.835905 -0.098872
C17   C     C_R   0.552395 0.971337 0.249924 -0.061567
C18   C     C_R   0.444931 0.024386 0.749509 -0.061053
C19   C     C_R   0.057340 0.518972 0.250614 -0.062744
C20   C     C_R   0.940335 0.488486 0.749015 -0.056034
C21   C     C_R   0.613172 0.874277 0.516192 -0.046143
C22   C     C_R   0.384285 0.123469 0.482947 -0.046482
C23   C     C_R   0.374221 0.887802 0.480608 -0.047131
C24   C     C_R   0.616947 0.122301 0.517660 -0.051867
C25   C     C_R   0.127801 0.390058 0.519149 -0.050481
C26   C     C_R   0.872214 0.609930 0.480896 -0.048576
C27   C     C_R   0.872306 0.390061 0.480569 -0.045084
C28   C     C_R   0.112581 0.625652 0.517203 -0.045735
C29   C     C_R   0.628605 0.848148 0.442802 -0.235135
C30   C     C_R   0.363411 0.145583 0.555698 -0.236419
C31   C     C_R   0.340290 0.882645 0.548257 -0.232704
C32   C     C_R   0.640726 0.141472 0.445488 -0.231228
C33   C     C_R   0.160771 0.384080 0.450355 -0.227129
C34   C     C_R   0.840722 0.618259 0.550703 -0.227191
C35   C     C_R   0.841254 0.381387 0.550661 -0.233479
C36   C     C_R   0.121652 0.656512 0.445399 -0.236061
C37   C     C_R   0.661373 0.800271 0.446457 -0.177926
C38   C     C_R   0.328682 0.191995 0.551699 -0.175875
C39   C     C_R   0.292888 0.849711 0.541425 -0.184782
C40   C     C_R   0.676808 0.186772 0.449446 -0.179473
C41   C     C_R   0.209855 0.353506 0.457354 -0.179823
C42   C     C_R   0.791186 0.648052 0.543479 -0.177158
C43   C     C_R   0.792715 0.350106 0.543978 -0.182031
C44   C     C_R   0.154971 0.703812 0.450179 -0.173614
C45   C     C_R   0.679851 0.777541 0.524084 0.269969
C46   C     C_R   0.314116 0.217544 0.474466 0.270786
C47   C     C_R   0.279006 0.820374 0.466824 0.268386
C48   C     C_R   0.689787 0.214078 0.526027 0.273190
C49   C     C_R   0.226250 0.327246 0.533068 0.268769
C50   C     C_R   0.772706 0.671313 0.466295 0.268077
C51   C     C_R   0.774917 0.325657 0.467108 0.268086
C52   C     C_R   0.181149 0.720518 0.526977 0.274257
C53   C     C_R   0.664035 0.803343 0.598533 0.001186
C54   C     C_R   0.334149 0.194875 0.400463 -0.000781
C55   C     C_R   0.311455 0.827466 0.396951 0.001140
C56   C     C_R   0.667730 0.193701 0.599720 -0.003410
C57   C     C_R   0.195294 0.335880 0.604186 0.004563
C58   C     C_R   0.802451 0.660330 0.394597 0.001652
C59   C     C_R   0.803614 0.337564 0.394891 0.003819
C60   C     C_R   0.171096 0.690364 0.600157 -0.001414
C61   C     C_R   0.630632 0.851815 0.593743 -0.267721
C62   C     C_R   0.369373 0.147751 0.405557 -0.266804
C63   C     C_R   0.359332 0.861196 0.404695 -0.268862
C64   C     C_R   0.630784 0.148013 0.594665 -0.266506
C65   C     C_R   0.145673 0.367129 0.596323 -0.269652
C66   C     C_R   0.852542 0.629910 0.402824 -0.267356
C67   C     C_R   0.852720 0.369540 0.402528 -0.268790
C68   C     C_R   0.136344 0.643027 0.594536 -0.266605
C69   C     C_R   0.470037 0.026453 0.233945 -0.024900
C70   C     C_R   0.532803 0.978730 0.766436 -0.024615
C71   C     C_R   0.965007 0.483555 0.233554 -0.024933
C72   C     C_R   0.036621 0.510804 0.766551 -0.024778
C73   C     C_R   0.472278 0.024557 0.147025 -0.290897
C74   C     C_R   0.530733 0.981511 0.853290 -0.290572
C75   C     C_R   0.967171 0.485613 0.146681 -0.291719
C76   C     C_R   0.033881 0.510155 0.853360 -0.291560
H1    H     H_    0.374104 0.127312 0.616142 0.162320
H2    H     H_    0.615138 0.864403 0.382104 0.156571
H3    H     H_    0.631122 0.121844 0.385456 0.171070
H4    H     H_    0.350203 0.904202 0.606744 0.166277
H5    H     H_    0.854133 0.601578 0.611179 0.167270
H6    H     H_    0.148781 0.403084 0.390852 0.164690
H7    H     H_    0.102480 0.644564 0.385329 0.165322
H8    H     H_    0.854466 0.398543 0.611094 0.156356
H9    H     H_    0.565296 0.964047 0.891134 0.165234
H10   H     H_    0.439922 0.045978 0.109477 0.165873
H11   H     H_    0.071693 0.518597 0.891366 0.169438
H12   H     H_    0.930933 0.471830 0.108791 0.168836
N1    N     N_2   0.719163 0.733044 0.529242 -0.199616
N2    N     N_2   0.275197 0.262313 0.469201 -0.196828
N3    N     N_2   0.236537 0.779164 0.462630 -0.204979
N4    N     N_2   0.726660 0.260459 0.530903 -0.203988
N5    N     N_2   0.269506 0.286844 0.536855 -0.210336
N6    N     N_2   0.728669 0.711026 0.460967 -0.207913
N7    N     N_2   0.733164 0.283632 0.462724 -0.204018
N8    N     N_2   0.219401 0.765764 0.531567 -0.206261
N9    N     N_R   0.509690 0.000000 0.283730 -0.090349
N10   N     N_R   0.490310 0.000000 0.716270 -0.089763
N11   N     N_R   0.009690 0.500000 0.283730 -0.090674
N12   N     N_R   0.990310 0.500000 0.716270 -0.090563
N13   N     N_2   0.519351 0.989474 0.021422 -0.186092
N14   N     N_2   0.480163 0.011589 0.978409 -0.185182
N15   N     N_2   0.020859 0.507987 0.021574 -0.186159
N16   N     N_2   0.977851 0.494699 0.978258 -0.186867
O1    O     O_R   0.554580 0.058040 0.577230 -0.617090
O2    O     O_R   0.445420 0.941960 0.422770 -0.615469
O3    O     O_R   0.445420 0.058040 0.422770 -0.628822
O4    O     O_R   0.554580 0.941960 0.577230 -0.626584
O5    O     O_R   0.054580 0.558040 0.577230 -0.624221
O6    O     O_R   0.945420 0.441960 0.422770 -0.625945
O7    O     O_R   0.945420 0.558040 0.422770 -0.618655
O8    O     O_R   0.054580 0.441960 0.577230 -0.617361
O9    O     O_R   0.560810 0.058060 0.438340 -0.615269
O10   O     O_R   0.439190 0.941940 0.561660 -0.617055
O11   O     O_R   0.439190 0.058060 0.561660 -0.632999
O12   O     O_R   0.560810 0.941940 0.438340 -0.633551
O13   O     O_R   0.060810 0.558060 0.438340 -0.632049
O14   O     O_R   0.939190 0.441940 0.561660 -0.628241
O15   O     O_R   0.939190 0.558060 0.561660 -0.620581
O16   O     O_R   0.060810 0.441940 0.438340 -0.616855
Zn1   Zn    Zn3+2 0.495820 0.000000 0.592740 0.942531
Zn2   Zn    Zn3+2 0.504180 0.000000 0.407260 0.943489
Zn3   Zn    Zn3+2 0.995820 0.500000 0.592740 0.942839
Zn4   Zn    Zn3+2 0.004180 0.500000 0.407260 0.941679
H13   H     H_    0.312545 0.207270 0.609331 0.167217
H14   H     H_    0.673200 0.781975 0.388088 0.162228
H15   H     H_    0.694597 0.200319 0.392269 0.165084
H16   H     H_    0.268046 0.845999 0.595530 0.162643
H17   H     H_    0.768223 0.654445 0.599047 0.157979
H18   H     H_    0.234089 0.348617 0.402728 0.154313
H19   H     H_    0.160756 0.726861 0.393228 0.158037
H20   H     H_    0.770292 0.343078 0.599819 0.160222
C77   C     C_R   0.682346 0.780725 0.681763 0.128407
C78   C     C_R   0.704814 0.817102 0.744365 -0.157749
C79   C     C_R   0.721086 0.796107 0.823163 -0.133058
C80   C     C_R   0.715101 0.738720 0.840300 -0.108184
C81   C     C_R   0.692684 0.702242 0.778726 -0.145132
C82   C     C_R   0.676163 0.723067 0.699915 -0.145547
H21   H     H_    0.710070 0.861657 0.732070 0.123270
H22   H     H_    0.738360 0.824357 0.870952 0.119725
H23   H     H_    0.727701 0.722556 0.901346 0.115411
H24   H     H_    0.687820 0.657831 0.792197 0.128743
H25   H     H_    0.657973 0.694323 0.653470 0.130140
C83   C     C_R   0.319127 0.219762 0.317500 0.127981
C84   C     C_R   0.300562 0.184863 0.250592 -0.156946
C85   C     C_R   0.287404 0.207959 0.172050 -0.142960
C86   C     C_R   0.292684 0.265990 0.159467 -0.112268
C87   C     C_R   0.311308 0.301014 0.225343 -0.146279
C88   C     C_R   0.324707 0.278092 0.303936 -0.143902
H26   H     H_    0.295952 0.139817 0.259315 0.126401
H27   H     H_    0.273100 0.180843 0.120922 0.122462
H28   H     H_    0.282494 0.283785 0.098616 0.119939
H29   H     H_    0.315668 0.345933 0.215406 0.124915
H30   H     H_    0.340061 0.305761 0.353812 0.129721
C89   C     C_R   0.297087 0.798063 0.316783 0.128490
C90   C     C_R   0.338081 0.767265 0.276264 -0.156632
C91   C     C_R   0.324344 0.739125 0.201310 -0.136014
C92   C     C_R   0.269738 0.741574 0.165998 -0.102540
C93   C     C_R   0.228791 0.772324 0.205435 -0.140930
C94   C     C_R   0.242333 0.800607 0.280310 -0.144232
H31   H     H_    0.380479 0.764431 0.303165 0.125096
H32   H     H_    0.356034 0.715279 0.170699 0.124275
H33   H     H_    0.259178 0.719750 0.108015 0.115808
H34   H     H_    0.186544 0.774343 0.177892 0.126450
H35   H     H_    0.210185 0.824694 0.309589 0.128448
C95   C     C_R   0.681998 0.220082 0.682091 0.123072
C96   C     C_R   0.639280 0.236428 0.734056 -0.158841
C97   C     C_R   0.652582 0.260772 0.811973 -0.132285
C98   C     C_R   0.708523 0.268843 0.838849 -0.125679
C99   C     C_R   0.751292 0.252552 0.787870 -0.158163
C100  C     C_R   0.738208 0.228083 0.709973 -0.136560
H36   H     H_    0.595690 0.230719 0.714006 0.127458
H37   H     H_    0.619486 0.273401 0.851527 0.124423
H38   H     H_    0.718729 0.287646 0.899221 0.117436
H39   H     H_    0.794622 0.258690 0.808861 0.128901
H40   H     H_    0.771915 0.214891 0.671874 0.135335
C101  C     C_R   0.212848 0.310147 0.685664 0.122686
C102  C     C_R   0.174264 0.279850 0.731168 -0.154941
C103  C     C_R   0.191033 0.255318 0.807489 -0.136334
C104  C     C_R   0.246285 0.260915 0.839210 -0.105423
C105  C     C_R   0.284878 0.291102 0.794718 -0.142482
C106  C     C_R   0.268313 0.315753 0.718431 -0.148040
H41   H     H_    0.131401 0.274622 0.707166 0.127723
H42   H     H_    0.161186 0.231864 0.841992 0.126071
H43   H     H_    0.259170 0.241997 0.898341 0.116163
H44   H     H_    0.327634 0.295537 0.819459 0.128263
H45   H     H_    0.298658 0.339487 0.685200 0.131197
C107  C     C_R   0.782696 0.681394 0.311182 0.125555
C108  C     C_R   0.819880 0.708924 0.259877 -0.155275
C109  C     C_R   0.801782 0.726815 0.180145 -0.130044
C110  C     C_R   0.746598 0.717240 0.150751 -0.126052
C111  C     C_R   0.709242 0.690192 0.201308 -0.159388
C112  C     C_R   0.727114 0.672267 0.281131 -0.141897
H46   H     H_    0.862830 0.716680 0.281631 0.126183
H47   H     H_    0.830619 0.747948 0.141018 0.124444
H48   H     H_    0.732769 0.730824 0.088814 0.112510
H49   H     H_    0.666481 0.682817 0.178439 0.125987
H50   H     H_    0.697872 0.650459 0.318879 0.129405
C113  C     C_R   0.784084 0.315119 0.311914 0.120101
C114  C     C_R   0.821896 0.288776 0.259920 -0.160779
C115  C     C_R   0.803521 0.268383 0.181439 -0.130665
C116  C     C_R   0.747389 0.274148 0.154035 -0.113724
C117  C     C_R   0.709512 0.300337 0.205068 -0.149018
C118  C     C_R   0.727686 0.320852 0.283561 -0.141621
H51   H     H_    0.865485 0.283584 0.280329 0.128483
H52   H     H_    0.832827 0.248065 0.141861 0.128996
H53   H     H_    0.733265 0.258399 0.093220 0.120238
H54   H     H_    0.666072 0.304961 0.183664 0.127826
H55   H     H_    0.697895 0.341732 0.321793 0.132496
C119  C     C_R   0.197407 0.706505 0.682567 0.119736
C120  C     C_R   0.164181 0.713244 0.751545 -0.160356
C121  C     C_R   0.188811 0.727204 0.829737 -0.141406
C122  C     C_R   0.246749 0.734370 0.839884 -0.113656
C123  C     C_R   0.280185 0.727435 0.771889 -0.144574
C124  C     C_R   0.255765 0.713338 0.693610 -0.136110
H56   H     H_    0.119188 0.707939 0.744691 0.129589
H57   H     H_    0.162962 0.732440 0.882492 0.120267
H58   H     H_    0.265743 0.745102 0.900486 0.120601
H59   H     H_    0.325107 0.732650 0.779933 0.131530
H60   H     H_    0.282468 0.707028 0.642038 0.139899
H61   H     H_    0.617676 0.871531 0.650562 0.156843
H62   H     H_    0.386014 0.130796 0.349233 0.155917
H63   H     H_    0.384919 0.866616 0.351646 0.164879
H64   H     H_    0.612917 0.132586 0.650805 0.166803
H65   H     H_    0.121124 0.373579 0.650329 0.164706
H66   H     H_    0.875845 0.621365 0.348140 0.164721
H67   H     H_    0.875521 0.378484 0.347616 0.157537
H68   H     H_    0.128838 0.619087 0.650185 0.158296
H69   H     H_    0.568828 0.959994 0.739137 0.132725
H70   H     H_    0.436098 0.048734 0.261492 0.134211
H71   H     H_    0.076010 0.519670 0.739185 0.134090
H72   H     H_    0.927287 0.469086 0.260965 0.135657
C125  C     C_R   0.602162 0.933387 0.129282 0.127961
C126  C     C_R   0.611410 0.877774 0.157139 -0.167893
C127  C     C_R   0.653933 0.845027 0.125049 -0.127559
C128  C     C_R   0.687796 0.867445 0.065202 -0.103948
C129  C     C_R   0.679296 0.922837 0.037615 -0.152023
C130  C     C_R   0.636820 0.955826 0.069634 -0.132725
H73   H     H_    0.585260 0.859506 0.202968 0.118579
H74   H     H_    0.660372 0.802195 0.146479 0.133642
H75   H     H_    0.720648 0.841947 0.040326 0.111923
H76   H     H_    0.705689 0.940260 0.991494 0.124633
H77   H     H_    0.631211 0.998871 0.048258 0.130832
C131  C     C_R   0.392168 0.058976 0.869472 0.124375
C132  C     C_R   0.337515 0.043857 0.841376 -0.166627
C133  C     C_R   0.291297 0.072095 0.871556 -0.119100
C134  C     C_R   0.299162 0.115737 0.929704 -0.114295
C135  C     C_R   0.353277 0.131438 0.957488 -0.162353
C136  C     C_R   0.399632 0.103391 0.927392 -0.130939
H78   H     H_    0.330666 0.009959 0.796589 0.121581
H79   H     H_    0.249349 0.060092 0.849890 0.127232
H80   H     H_    0.263331 0.137471 0.953068 0.111581
H81   H     H_    0.359317 0.165511 0.002123 0.128359
H82   H     H_    0.441288 0.116753 0.948594 0.130597
C137  C     C_R   0.113205 0.546786 0.130690 0.124087
C138  C     C_R   0.166036 0.526066 0.158605 -0.163590
C139  C     C_R   0.214861 0.549329 0.129022 -0.125860
C140  C     C_R   0.211441 0.593563 0.071713 -0.108135
C141  C     C_R   0.159188 0.614703 0.043976 -0.155186
C142  C     C_R   0.110247 0.591600 0.073398 -0.134317
H83   H     H_    0.169420 0.491730 0.202906 0.119722
H84   H     H_    0.255377 0.533073 0.150605 0.124203
H85   H     H_    0.249278 0.611562 0.048980 0.117030
H86   H     H_    0.156611 0.649203 0.999975 0.123095
H87   H     H_    0.070150 0.609179 0.052329 0.131345
C143  C     C_R   0.879874 0.473432 0.868686 0.125705
C144  C     C_R   0.849614 0.426126 0.838210 -0.167300
C145  C     C_R   0.797373 0.413391 0.868401 -0.139638
C146  C     C_R   0.774799 0.447694 0.929076 -0.107817
C147  C     C_R   0.804291 0.495030 0.959314 -0.150663
C148  C     C_R   0.856481 0.508065 0.929113 -0.134769
H88   H     H_    0.866624 0.398846 0.791548 0.119149
H89   H     H_    0.774398 0.376923 0.844694 0.133408
H90   H     H_    0.734370 0.437710 0.952426 0.121861
H91   H     H_    0.786596 0.521799 0.005920 0.130756
H92   H     H_    0.878297 0.545443 0.952268 0.133388
H93   H     H_    0.583625 0.950970 0.290566 0.141290
H94   H     H_    0.411959 0.041377 0.708301 0.137348
H95   H     H_    0.091928 0.532417 0.292056 0.140558
H96   H     H_    0.904194 0.480709 0.707172 0.132034

loop_
_geom_bond_atom_site_label_1
_geom_bond_atom_site_label_2
_ccdc_geom_bond_type
N10   Zn1   S    
C54   C83   S    
C132  H78   S    
C114  H51   S    
O11   Zn1   S    
C72   H71   S    
C140  H85   S    
C10   C74   A    
C98   C99   A    
C14   C18   A    
C19   H95   S    
C86   C87   A    
C34   C42   A    
C51   N7    S    
O4    Zn1   S    
C117  C118  A    
C84   C85   A    
C127  C128  A    
C79   C80   A    
C125  C130  A    
C15   C137  S    
C105  C106  A    
C131  C132  A    
C44   H19   S    
C55   C89   S    
C4    O4    A    
C30   C38   A    
C109  C110  A    
C7    C26   S    
O12   Zn2   S    
C146  H90   S    
C47   C55   A    
C43   H20   S    
C28   C68   A    
O13   Zn4   S    
C12   N16   S    
C13   C125  S    
C82   H25   S    
C8    O8    A    
C93   C94   A    
C41   H18   S    
O1    Zn1   S    
C99   C100  A    
C36   H7    S    
C112  H50   S    
C137  C138  A    
C49   C57   A    
C128  C129  A    
C64   H64   S    
C40   C48   A    
C139  C140  A    
C127  H74   S    
N1    N6    D    
C9    C13   A    
C110  H48   S    
C77   C78   A    
C52   C60   A    
C59   C67   A    
N3    N8    D    
C18   H94   S    
C30   H1    S    
C53   C61   A    
C108  H46   S    
C58   C66   A    
C91   C92   A    
C29   H2    S    
C12   C16   A    
C62   H62   S    
C59   C113  S    
C114  C115  A    
C55   C63   A    
C118  H55   S    
C70   C74   A    
C48   N4    S    
C98   H38   S    
C56   C64   A    
C69   C73   A    
C34   H5    S    
C67   H67   S    
C42   H17   S    
C35   C43   A    
C33   H6    S    
C21   C61   A    
C102  H41   S    
C32   C40   A    
C72   C76   A    
C81   C82   A    
C106  H45   S    
O6    Zn4   S    
C44   C52   A    
C23   C63   A    
C120  H56   S    
O7    Zn4   S    
C137  C142  A    
C45   C53   A    
C77   C82   A    
C24   C64   A    
C146  C147  A    
C8    C25   S    
C6    O6    A    
C46   C54   A    
C123  H59   S    
C148  H92   S    
C99   H39   S    
C11   C15   A    
C11   C75   A    
C17   H93   S    
C41   C49   A    
C26   C34   A    
C102  C103  A    
C133  H79   S    
C117  H54   S    
C79   H22   S    
C71   C75   A    
C81   H24   S    
C131  C136  A    
O9    Zn2   S    
C58   C107  S    
C139  H84   S    
C26   C66   A    
N13   N14   D    
C63   H63   S    
C10   N14   S    
C105  H44   S    
C53   C77   S    
C87   C88   A    
O8    Zn3   S    
C31   H4    S    
C141  H86   S    
C116  C117  A    
C96   C97   A    
C37   C45   A    
C132  C133  A    
C19   N11   A    
C135  H81   S    
C50   N6    S    
C54   C62   A    
C27   C35   A    
C134  H80   S    
C40   H15   S    
C21   C29   A    
C130  H77   S    
C2    O2    A    
N4    N7    D    
C140  C141  A    
C110  C111  A    
C5    O13   A    
C107  C108  A    
C9    C73   A    
C23   C31   A    
C128  H75   S    
C145  H89   S    
C15   C19   A    
C88   H30   S    
C24   C32   A    
C120  C121  A    
N9    Zn2   S    
C7    O15   A    
C22   C62   A    
C5    C28   S    
C144  H88   S    
C6    C27   S    
C20   N12   A    
C97   H37   S    
C122  C123  A    
C93   H34   S    
C35   H8    S    
C138  C139  A    
O2    Zn2   S    
C25   C33   A    
C70   N10   A    
C50   C58   A    
C65   H65   S    
C83   C84   A    
C16   C20   A    
C111  H49   S    
C145  C146  A    
O14   Zn3   S    
C76   H11   S    
C60   C68   A    
C96   H36   S    
C85   C86   A    
C95   C100  A    
C109  H47   S    
C42   C50   A    
C14   C131  S    
C129  H76   S    
C9    N13   S    
C97   C98   A    
C90   H31   S    
C119  C120  A    
C124  H60   S    
C116  H53   S    
C12   C76   A    
C10   C14   A    
C113  C118  A    
C36   C44   A    
C51   C59   A    
C126  C127  A    
C56   C95   S    
C141  C142  A    
C78   H21   S    
C38   H13   S    
C45   N1    S    
C135  C136  A    
C8    O16   A    
N2    N5    D    
C39   C47   A    
C37   H14   S    
C72   N12   A    
C48   C56   A    
C133  C134  A    
C90   C91   A    
C39   H16   S    
C22   C30   A    
C83   C88   A    
C89   C94   A    
C123  C124  A    
C47   N3    S    
C147  H91   S    
C4    O12   A    
C92   H33   S    
C84   H26   S    
C57   C65   A    
C80   C81   A    
C107  C112  A    
C11   N15   S    
C134  C135  A    
C68   H68   S    
C78   C79   A    
C46   N2    S    
O15   Zn3   S    
C103  C104  A    
C7    O7    A    
C119  C124  A    
C18   N10   A    
C100  H40   S    
C115  C116  A    
C13   C17   A    
C143  C148  A    
C144  C145  A    
C3    O3    A    
C111  C112  A    
N12   Zn3   S    
C94   H35   S    
C86   H28   S    
C142  H87   S    
C70   H69   S    
C33   C41   A    
C20   H96   S    
C3    O11   A    
C69   H70   S    
C32   H3    S    
C57   C101  S    
C4    C21   S    
C2    O10   A    
C66   H66   S    
C43   C51   A    
C92   C93   A    
C95   C96   A    
C60   C119  S    
C80   H23   S    
C31   C39   A    
C52   N8    S    
C115  H52   S    
C2    C23   S    
C126  H73   S    
C1    O9    A    
C74   H9    S    
C71   N11   A    
C108  C109  A    
C61   H61   S    
C73   H10   S    
C38   C46   A    
C27   C67   A    
C143  C144  A    
O10   Zn1   S    
C113  C114  A    
C122  H58   S    
C85   H27   S    
C103  H42   S    
O16   Zn4   S    
C75   H12   S    
C136  H82   S    
N15   N16   D    
C121  C122  A    
C28   C36   A    
C1    C24   S    
C138  H83   S    
C101  C102  A    
C121  H57   S    
C104  H43   S    
C29   C37   A    
C89   C90   A    
C25   C65   A    
C147  C148  A    
C3    C22   S    
O5    Zn3   S    
C5    O5    A    
O3    Zn2   S    
C49   N5    S    
C87   H29   S    
C129  C130  A    
C71   H72   S    
C17   N9    A    
C91   H32   S    
C6    O14   A    
C16   C143  S    
C104  C105  A    
C101  C106  A    
C125  C126  A    
C1    O1    A    
N11   Zn4   S    
C69   N9    A    
