data_mof_unit_53876.cif
_audit_creation_date              2013-03-05T15:54:34-0500
_audit_creation_method            fapswitch 2.2
_symmetry_space_group_name_H-M    P1
_symmetry_Int_Tables_number       1
_space_group_crystal_system       triclinic
_cell_length_a                    19.087096
_cell_length_b                    18.567676
_cell_length_c                    12.333648
_cell_angle_alpha                 89.804623
_cell_angle_beta                  129.089309
_cell_angle_gamma                 91.028694
_cell_volume                      3391.95381737

loop_
_atom_site_label
_atom_site_type_symbol
_atom_site_description
_atom_site_fract_x
_atom_site_fract_y
_atom_site_fract_z
_atom_type_partial_charge
O1    O     O_R   0.608610 0.924520 0.551740 -0.584417
O2    O     O_R   0.608610 0.075480 0.551740 -0.578650
O3    O     O_R   0.108610 0.424520 0.551740 -0.584186
O4    O     O_R   0.108610 0.575480 0.551740 -0.578777
O5    O     O_R   0.564110 0.924510 0.685150 -0.611009
O6    O     O_R   0.564110 0.075490 0.685150 -0.599566
O7    O     O_R   0.064110 0.424510 0.685150 -0.610936
O8    O     O_R   0.064110 0.575490 0.685150 -0.599812
C1    C     C_R   0.610574 0.897822 0.651802 0.778903
C2    C     C_R   0.612872 0.101624 0.653571 0.789719
C3    C     C_R   0.110576 0.397823 0.651803 0.778935
C4    C     C_R   0.112761 0.601706 0.653425 0.789989
Cu1   Cu    Cu3+1 0.526340 1.000000 0.421010 0.931314
Cu2   Cu    Cu3+1 0.026340 0.500000 0.421010 0.931520
Cu3   Cu    Cu3+1 0.473640 0.000000 0.578990 0.920363
Cu4   Cu    Cu3+1 0.973640 0.500000 0.578990 0.920215
O9    O     O_R   0.435880 0.075470 0.314850 -0.597573
O10   O     O_R   0.435880 0.924530 0.314850 -0.593356
O11   O     O_R   0.935880 0.575470 0.314850 -0.597675
O12   O     O_R   0.935880 0.424530 0.314850 -0.592672
O13   O     O_R   0.391380 0.075460 0.448260 -0.590104
O14   O     O_R   0.391380 0.924540 0.448260 -0.585483
O15   O     O_R   0.891380 0.575460 0.448260 -0.590273
O16   O     O_R   0.891380 0.424540 0.448260 -0.585457
C5    C     C_R   0.383025 0.097114 0.339943 0.797213
C6    C     C_R   0.384890 0.900530 0.343605 0.778264
C7    C     C_R   0.883025 0.597114 0.339945 0.796986
C8    C     C_R   0.884789 0.400624 0.343465 0.777866
C9    C     C_R   0.650032 0.326129 0.091576 -0.188004
C10   C     C_R   0.687138 0.722394 0.172360 -0.186286
C11   C     C_R   0.150550 0.824796 0.093744 -0.188246
C12   C     C_R   0.187106 0.222364 0.172306 -0.186505
H1    H     H_    0.217521 0.899024 0.265444 0.150894
H2    H     H_    0.267094 0.163734 0.363291 0.165378
H3    H     H_    0.716949 0.400489 0.263090 0.150659
H4    H     H_    0.767132 0.663764 0.363344 0.165381
H5    H     H_    0.514848 0.259794 0.857432 0.136971
H6    H     H_    0.548171 0.793702 0.953476 0.140611
H7    H     H_    0.015211 0.758314 0.859962 0.136918
H8    H     H_    0.048135 0.293659 0.953399 0.140610
H9    H     H_    0.584780 0.334617 0.064986 0.134806
H10   H     H_    0.641036 0.740207 0.189540 0.146464
H11   H     H_    0.085463 0.832699 0.068131 0.134715
H12   H     H_    0.140986 0.240162 0.189462 0.146293
C13   C     C_R   0.310963 0.850880 0.244292 -0.118620
C14   C     C_R   0.312501 0.148176 0.242114 -0.110339
C15   C     C_R   0.810663 0.351204 0.243823 -0.118809
C16   C     C_R   0.812504 0.648181 0.242125 -0.110253
C17   C     C_R   0.756842 0.166121 0.753189 -0.186724
C18   C     C_R   0.746269 0.830036 0.739690 -0.185320
C19   C     C_R   0.256003 0.667093 0.751537 -0.186584
C20   C     C_R   0.246294 0.330062 0.739728 -0.185403
C21   C     C_R   0.325158 0.715105 0.847376 -0.144554
C22   C     C_R   0.318395 0.288454 0.841195 -0.141546
C23   C     C_R   0.826239 0.213827 0.849561 -0.144722
C24   C     C_R   0.818361 0.788416 0.841139 -0.141577
C25   C     C_R   0.321264 0.752015 0.941408 -0.099569
C26   C     C_R   0.318097 0.255320 0.941803 -0.157545
C27   C     C_R   0.822074 0.251092 0.943000 -0.098991
C28   C     C_R   0.818070 0.755288 0.941757 -0.157773
C29   C     C_R   0.747141 0.241960 0.939942 0.110150
C30   C     C_R   0.741941 0.758301 0.936463 0.096738
C31   C     C_R   0.246809 0.742246 0.939431 0.110097
C32   C     C_R   0.241954 0.258313 0.936477 0.096704
C33   C     C_R   0.670545 0.203221 0.826692 0.068920
C34   C     C_R   0.668529 0.801439 0.834520 0.086184
C35   C     C_R   0.170282 0.703259 0.826621 0.068913
C36   C     C_R   0.168535 0.301440 0.834517 0.086092
C37   C     C_R   0.243472 0.774650 0.040206 0.073279
C38   C     C_R   0.240040 0.223301 0.036994 0.057115
C39   C     C_R   0.743440 0.274783 0.040032 0.073281
C40   C     C_R   0.740037 0.723300 0.036999 0.057036
C41   C     C_R   0.657816 0.284009 0.005953 0.138491
C42   C     C_R   0.677022 0.744356 0.054575 0.147875
C43   C     C_R   0.158076 0.783182 0.007305 0.138741
C44   C     C_R   0.177004 0.244337 0.054538 0.147853
C45   C     C_R   0.580549 0.252673 0.884909 -0.228630
C46   C     C_R   0.602345 0.783294 0.949767 -0.230669
C47   C     C_R   0.080755 0.751687 0.886593 -0.228722
C48   C     C_R   0.102323 0.283266 0.949715 -0.230719
C49   C     C_R   0.586900 0.211671 0.797805 -0.192748
C50   C     C_R   0.594454 0.805596 0.834854 -0.191415
C51   C     C_R   0.086849 0.711171 0.798715 -0.192729
C52   C     C_R   0.094446 0.305580 0.834820 -0.191357
C53   C     C_R   0.321543 0.800141 0.171645 -0.066788
C54   C     C_R   0.296526 0.165908 0.116752 -0.060424
C55   C     C_R   0.821347 0.300071 0.171870 -0.067391
C56   C     C_R   0.796514 0.665901 0.116750 -0.060397
C57   C     C_R   0.225965 0.861233 0.207866 -0.180425
C58   C     C_R   0.258082 0.177940 0.270003 -0.205097
C59   C     C_R   0.725477 0.362308 0.206142 -0.180101
C60   C     C_R   0.758108 0.677961 0.270042 -0.205176
C61   C     C_R   0.679234 0.159279 0.742352 -0.107854
C62   C     C_R   0.673193 0.840027 0.738962 -0.102963
C63   C     C_R   0.178822 0.659614 0.741777 -0.108027
C64   C     C_R   0.173204 0.340035 0.738973 -0.103099
H13   H     H_    0.764336 0.134034 0.687989 0.152752
H14   H     H_    0.750817 0.858371 0.667336 0.153880
H15   H     H_    0.263345 0.635298 0.685865 0.152959
H16   H     H_    0.250847 0.358403 0.667383 0.153886
H17   H     H_    0.375920 0.789510 0.012974 0.128717
H18   H     H_    0.379612 0.229702 0.026503 0.110199
H19   H     H_    0.876934 0.288335 0.015015 0.129420
H20   H     H_    0.879581 0.729660 0.026443 0.110063
H21   H     H_    0.383261 0.722241 0.851541 0.139020
H22   H     H_    0.376730 0.284544 0.845769 0.129383
H23   H     H_    0.884720 0.220444 0.854613 0.139186
H24   H     H_    0.876685 0.784495 0.845691 0.129324
H25   H     H_    0.524456 0.190488 0.703331 0.172026
H26   H     H_    0.529799 0.826354 0.748784 0.182673
H27   H     H_    0.024322 0.689945 0.704451 0.172449
H28   H     H_    0.029791 0.326333 0.748737 0.182691
C65   C     C_R   0.684898 0.005425 0.288591 -0.290096
C66   C     C_R   0.184897 0.505443 0.288590 -0.290142
H29   H     H_    0.703962 0.007931 0.479443 0.121732
H30   H     H_    0.203961 0.507940 0.479442 0.121814
H31   H     H_    0.756913 0.008975 0.344948 0.154257
H32   H     H_    0.256912 0.508999 0.344946 0.154257
N1    N     N_R   0.566260 0.000000 0.302220 -0.180677
N2    N     N_R   0.066260 0.500000 0.302220 -0.180640
C67   C     C_R   0.344078 0.997621 0.628109 0.067843
C68   C     C_R   0.844078 0.497635 0.628108 0.067969
C69   C     C_R   0.310558 0.994036 0.700785 -0.230098
C70   C     C_R   0.810557 0.494071 0.700785 -0.230055
C71   C     C_R   0.369731 0.993188 0.846446 -0.165770
C72   C     C_R   0.869730 0.493226 0.846446 -0.165719
C73   C     C_R   0.463968 0.996645 0.922306 -0.029264
C74   C     C_R   0.963967 0.496665 0.922306 -0.029260
C75   C     C_R   0.495063 0.999506 0.843004 0.237886
C76   C     C_R   0.995063 0.499513 0.843004 0.237769
C77   C     C_R   0.528082 0.997706 0.072995 -0.076032
C78   C     C_R   0.028082 0.497722 0.072994 -0.076135
C79   C     C_R   0.622090 0.002192 0.141345 0.155528
C80   C     C_R   0.122090 0.502209 0.141344 0.155527
C81   C     C_R   0.651747 0.003234 0.061780 0.096384
C82   C     C_R   0.151746 0.503247 0.061779 0.096560
C83   C     C_R   0.588638 0.001356 0.916264 -0.174169
C84   C     C_R   0.088637 0.501361 0.916263 -0.174153
C85   C     C_R   0.503000 0.995132 0.159891 0.007144
C86   C     C_R   0.003000 0.495139 0.159891 0.007455
C87   C     C_R   0.655446 0.004777 0.366634 0.064877
C88   C     C_R   0.155446 0.504785 0.366633 0.064727
N3    N     N_R   0.434410 0.000000 0.697680 -0.203499
N4    N     N_R   0.934410 0.500000 0.697680 -0.203570
H33   H     H_    0.433598 0.989301 0.116799 0.130815
H34   H     H_    0.933598 0.489303 0.116799 0.130858
H35   H     H_    0.297640 0.997639 0.515119 0.125543
H36   H     H_    0.797640 0.497653 0.515119 0.125572
H37   H     H_    0.339827 0.989615 0.896677 0.176597
H38   H     H_    0.839826 0.489672 0.896677 0.176660
H39   H     H_    0.238372 0.991547 0.643973 0.162072
H40   H     H_    0.738371 0.491598 0.643972 0.162094
H41   H     H_    0.615997 0.001440 0.863495 0.215371
H42   H     H_    0.115997 0.501439 0.863495 0.215434
C89   C     C_3   0.750995 0.006442 0.129524 -0.824429
H43   H     H_    0.762331 0.006390 0.051540 0.231731
H44   H     H_    0.782597 0.056626 0.192893 0.255241
H45   H     H_    0.785262 0.958823 0.197158 0.230059
C90   C     C_3   0.250994 0.506453 0.129522 -0.824705
H46   H     H_    0.285265 0.458843 0.197178 0.230114
H47   H     H_    0.262329 0.506384 0.051541 0.231736
H48   H     H_    0.282592 0.556643 0.192866 0.255019
C91   C     C_2   0.411336 0.766029 0.246326 0.307915
H49   H     H_    0.473212 0.794650 0.328645 0.093711
O17   O     O_2   0.416734 0.703485 0.222300 -0.538126
C92   C     C_2   0.317601 0.114656 0.049255 0.359065
H50   H     H_    0.386292 0.108814 0.088282 0.076900
O18   O     O_2   0.256708 0.080839 0.945262 -0.550761
C93   C     C_2   0.910915 0.265424 0.247730 0.309053
H51   H     H_    0.972637 0.293513 0.331630 0.092457
O19   O     O_2   0.916189 0.202980 0.223134 -0.538637
C94   C     C_2   0.817558 0.614631 0.049236 0.359142
H52   H     H_    0.886237 0.608790 0.088210 0.076737
O20   O     O_2   0.756650 0.580789 0.945300 -0.550730

loop_
_geom_bond_atom_site_label_1
_geom_bond_atom_site_label_2
_geom_bond_distance
_ccdc_geom_bond_type
C7    C16   1.468522 S    
C3    C64   1.467524 S    
C35   C63   1.415608 A    
H29   C87   1.081960 S    
C8    C15   1.456876 S    
C35   C51   1.411715 A    
C56   C94   1.483864 S    
C23   C27   1.391443 A    
C89   H44   1.110512 S    
C93   H51   1.083967 S    
C67   N3    1.357520 A    
C91   H49   1.084933 S    
O10   C6    1.300078 A    
O3    C3    1.307035 A    
C68   N4    1.357518 A    
C48   C52   1.389942 A    
H2    C58   1.083041 S    
C37   C53   1.416389 A    
H3    C59   1.083576 S    
O7    C3    1.295550 A    
C52   H28   1.077340 S    
C11   H11   1.084443 S    
Cu1   O10   1.932344 S    
C66   C88   1.387332 A    
C91   O17   1.221554 D    
C39   C55   1.416560 A    
C10   C42   1.399654 A    
C69   C71   1.394661 A    
C9    C41   1.398782 A    
C55   C93   1.493384 S    
C81   C89   1.513450 S    
C28   C30   1.414950 A    
C67   H35   1.081670 S    
C50   H26   1.077335 S    
C16   C60   1.405378 A    
O2    Cu1   1.942487 S    
C24   H24   1.082499 S    
C6    C13   1.456949 S    
Cu1   N1    2.033453 S    
O6    Cu3   1.932693 S    
C82   C90   1.513444 S    
C33   C49   1.411325 A    
Cu3   O14   1.942173 S    
C12   C58   1.393696 A    
C31   C37   1.420296 A    
C20   C22   1.384427 A    
C11   C57   1.388315 A    
C54   C92   1.483883 S    
C14   C58   1.405378 A    
C72   C74   1.410273 A    
C44   C48   1.390134 A    
C16   C56   1.413344 A    
C4    C63   1.469708 S    
C37   C43   1.421706 A    
C26   H18   1.079839 S    
C32   C38   1.418334 A    
O4    C4    1.301435 A    
C76   N4    1.391572 A    
C34   C62   1.426376 A    
C9    H9    1.084071 S    
H4    C60   1.083040 S    
C33   C61   1.415427 A    
C70   H40   1.082568 S    
C25   H17   1.081207 S    
O8    Cu4   1.932693 S    
C65   C79   1.411226 A    
C89   H45   1.110458 S    
C92   O18   1.220493 D    
C93   O19   1.221303 D    
C74   C78   1.443383 A    
C40   C56   1.400842 A    
C94   O20   1.220480 D    
C25   C31   1.414276 A    
C69   H39   1.082569 S    
C19   H15   1.083331 S    
C31   C35   1.414041 A    
C27   C29   1.413890 A    
C18   H14   1.083313 S    
C22   H22   1.082525 S    
C83   H41   1.060587 S    
C36   C52   1.419961 A    
Cu2   O12   1.932344 S    
O1    C1    1.307048 A    
C40   C42   1.411662 A    
C86   H34   1.075354 S    
C39   C41   1.421369 A    
C30   C34   1.413353 A    
C18   C62   1.404800 A    
C80   C82   1.408472 A    
O12   C8    1.299985 A    
C26   C32   1.414957 A    
C17   C23   1.389809 A    
H5    C45   1.083819 S    
C20   H16   1.083312 S    
C18   C24   1.384417 A    
C24   C28   1.386293 A    
C23   H23   1.082765 S    
C19   C21   1.389820 A    
C15   C55   1.404101 A    
C13   C53   1.404260 A    
C73   C75   1.429096 A    
O5    C1    1.295540 A    
Cu3   N3    2.021365 S    
H1    C57   1.083720 S    
C34   C50   1.419964 A    
C46   C50   1.389938 A    
C11   C43   1.398919 A    
C90   H46   1.110432 S    
C45   C49   1.386205 A    
O8    C4    1.301176 A    
O5    Cu3   1.970810 S    
H8    C48   1.084231 S    
C12   H12   1.083836 S    
C90   H48   1.110482 S    
C30   C40   1.418333 A    
N2    C88   1.351467 A    
C36   C64   1.426362 A    
H30   C88   1.081959 S    
C66   H32   1.081248 S    
O3    Cu2   1.974963 S    
C71   H37   1.076233 S    
N2    C86   1.368160 A    
C82   C84   1.394974 A    
O7    Cu4   1.970810 S    
C49   H25   1.080702 S    
Cu4   O15   1.974638 S    
O15   C7    1.304512 A    
Cu1   Cu3   2.698140 S    
C76   C84   1.403744 A    
O14   C6    1.296338 A    
C92   H50   1.082295 S    
N1    C87   1.351467 A    
C51   H27   1.080663 S    
O1    Cu1   1.974963 S    
C68   C70   1.392303 A    
O2    C2    1.301372 A    
C32   C36   1.413345 A    
C9    C59   1.388278 A    
O11   C7    1.297788 A    
C94   H52   1.082293 S    
C70   C72   1.394661 A    
C22   C26   1.386297 A    
C65   H31   1.081249 S    
C81   C83   1.394976 A    
O13   C5    1.304527 A    
C85   H33   1.075352 S    
C21   C25   1.391478 A    
C13   C57   1.400823 A    
Cu4   N4    2.021365 S    
C15   C59   1.400230 A    
Cu2   O11   1.970450 S    
O16   C8    1.296324 A    
O9    C5    1.297774 A    
C77   C79   1.422967 A    
C74   C76   1.429095 A    
C12   C44   1.399655 A    
C75   N3    1.391577 A    
C78   C86   1.423372 A    
H6    C46   1.084230 S    
Cu2   N2    2.033453 S    
C2    C61   1.469589 S    
Cu1   O9    1.970450 S    
N1    C85   1.368162 A    
Cu4   O16   1.942173 S    
C90   H47   1.110984 S    
C27   H19   1.081164 S    
C38   C44   1.411658 A    
C72   H38   1.076227 S    
C29   C39   1.420212 A    
C53   C91   1.493723 S    
C1    C62   1.467532 S    
C66   C80   1.411225 A    
C65   C87   1.387333 A    
C20   C64   1.404813 A    
Cu2   Cu4   2.698140 S    
C29   C33   1.414118 A    
O4    Cu2   1.942487 S    
C73   C77   1.443386 A    
C67   C69   1.392305 A    
C77   C85   1.423375 A    
O6    C2    1.301167 A    
C17   H13   1.083252 S    
C68   H36   1.081671 S    
C47   C51   1.386309 A    
C21   H21   1.083061 S    
Cu3   O13   1.974638 S    
C75   C83   1.403749 A    
C78   C80   1.422965 A    
C42   C46   1.390131 A    
C19   C63   1.404685 A    
C89   H43   1.111023 S    
C71   C73   1.410274 A    
C79   C81   1.408474 A    
C41   C45   1.393173 A    
C10   H10   1.083837 S    
C17   C61   1.404277 A    
C84   H42   1.060587 S    
C28   H20   1.079838 S    
C43   C47   1.393101 A    
C5    C14   1.468530 S    
H7    C47   1.084077 S    
C14   C54   1.413363 A    
C10   C60   1.393693 A    
C38   C54   1.400840 A    
