data_mof_unit_14442.cif
_audit_creation_date              2012-12-10T18:05:59-0500
_audit_creation_method            fapswitch 2.2
_symmetry_space_group_name_H-M    P1
_symmetry_Int_Tables_number       1
_space_group_crystal_system       triclinic
_cell_length_a                    12.599496
_cell_length_b                    13.187023
_cell_length_c                    14.941266
_cell_angle_alpha                 89.728297
_cell_angle_beta                  102.173205
_cell_angle_gamma                 83.51823
_cell_volume                      2410.11596097

loop_
_atom_site_label
_atom_site_type_symbol
_atom_type_description
_atom_site_fract_x
_atom_site_fract_y
_atom_site_fract_z
_atom_type_partial_charge
C1    C     C_R   0.439980 0.690258 0.478243 0.851990
C2    C     C_R   0.559849 0.567409 0.823222 -0.277487
C3    C     C_R   0.503654 0.496874 0.768994 -0.067020
C4    C     C_R   0.500814 0.498907 0.672885 0.898803
C5    C     C_R   0.453116 0.423508 0.806253 -0.266664
C6    C     C_R   0.698253 0.082487 0.414172 0.114674
C7    C     C_R   0.594912 0.203551 0.494357 -0.067714
C8    C     C_R   0.291821 0.838293 0.431860 0.115908
C9    C     C_R   0.265532 0.941410 0.448553 -0.168547
C10   C     C_R   0.347083 0.005923 0.467793 -0.219129
C11   C     C_R   0.455983 0.970311 0.462866 0.100993
C12   C     C_R   0.458877 0.420291 0.086197 0.136202
C13   C     C_R   0.481804 0.866562 0.446639 -0.006242
C14   C     C_R   0.537618 0.036331 0.467072 0.007791
C15   C     C_R   0.632436 0.006504 0.431371 -0.009187
C16   C     C_R   0.560154 0.309242 0.508779 0.864015
C17   C     C_R   0.656824 0.902418 0.414824 0.388022
C18   C     C_R   0.582331 0.834331 0.422457 -0.268110
C19   C     C_R   0.525504 0.132261 0.504300 -0.240394
C20   C     C_R   0.680049 0.179388 0.449103 -0.240016
C21   C     C_R   0.403656 0.798506 0.450299 -0.162094
C22   C     C_R   0.083033 0.355581 0.367030 -0.311243
C23   C     C_R   0.609119 0.644386 0.065187 -0.218077
C24   C     C_R   0.804411 0.617705 0.617714 -0.146477
C25   C     C_R   0.913184 0.634972 0.649234 0.427284
C26   C     C_R   0.992721 0.590515 0.604412 -0.302466
C27   C     C_R   0.964805 0.524985 0.530773 -0.063245
C28   C     C_R   0.499257 0.501058 0.327020 0.903808
C29   C     C_R   0.854083 0.505582 0.505303 0.229575
C30   C     C_R   0.042305 0.476136 0.482918 0.014728
C31   C     C_R   0.008389 0.405506 0.414172 0.201269
C32   C     C_R   0.900416 0.384749 0.393411 -0.304638
C33   C     C_R   0.825019 0.433605 0.438685 -0.173598
C34   C     C_R   0.615096 0.642857 0.973081 0.071054
C35   C     C_R   0.152490 0.494584 0.499623 -0.061109
C36   C     C_R   0.190735 0.376329 0.387590 0.003195
C37   C     C_R   0.457010 0.422271 0.178633 -0.346099
C38   C     C_R   0.498903 0.501485 0.231078 -0.186554
C39   C     C_R   0.541720 0.580321 0.192216 0.449811
C40   C     C_R   0.554693 0.573160 0.102139 -0.019737
C41   C     C_R   0.509389 0.495284 0.047984 -0.022780
C42   C     C_3   0.831352 0.843937 0.480425 0.144913
C43   C     C_3   0.939119 0.795269 0.461940 -0.847689
C44   C     C_3   0.768362 0.073977 0.342620 -0.372753
C45   C     C_R   0.562847 0.568950 0.916808 0.092192
C46   C     C_3   0.888929 0.085708 0.382754 -0.334277
C47   C     C_3   0.951216 0.095394 0.306473 -0.935780
C48   C     C_3   0.201730 0.776722 0.385049 -0.415409
C49   C     C_3   0.131881 0.831449 0.297681 -0.392831
C50   C     C_3   0.054813 0.762010 0.242336 -0.861952
C51   C     C_3   0.461991 0.738649 0.217600 0.084827
C52   C     C_3   0.487085 0.841933 0.186636 -0.839232
C53   C     C_3   0.944282 0.649699 0.803479 0.101335
C54   C     C_3   0.970735 0.722655 0.881463 -0.832907
C55   C     C_3   0.676314 0.721702 0.937813 -0.430568
C56   C     C_R   0.510777 0.494619 0.954960 0.059706
C57   C     C_3   0.597416 0.812068 0.889295 -0.336836
C58   C     C_3   0.657773 0.885624 0.845070 -0.877323
C59   C     C_R   0.457700 0.420703 0.899622 0.136964
C60   C     C_R   0.408981 0.345976 0.938183 -0.226573
C61   C     C_R   0.410603 0.345111 0.031443 -0.199287
H1    H     H_    0.422169 0.363087 0.209757 0.168073
H2    H     H_    0.741521 0.653578 0.650390 0.152931
H3    H     H_    0.075291 0.607460 0.629605 0.162597
H4    H     H_    0.744826 0.411553 0.421464 0.204484
H5    H     H_    0.647538 0.701590 0.108335 0.199216
H6    H     H_    0.597951 0.622393 0.790505 0.159154
H7    H     H_    0.411762 0.368059 0.762655 0.149256
H8    H     H_    0.369191 0.288661 0.896119 0.144490
H9    H     H_    0.372195 0.287113 0.060379 0.141849
H10   H     H_    0.725660 0.239124 0.432927 0.145511
H11   H     H_    0.801765 0.790833 0.524945 0.159433
H12   H     H_    0.460543 0.153950 0.540019 0.149060
H13   H     H_    0.845634 0.915753 0.517627 0.137477
H14   H     H_    0.967069 0.844720 0.413653 0.258346
H15   H     H_    0.001738 0.785893 0.526813 0.221256
H16   H     H_    0.928873 0.719617 0.431153 0.265449
H17   H     H_    0.039258 0.098005 0.336587 0.245994
H18   H     H_    0.942117 0.029505 0.260636 0.271352
H19   H     H_    0.919200 0.166677 0.265060 0.258932
H20   H     H_    0.896346 0.154761 0.424787 0.221288
H21   H     H_    0.927696 0.019023 0.427770 0.229525
H22   H     H_    0.761684 0.003302 0.303281 0.246578
H23   H     H_    0.320505 0.085522 0.475633 0.141532
H24   H     H_    0.734989 0.136495 0.290561 0.184289
H25   H     H_    0.102409 0.695896 0.217646 0.257061
H26   H     H_    0.001287 0.733452 0.284651 0.277519
H27   H     H_    0.002572 0.805428 0.182019 0.249861
H28   H     H_    0.082397 0.899791 0.315982 0.230570
H29   H     H_    0.185956 0.856418 0.253880 0.229244
H30   H     H_    0.236111 0.703198 0.361614 0.237844
H31   H     H_    0.150338 0.760707 0.433959 0.207731
H32   H     H_    0.428220 0.748346 0.279997 0.148116
H33   H     H_    0.395099 0.713601 0.163426 0.123846
H34   H     H_    0.181256 0.973240 0.442780 0.140582
H35   H     H_    0.501106 0.837953 0.115801 0.234164
H36   H     H_    0.416802 0.900608 0.187502 0.210494
H37   H     H_    0.561022 0.865211 0.232426 0.280064
H38   H     H_    0.008897 0.583083 0.814982 0.147579
H39   H     H_    0.864007 0.622912 0.805306 0.122585
H40   H     H_    0.972624 0.683298 0.947759 0.204663
H41   H     H_    0.051792 0.749014 0.883204 0.260321
H42   H     H_    0.907401 0.789834 0.871969 0.258357
H43   H     H_    0.722035 0.915438 0.897659 0.260457
H44   H     H_    0.696080 0.846294 0.792169 0.266871
H45   H     H_    0.602449 0.757130 0.402625 0.241204
H46   H     H_    0.599135 0.950932 0.811707 0.251712
H47   H     H_    0.532659 0.785008 0.835371 0.224930
H48   H     H_    0.557053 0.853668 0.939979 0.220669
H49   H     H_    0.727461 0.685690 0.891958 0.199925
H50   H     H_    0.734709 0.751343 0.995528 0.199734
H51   H     H_    0.249547 0.338635 0.351704 0.133889
H52   H     H_    0.873785 0.330298 0.341759 0.157820
H53   H     H_    0.058241 0.301323 0.314688 0.148327
H54   H     H_    0.184974 0.548795 0.548647 0.134849
N1    N     N_R   0.222190 0.444670 0.452360 -0.105110
N2    N     N_R   0.776970 0.554790 0.547140 -0.146139
O1    O     O_R   0.366740 0.627160 0.477250 -0.628970
O2    O     O_3   0.559412 0.669351 0.238826 -0.618487
O3    O     O_3   0.941239 0.700875 0.719607 -0.615062
O4    O     O_R   0.544830 0.662520 0.507680 -0.615122
O5    O     O_R   0.410940 0.482340 0.616930 -0.618127
O6    O     O_R   0.589030 0.517700 0.647360 -0.621848
O7    O     O_R   0.455170 0.337480 0.492320 -0.618527
O8    O     O_R   0.633260 0.372840 0.522750 -0.636935
O9    O     O_R   0.410970 0.482300 0.352640 -0.633315
O10   O     O_R   0.589060 0.517660 0.383070 -0.613611
O11   O     O_3   0.755931 0.863604 0.396288 -0.619327
Zn1   Zn    Zn3+2 0.381090 0.476390 0.479680 0.927519
Zn2   Zn    Zn3+2 0.618910 0.523610 0.520320 0.936988

loop_
_geom_bond_atom_site_label_1
_geom_bond_atom_site_label_2
_ccdc_geom_bond_type
C61   H9    S    
C1    C21   S    
C27   C29   A    
C54   H40   S    
C47   H18   S    
O4    Zn2   S    
C44   H22   S    
C18   H45   S    
C37   H1    S    
C53   O3    S    
C33   H4    S    
C53   C54   S    
C53   H38   S    
C24   N2    A    
C37   C38   A    
C13   C18   A    
C23   H5    S    
C30   C31   A    
C11   C14   A    
C23   C40   A    
C29   C33   A    
C52   H36   S    
C58   H46   S    
C10   H23   S    
C12   C37   A    
C26   H3    S    
C6    C15   A    
C46   H21   S    
O8    Zn2   S    
C57   H48   S    
N1    Zn1   S    
C45   C56   A    
C44   C46   S    
C8    C9    A    
C48   H30   S    
C36   H51   S    
C51   O2    S    
C20   H10   S    
C35   H54   S    
C32   H52   S    
C9    C10   A    
C49   H29   S    
O5    Zn1   S    
C28   O10   A    
C42   O11   S    
C59   C60   A    
C53   H39   S    
C6    C44   S    
C27   C30   A    
C47   H19   S    
C5    H7    S    
C28   O9    A    
C8    C21   A    
C2    C45   A    
C43   H14   S    
C42   H13   S    
C22   C31   A    
C5    C59   A    
C13   C21   A    
C51   C52   S    
C54   H42   S    
C19   H12   S    
C24   C25   A    
C2    H6    S    
C39   C40   A    
O9    Zn1   S    
C25   C26   A    
C29   N2    A    
C4    O6    A    
C60   C61   A    
C8    C48   S    
C41   C56   A    
C12   C41   A    
C46   H20   S    
C31   C32   A    
C28   C38   S    
C23   C34   A    
C42   H11   S    
C17   C18   A    
C26   C27   A    
C4    O5    A    
C35   N1    A    
C34   C45   A    
N2    Zn2   S    
C50   H26   S    
C51   H32   S    
C30   C35   A    
C48   C49   S    
C49   C50   S    
C24   H2    S    
C7    C19   A    
C55   C57   S    
C55   H49   S    
C58   H43   S    
C42   C43   S    
C44   H24   S    
C36   N1    A    
C25   O3    S    
C6    C20   A    
C16   O8    A    
C43   H15   S    
C15   C17   A    
C9    H34   S    
C46   C47   S    
C7    C16   S    
C55   H50   S    
C14   C19   A    
C54   H41   S    
C49   H28   S    
C3    C5    A    
C17   O11   S    
C50   H27   S    
C43   H16   S    
C22   C36   A    
C22   H53   S    
C56   C59   A    
C58   H44   S    
C32   C33   A    
C2    C3    A    
C16   O7    A    
O10   Zn2   S    
O6    Zn2   S    
O1    Zn1   S    
C12   C61   A    
C11   C13   A    
C57   C58   S    
C38   C39   A    
C60   H8    S    
C39   O2    S    
C52   H37   S    
O7    Zn1   S    
C52   H35   S    
C1    O1    A    
C1    O4    A    
C10   C11   A    
C50   H25   S    
C51   H33   S    
C34   C55   S    
C57   H47   S    
C7    C20   A    
C48   H31   S    
C14   C15   A    
C40   C41   A    
C47   H17   S    
C3    C4    S    
