data_mof_unit_63869.cif
_audit_creation_date              2012-10-26T20:22:44-0400
_audit_creation_method            fapswitch 2.2
_symmetry_space_group_name_H-M    P1
_symmetry_Int_Tables_number       1
_space_group_crystal_system       triclinic
_cell_length_a                    19.441923
_cell_length_b                    14.42915
_cell_length_c                    13.139785
_cell_angle_alpha                 89.990132
_cell_angle_beta                  89.628894
_cell_angle_gamma                 89.76553
_cell_volume                      3686.00122479

loop_
_atom_site_label
_atom_site_type_symbol
_atom_type_description
_atom_site_fract_x
_atom_site_fract_y
_atom_site_fract_z
_atom_type_partial_charge
C1    C     C_1   0.500000 0.500002 0.050682 -0.019497
C2    C     C_R   0.500682 0.671289 0.499999 0.619562
C3    C     C_R   0.365982 0.496548 0.500404 0.618049
C4    C     C_R   0.634018 0.503452 0.499596 0.618049
C5    C     C_1   0.499446 0.227130 0.500017 0.029955
C6    C     C_1   0.500554 0.772870 0.499983 0.029956
C7    C     C_1   0.499623 0.142317 0.500030 -0.007967
C8    C     C_1   0.500377 0.857683 0.499970 -0.007966
C9    C     C_1   0.499883 0.042410 0.500013 0.022088
C10   C     C_1   0.500117 0.957590 0.499987 0.022088
C11   C     C_R   0.253652 0.417230 0.533476 0.012500
C12   C     C_1   0.500000 0.499997 0.949317 -0.019497
C13   C     C_R   0.746348 0.582770 0.466524 0.012500
C14   C     C_R   0.745668 0.423408 0.533327 0.020176
C15   C     C_R   0.254332 0.576592 0.466673 0.020177
C16   C     C_R   0.181652 0.418856 0.530534 -0.105392
C17   C     C_R   0.818349 0.581143 0.469465 -0.105392
C18   C     C_R   0.817562 0.424995 0.535889 -0.107870
C19   C     C_R   0.182438 0.575005 0.464111 -0.107870
C20   C     C_R   0.145721 0.497231 0.496944 -0.021555
C21   C     C_R   0.854278 0.502769 0.503056 -0.021555
C22   C     C_2   0.287428 0.329522 0.567647 0.565025
C23   C     C_R   0.290551 0.497236 0.501744 -0.034988
C24   C     C_2   0.712572 0.670478 0.432352 0.565026
C25   C     C_2   0.710818 0.336480 0.565640 0.580162
C26   C     C_2   0.289182 0.663520 0.434360 0.580162
C27   C     C_R   0.709449 0.502764 0.498256 -0.034989
C28   C     C_R   0.930206 0.501551 0.502097 0.354075
C29   C     C_R   0.069794 0.498449 0.497903 0.354076
C30   C     C_1   0.500001 0.500005 0.173617 0.152527
C31   C     C_1   0.499999 0.499995 0.826383 0.152528
C32   C     C_R   0.499318 0.328711 0.500001 0.619561
Cu1   Cu    Cu3+1 0.500000 0.500000 0.592680 1.089408
Cu2   Cu    Cu3+1 0.500000 0.500000 0.407320 1.089408
H1    H     H_    0.153237 0.358560 0.555724 0.194082
H2    H     H_    0.846763 0.641439 0.444275 0.194082
H3    H     H_    0.845166 0.364013 0.561478 0.189896
H4    H     H_    0.154834 0.635987 0.438522 0.189896
H5    H     H_    0.279403 0.191124 0.587268 0.351906
H6    H     H_    0.720597 0.808875 0.412731 0.351906
H7    H     H_    0.713898 0.221199 0.652582 0.351419
H8    H     H_    0.286102 0.778801 0.347418 0.351419
N1    N     N_1   0.500000 0.500000 0.268070 -0.161948
N2    N     N_1   0.500000 0.500000 0.731930 -0.161948
N3    N     N_R   0.034586 0.574596 0.466631 -0.207261
N4    N     N_R   0.965414 0.425403 0.533369 -0.207261
N5    N     N_R   0.966200 0.576083 0.468597 -0.207544
N6    N     N_R   0.033800 0.423917 0.531402 -0.207544
O1    O     O_R   0.500000 0.376050 0.578280 -0.444668
O2    O     O_R   0.251570 0.245830 0.561616 -0.684530
O3    O     O_2   0.654481 0.670313 0.397525 -0.514402
O4    O     O_R   0.748430 0.754170 0.438383 -0.684530
O5    O     O_2   0.656151 0.313747 0.527927 -0.526554
O6    O     O_R   0.742025 0.278648 0.637412 -0.682184
O7    O     O_2   0.343849 0.686253 0.472073 -0.526553
O8    O     O_R   0.257975 0.721352 0.362587 -0.682184
O9    O     O_R   0.500000 0.623950 0.421720 -0.444668
O10   O     O_R   0.500000 0.623950 0.578280 -0.488491
O11   O     O_R   0.500000 0.376050 0.421720 -0.488491
O12   O     O_R   0.400140 0.500000 0.578290 -0.447175
O13   O     O_R   0.599860 0.500000 0.421710 -0.447175
O14   O     O_R   0.599860 0.500000 0.578290 -0.488806
O15   O     O_R   0.400140 0.500000 0.421710 -0.488806
O16   O     O_2   0.345519 0.329687 0.602475 -0.514401

loop_
_geom_bond_atom_site_label_1
_geom_bond_atom_site_label_2
_ccdc_geom_bond_type
C24   O4    S    
Cu2   O9    S    
C2    O10   A    
C28   N5    A    
Cu1   O10   S    
C19   H4    S    
C3    O15   A    
C14   C27   A    
C18   C21   A    
C9    C10   T    
C14   C18   A    
C11   C22   S    
C3    C23   S    
C19   C20   A    
C13   C17   A    
C22   O2    S    
C5    C32   S    
C26   O7    D    
H5    O2    S    
C24   O3    D    
C15   C23   A    
Cu1   Cu2   S    
C2    O9    A    
C12   C31   S    
C3    O12   A    
C15   C19   A    
C28   N4    A    
C2    C6    S    
C1    C12   T    
C11   C23   A    
C16   C20   A    
C17   H2    S    
C21   C28   S    
C25   O5    D    
Cu1   O12   S    
C5    C7    T    
C20   C29   S    
N3    N5    A    
C14   C25   S    
Cu2   O11   S    
C30   N1    T    
N4    N6    A    
H7    O6    S    
Cu2   O15   S    
C32   O1    A    
C31   N2    T    
C29   N6    A    
Cu1   O1    S    
C1    C30   S    
C16   H1    S    
C4    O14   A    
C4    C27   S    
C25   O6    S    
C8    C10   S    
C11   C16   A    
C7    C9    S    
C13   C27   A    
C15   C26   S    
C6    C8    T    
C32   O11   A    
H8    O8    S    
H6    O4    S    
Cu1   N2    S    
C22   O16   D    
C4    O13   A    
C18   H3    S    
Cu2   O13   S    
C17   C21   A    
Cu2   N1    S    
C13   C24   S    
C29   N3    A    
Cu1   O14   S    
C26   O8    S    
