data_mof_unit_11019.cif
_audit_creation_date              2012-12-10T17:19:26-0500
_audit_creation_method            fapswitch 2.2
_symmetry_space_group_name_H-M    P1
_symmetry_Int_Tables_number       1
_space_group_crystal_system       triclinic
_cell_length_a                    15.11561
_cell_length_b                    10.888846
_cell_length_c                    9.717291
_cell_angle_alpha                 91.117542
_cell_angle_beta                  88.410871
_cell_angle_gamma                 97.163817
_cell_volume                      1586.08071419

loop_
_atom_site_label
_atom_site_type_symbol
_atom_type_description
_atom_site_fract_x
_atom_site_fract_y
_atom_site_fract_z
_atom_type_partial_charge
C1    C     C_R   0.493899 0.261978 0.498332 0.821099
C2    C     C_R   0.910424 0.595504 0.578727 0.068808
C3    C     C_R   0.941845 0.375919 0.291839 -0.214418
C4    C     C_R   0.033928 0.377883 0.285158 0.151180
C5    C     C_R   0.088129 0.447613 0.386010 0.026738
C6    C     C_R   0.046695 0.524220 0.482150 -0.044165
C7    C     C_R   0.097797 0.603900 0.576745 0.033378
C8    C     C_R   0.053738 0.693123 0.653676 0.177790
C9    C     C_R   0.961061 0.682573 0.659567 -0.174019
C10   C     C_R   0.180782 0.443193 0.396429 0.093611
C11   C     C_R   0.230762 0.510823 0.500085 -0.088216
C12   C     C_R   0.328726 0.503746 0.501397 0.900384
C13   C     C_R   0.189132 0.589841 0.591904 0.067390
C14   C     C_R   0.370446 0.088239 0.676168 0.141806
C15   C     C_R   0.349884 0.036012 0.805364 -0.152384
C16   C     C_R   0.399409 0.945849 0.851742 0.198924
C17   C     C_R   0.455169 0.890985 0.758031 -0.190437
C18   C     C_R   0.470240 0.937908 0.623301 0.031111
C19   C     C_R   0.444248 0.054828 0.600288 0.045990
C20   C     C_R   0.485522 0.126288 0.492414 -0.068753
C21   C     C_R   0.526037 0.067052 0.383422 -0.160257
C22   C     C_R   0.528188 0.940218 0.386503 -0.179065
C23   C     C_R   0.502345 0.738280 0.502154 0.777408
C24   C     C_R   0.503991 0.873923 0.507621 -0.088685
C25   C     C_R   0.618977 0.690811 0.131008 0.212383
C26   C     C_R   0.663204 0.784785 0.048905 -0.215817
C27   C     C_R   0.662218 0.775916 0.908754 -0.255036
C28   C     C_R   0.614408 0.675322 0.847236 -0.143231
C29   C     C_R   0.557570 0.586817 0.922461 0.127033
C30   C     C_R   0.557284 0.591231 0.072050 0.159293
C31   C     C_R   0.448458 0.413291 0.073174 0.205853
C32   C     C_R   0.440721 0.424026 0.929301 0.237524
C33   C     C_R   0.670550 0.501702 0.498499 0.785915
C34   C     C_R   0.817482 0.586617 0.585638 -0.231567
C35   C     C_R   0.766853 0.507909 0.494485 -0.054060
C36   C     C_R   0.808456 0.438958 0.395575 -0.233597
C37   C     C_R   0.901084 0.444492 0.390779 0.080597
C38   C     C_R   0.952977 0.521452 0.483790 0.087773
Cu1   Cu    Cu3+1 0.499990 0.499990 0.640660 0.991232
Cu2   Cu    Cu3+1 0.500010 0.500010 0.359340 1.013752
H1    H     H_    0.784601 0.643430 0.658920 0.135200
H2    H     H_    0.293830 0.061114 0.866578 0.208530
H3    H     H_    0.486083 0.814928 0.794549 0.203863
H4    H     H_    0.550135 0.895457 0.293981 0.173187
H5    H     H_    0.706640 0.860345 0.094956 0.151662
H6    H     H_    0.701854 0.845175 0.846928 0.162361
H7    H     H_    0.622061 0.673991 0.738707 0.197894
H8    H     H_    0.768452 0.379685 0.323731 0.147652
H9    H     H_    0.901162 0.320785 0.217462 0.168430
H10   H     H_    0.928565 0.748052 0.722501 0.160659
H11   H     H_    0.554197 0.118024 0.294608 0.173313
N1    N     N_R   0.500860 0.501210 0.147910 -0.220616
N2    N     N_R   0.500890 0.501290 0.852040 -0.228247
O1    O     O_R   0.499990 0.319640 0.618810 -0.564360
O2    O     O_R   0.500000 0.319660 0.381240 -0.557387
O3    O     O_R   0.370250 0.499960 0.618800 -0.527571
O4    O     O_R   0.370260 0.499980 0.381230 -0.537365
O5    O     O_R   0.500000 0.680340 0.618760 -0.615353
O6    O     O_R   0.500010 0.680360 0.381190 -0.545526
O7    O     O_R   0.629740 0.500020 0.618770 -0.602365
O8    O     O_R   0.629750 0.500040 0.381200 -0.560762
I1    I     I_    0.266310 0.151419 0.565052 -0.298678
I2    I     I_    0.380127 0.878270 0.054333 -0.299068
I3    I     I_    0.384683 0.244291 0.159233 -0.273587
N3    N     N_3   0.652595 0.691554 0.265897 -0.512972
H12   H     H_    0.656369 0.779986 0.310351 0.173522
H13   H     H_    0.718714 0.672326 0.256526 0.209902
I4    I     I_    0.314680 0.349988 0.855278 -0.224238
I5    I     I_    0.072177 0.274462 0.107676 -0.328647
N4    N     N_3   0.225927 0.363921 0.308469 -0.526822
H14   H     H_    0.195315 0.272859 0.316002 0.282842
H15   H     H_    0.228678 0.397874 0.208504 0.282152
I6    I     I_    0.260817 0.668960 0.766368 -0.318401
N5    N     N_3   0.098703 0.807133 0.706897 -0.561808
H16   H     H_    0.155501 0.837188 0.647008 0.264035
H17   H     H_    0.112530 0.797694 0.810578 0.265303

loop_
_geom_bond_atom_site_label_1
_geom_bond_atom_site_label_2
_ccdc_geom_bond_type
C23   O5    A    
C28   H7    S    
C19   C20   A    
C31   N1    A    
C3    H9    S    
C7    C8    A    
C23   O6    A    
C26   C27   A    
C29   C30   A    
N5    H17   S    
C18   C24   A    
C28   C29   A    
C18   C19   A    
C5    C6    A    
Cu1   O1    S    
C15   C16   A    
C14   I1    S    
C34   C35   A    
C26   H5    S    
C22   H4    S    
C31   C32   A    
C8    C9    A    
N3    H13   S    
C23   C24   S    
C6    C38   A    
N4    H14   S    
C16   I2    S    
C32   I4    S    
C2    C34   A    
Cu2   O6    S    
C21   C22   A    
C34   H1    S    
C31   I3    S    
C4    I5    S    
N5    H16   S    
C25   N3    S    
Cu1   Cu2   S    
C16   C17   A    
C25   C26   A    
Cu2   N1    S    
Cu1   O5    S    
Cu2   O8    S    
C35   C36   A    
C1    O1    A    
C17   H3    S    
C37   C38   A    
C2    C38   A    
Cu1   O3    S    
Cu2   O2    S    
C8    N5    S    
C17   C18   A    
C12   O3    A    
C12   O4    A    
C10   N4    S    
C27   H6    S    
C13   I6    S    
C33   O7    A    
C22   C24   A    
C3    C4    A    
C32   N2    A    
C21   H11   S    
C25   C30   A    
C30   N1    A    
C36   C37   A    
C1    C20   S    
Cu2   O4    S    
C14   C19   A    
C9    H10   S    
C15   H2    S    
C4    C5    A    
C11   C12   S    
C6    C7    A    
C1    O2    A    
C5    C10   A    
C11   C13   A    
Cu1   N2    S    
C29   N2    A    
Cu1   O7    S    
C33   C35   S    
C36   H8    S    
C10   C11   A    
C7    C13   A    
C20   C21   A    
C3    C37   A    
C33   O8    A    
N3    H12   S    
C27   C28   A    
C14   C15   A    
N4    H15   S    
C2    C9    A    
