data_mof_unit_42851.cif
_audit_creation_date              2013-03-05T16:12:50-0500
_audit_creation_method            fapswitch 2.2
_symmetry_space_group_name_H-M    P1
_symmetry_Int_Tables_number       1
_space_group_crystal_system       triclinic
_cell_length_a                    10.64215
_cell_length_b                    9.794401
_cell_length_c                    27.754543
_cell_angle_alpha                 90.101478
_cell_angle_beta                  89.929203
_cell_angle_gamma                 89.988582
_cell_volume                      2892.9459258

loop_
_atom_site_label
_atom_site_type_symbol
_atom_site_description
_atom_site_fract_x
_atom_site_fract_y
_atom_site_fract_z
_atom_type_partial_charge
O1    O     O_R   0.316770 0.614620 0.500000 -0.631926
O2    O     O_R   0.683230 0.385380 0.500000 -0.624838
O3    O     O_R   0.683230 0.614620 0.500000 -0.629875
O4    O     O_R   0.316770 0.385380 0.500000 -0.624708
C1    C     C_R   0.260399 0.500050 0.500409 0.910873
C2    C     C_R   0.739617 0.500008 0.499520 0.914264
O5    O     O_R   0.500030 0.614650 0.428760 -0.581087
O6    O     O_R   0.499970 0.385350 0.571240 -0.574623
O7    O     O_R   0.499970 0.614650 0.571240 -0.582856
O8    O     O_R   0.500030 0.385350 0.428760 -0.574474
C3    C     C_R   0.500293 0.500126 0.405660 0.950366
C4    C     C_R   0.498513 0.500379 0.594340 0.947482
Zn1   Zn    Zn3+2 0.500000 0.653120 0.500000 0.960938
Zn2   Zn    Zn3+2 0.500000 0.346880 0.500000 0.976702
C5    C     C_R   0.401156 0.478475 0.176677 0.610900
C6    C     C_R   0.601998 0.480130 0.823232 0.611158
O9    O     O_2   0.297976 0.446444 0.202608 -0.495922
O10   O     O_2   0.704879 0.447596 0.797162 -0.492736
N1    N     N_R   0.511387 0.504450 0.200090 -0.306931
N2    N     N_R   0.491732 0.506750 0.799956 -0.312120
C7    C     C_R   0.619049 0.537374 0.176110 0.541957
C8    C     C_R   0.384452 0.540757 0.824059 0.544274
C9    C     C_R   0.493878 0.627727 0.276561 0.046465
C10   C     C_R   0.504406 0.629935 0.723267 0.037799
C11   C     C_R   0.497403 0.627474 0.327138 0.442288
C12   C     C_R   0.496691 0.628875 0.672842 0.429241
C13   C     C_R   0.515973 0.377737 0.326236 0.322904
C14   C     C_R   0.483029 0.378820 0.673814 0.324018
C15   C     C_R   0.527909 0.381261 0.275932 0.429781
C16   C     C_R   0.473735 0.382928 0.724235 0.428897
C17   C     C_R   0.512051 0.504685 0.251484 0.078897
C18   C     C_R   0.490502 0.506700 0.748582 0.080900
C19   C     C_R   0.505471 0.524671 0.100897 -0.131339
C20   C     C_R   0.498171 0.526416 0.899179 -0.133417
C21   C     C_R   0.394972 0.488493 0.126181 -0.144165
C22   C     C_R   0.608484 0.490019 0.873748 -0.146099
C23   C     C_R   0.282420 0.464257 0.100570 0.575272
C24   C     C_R   0.721101 0.465356 0.899251 0.576497
C25   C     C_R   0.618502 0.547191 0.125977 -0.040307
C26   C     C_R   0.385183 0.549949 0.874207 -0.042582
C27   C     C_R   0.504386 0.501529 0.352391 -0.389296
C28   C     C_R   0.492547 0.502451 0.647601 -0.386777
C29   C     C_R   0.386396 0.555819 0.975462 0.078273
C30   C     C_R   0.617438 0.554816 0.024725 0.078070
C31   C     C_R   0.615487 0.529482 0.974535 -0.005725
C32   C     C_R   0.388262 0.529461 0.025544 -0.005568
C33   C     C_R   0.500181 0.538224 0.949705 0.038634
C34   C     C_R   0.503578 0.537265 0.050411 0.037521
C35   C     C_R   0.276663 0.594751 0.949729 0.183540
C36   C     C_R   0.727287 0.592734 0.050615 0.184391
C37   C     C_R   0.276889 0.588010 0.899489 -0.170464
C38   C     C_R   0.726981 0.585085 0.100837 -0.172319
O11   O     O_2   0.278000 0.566973 0.799322 -0.593986
O12   O     O_2   0.725676 0.562079 0.200952 -0.598226
C39   C     C_R   0.281295 0.483417 0.050411 -0.339043
C40   C     C_R   0.722331 0.483645 0.949474 -0.338877
H1    H     H_    0.192356 0.615992 0.880133 0.182349
H2    H     H_    0.811546 0.612428 0.120309 0.182188
H3    H     H_    0.198308 0.454682 0.030493 0.175209
H4    H     H_    0.805314 0.454323 0.969252 0.175301
C41   C     C_R   0.064229 0.492772 0.544942 0.147699
C42   C     C_R   0.935840 0.507095 0.454961 0.150222
C43   C     C_R   0.933208 0.493746 0.544344 0.132933
C44   C     C_R   0.066877 0.508337 0.455595 0.128044
C45   C     C_R   0.872111 0.500101 0.499447 -0.117209
C46   C     C_R   0.127947 0.500267 0.500467 -0.117470
C47   C     C_R   0.588389 0.072211 0.525393 -0.060380
C48   C     C_R   0.411910 0.927778 0.474439 -0.067155
C49   C     C_R   0.411604 0.071986 0.474611 -0.059915
C50   C     C_R   0.588075 0.928004 0.525567 -0.064753
H5    H     H_    0.659051 0.127265 0.545562 0.123153
H6    H     H_    0.341821 0.872751 0.453952 0.148243
H7    H     H_    0.340909 0.126859 0.454462 0.124203
H8    H     H_    0.658154 0.873160 0.546060 0.147317
N3    N     N_R   0.500000 0.857200 0.500000 -0.084616
N4    N     N_R   0.500000 0.142800 0.500000 -0.071930
O13   O     O_3   0.524916 0.253611 0.349764 -0.578654
C51   C     C_3   0.407654 0.186820 0.347110 -0.199697
H9    H     H_    0.380715 0.163522 0.309288 0.199772
H10   H     H_    0.332674 0.247834 0.364978 0.134476
H11   H     H_    0.414921 0.088004 0.366339 0.174115
O14   O     O_3   0.471835 0.254715 0.650219 -0.579637
C52   C     C_3   0.587258 0.184324 0.653171 -0.193469
H12   H     H_    0.611747 0.158144 0.690950 0.202326
H13   H     H_    0.664610 0.243899 0.636358 0.131587
H14   H     H_    0.578449 0.086790 0.633109 0.176545
O15   O     O_3   0.542702 0.261860 0.249816 -0.588627
C53   C     C_3   0.670337 0.223418 0.251025 -0.250602
H15   H     H_    0.701003 0.197196 0.288159 0.188488
H16   H     H_    0.731798 0.304472 0.235795 0.187973
H17   H     H_    0.682559 0.130786 0.228447 0.185039
O16   O     O_3   0.459624 0.263957 0.750504 -0.590208
C54   C     C_3   0.331812 0.226086 0.750133 -0.252102
H18   H     H_    0.299443 0.199428 0.713221 0.189323
H19   H     H_    0.271290 0.307645 0.765692 0.187455
H20   H     H_    0.320252 0.133862 0.772850 0.184707
O17   O     O_3   0.179231 0.409240 0.124449 -0.551926
C55   C     C_3   0.067032 0.477817 0.112282 -0.257313
H21   H     H_    0.024864 0.431323 0.079596 0.150819
H22   H     H_    0.080505 0.589854 0.107460 0.144870
H23   H     H_    0.998928 0.463849 0.142152 0.217932
O18   O     O_3   0.824365 0.410923 0.875178 -0.552157
C56   C     C_3   0.936298 0.480067 0.887383 -0.257322
H24   H     H_    0.978776 0.433863 0.920008 0.150356
H25   H     H_    0.922316 0.592039 0.892339 0.145245
H26   H     H_    0.004412 0.466426 0.857477 0.217484
O19   O     O_3   0.504159 0.751884 0.648447 -0.586154
C57   C     C_3   0.381168 0.802372 0.641405 -0.226957
H27   H     H_    0.387162 0.898651 0.620527 0.191373
H28   H     H_    0.333976 0.826058 0.676142 0.151767
H29   H     H_    0.322292 0.729805 0.620373 0.159417
O20   O     O_3   0.485328 0.749857 0.351793 -0.590315
C58   C     C_3   0.605437 0.809998 0.356110 -0.246583
H30   H     H_    0.596512 0.904869 0.377740 0.194304
H31   H     H_    0.644523 0.838610 0.320351 0.165051
H32   H     H_    0.672321 0.741669 0.375240 0.161735
C59   C     C_3   0.529164 0.763217 0.749283 -0.713241
H33   H     H_    0.611321 0.815290 0.732822 0.248958
H34   H     H_    0.446011 0.830963 0.746790 0.233801
H35   H     H_    0.550910 0.749201 0.787992 0.212385
C60   C     C_3   0.469559 0.757939 0.248829 -0.778247
H36   H     H_    0.446740 0.845821 0.272520 0.267343
H37   H     H_    0.553672 0.784937 0.227175 0.238097
H38   H     H_    0.388295 0.743430 0.224312 0.235073
C61   C     C_3   0.164121 0.661174 0.973131 -0.960407
H39   H     H_    0.135006 0.752406 0.952185 0.255169
H40   H     H_    0.084933 0.588066 0.973635 0.226800
H41   H     H_    0.184425 0.698085 0.010099 0.260747
C62   C     C_3   0.840027 0.659157 0.027458 -0.961130
H42   H     H_    0.869757 0.749554 0.048830 0.255029
H43   H     H_    0.918832 0.585562 0.026494 0.226554
H44   H     H_    0.819641 0.697314 0.990698 0.260764
C63   C     C_3   0.134453 0.484204 0.592560 -0.873806
H45   H     H_    0.237801 0.483055 0.588877 0.221958
H46   H     H_    0.110753 0.573920 0.615337 0.234863
H47   H     H_    0.108356 0.388664 0.611588 0.250492
C64   C     C_3   0.865603 0.512633 0.407297 -0.875675
H48   H     H_    0.762272 0.509038 0.410909 0.219685
H49   H     H_    0.888482 0.609093 0.388249 0.236353
H50   H     H_    0.892531 0.423874 0.384577 0.248956
C65   C     C_3   0.855773 0.488212 0.590546 -0.879144
H51   H     H_    0.795161 0.396123 0.589980 0.224624
H52   H     H_    0.911404 0.483807 0.624108 0.254151
H53   H     H_    0.795211 0.580317 0.593076 0.241722
C66   C     C_3   0.144325 0.517433 0.409446 -0.868699
H54   H     H_    0.204067 0.610343 0.410480 0.247231
H55   H     H_    0.205810 0.426303 0.406383 0.219589
H56   H     H_    0.088628 0.522784 0.375917 0.254119

loop_
_geom_bond_atom_site_label_1
_geom_bond_atom_site_label_2
_geom_bond_distance
_ccdc_geom_bond_type
O15   C53   1.409915 S    
C43   C45   1.407735 A    
C54   H18   1.111901 S    
C39   H3    1.079600 S    
C44   C66   1.525007 S    
C13   C15   1.402277 A    
O3    C2    1.272811 A    
N1    C17   1.426430 S    
C23   O17   1.391134 S    
C66   H54   1.110548 S    
C41   C63   1.521522 S    
C9    C60   1.513197 S    
O13   C51   1.411055 S    
C48   N3    1.364957 A    
C5    N1    1.365498 A    
C64   H49   1.110369 S    
C10   C59   1.513987 S    
C19   C25   1.407753 A    
O1    C1    1.272607 A    
N1    C7    1.363345 A    
C10   C12   1.402036 A    
C62   H42   1.111127 S    
C59   H34   1.108254 S    
C7    O12   1.350183 S    
C51   H10   1.112447 S    
C47   H5    1.081549 S    
C57   H27   1.109488 S    
C49   N4    1.364815 A    
C14   C28   1.417323 A    
C41   C43   1.394489 A    
O7    Zn1   2.013468 S    
C60   H38   1.110097 S    
C4    C28   1.479619 S    
C11   O20   1.385054 S    
C41   C46   1.409662 A    
C2    C45   1.410022 S    
Zn1   N3    1.998841 S    
C31   C40   1.405346 A    
C48   C49   1.412432 A    
C35   C37   1.395832 A    
C32   C39   1.405320 A    
C50   H8    1.081762 S    
C63   H47   1.110474 S    
C36   C38   1.396030 A    
O19   C57   1.413014 S    
C49   H7    1.081467 S    
C37   H1    1.083816 S    
C42   C44   1.394698 A    
O3    Zn1   1.986013 S    
C6    N2    1.365527 A    
C58   H32   1.112855 S    
C25   C38   1.398746 A    
C54   H19   1.112354 S    
O2    C2    1.273210 A    
Zn2   N4    1.998841 S    
C5    C21   1.406707 A    
O20   C58   1.412651 S    
C66   H55   1.109693 S    
O17   C55   1.411515 S    
C8    O11   1.350226 S    
C31   C33   1.410776 A    
C64   H50   1.110406 S    
C32   C34   1.410722 A    
C15   O15   1.383639 S    
C14   O14   1.384921 S    
C16   O16   1.383735 S    
O8    Zn2   2.013473 S    
C59   H35   1.108061 S    
C11   C27   1.421821 A    
C51   H9    1.111817 S    
C29   C35   1.421996 A    
C40   H4    1.079523 S    
C48   H6    1.081801 S    
C9    C17   1.403832 A    
O5    C3    1.291003 A    
C10   C18   1.405435 A    
C36   C62   1.508557 S    
C61   H41   1.108790 S    
C13   C27   1.417327 A    
C52   H12   1.111186 S    
C7    C25   1.394926 A    
C53   H17   1.109265 S    
O6    C4    1.295389 A    
C8    C26   1.394624 A    
C43   C65   1.524465 S    
C56   H25   1.114976 S    
C60   H36   1.108937 S    
C38   H2    1.083735 S    
C6    O10   1.349408 S    
C52   H13   1.111785 S    
C53   H16   1.112402 S    
C55   H21   1.109657 S    
C54   H20   1.109248 S    
C55   H22   1.114973 S    
O8    C3    1.295127 A    
C61   H39   1.111126 S    
C20   C26   1.407789 A    
C65   H53   1.110665 S    
O1    Zn1   1.986161 S    
C26   C37   1.398736 A    
C56   H24   1.109694 S    
C66   H56   1.105249 S    
C30   C31   1.414651 A    
C12   C28   1.422332 A    
C61   H40   1.106059 S    
C58   H30   1.109364 S    
N2    C18   1.425960 S    
C30   C36   1.422044 A    
C5    O9    1.349486 S    
O6    Zn2   2.012156 S    
C42   C45   1.409725 A    
C21   C23   1.413501 A    
N2    C8    1.363484 A    
O4    C1    1.273221 A    
C13   O13   1.384350 S    
C12   O19   1.385310 S    
C20   C33   1.407067 A    
C55   H23   1.109182 S    
C35   C61   1.508578 S    
C64   H48   1.104681 S    
C57   H29   1.112706 S    
C47   C50   1.412441 A    
C62   H44   1.108840 S    
C65   H52   1.105244 S    
C14   C16   1.403291 A    
C15   C17   1.397629 A    
C65   H51   1.109080 S    
C1    C46   1.409572 S    
C16   C18   1.398400 A    
C51   H11   1.108783 S    
C63   H45   1.104514 S    
C22   C24   1.413611 A    
O16   C54   1.409976 S    
C19   C21   1.414161 A    
C57   H28   1.110638 S    
C3    C27   1.479135 S    
C56   H26   1.109207 S    
C20   C22   1.414347 A    
C9    C11   1.404287 A    
C42   C64   1.521319 S    
O4    Zn2   1.986013 S    
O18   C56   1.411680 S    
O2    Zn2   1.986161 S    
C29   C32   1.414392 A    
C60   H37   1.109834 S    
O7    C4    1.290917 A    
C23   C39   1.405124 A    
O5    Zn1   2.012162 S    
C52   H14   1.108908 S    
C24   C40   1.405125 A    
C53   H15   1.111939 S    
C24   O18   1.391058 S    
O14   C52   1.411020 S    
C50   N3    1.364976 A    
C63   H46   1.110376 S    
C19   C34   1.407034 A    
C47   N4    1.364784 A    
C58   H31   1.112004 S    
C59   H33   1.110543 S    
C29   C33   1.415769 A    
C6    C22   1.407007 A    
C30   C34   1.415778 A    
C44   C46   1.407846 A    
C62   H43   1.106020 S    
