data_mof_unit_35121.cif
_audit_creation_date              2012-12-11T15:36:41-0500
_audit_creation_method            fapswitch 2.2
_symmetry_space_group_name_H-M    P1
_symmetry_Int_Tables_number       1
_space_group_crystal_system       triclinic
_cell_length_a                    15.024445
_cell_length_b                    15.057803
_cell_length_c                    34.817269
_cell_angle_alpha                 91.33683
_cell_angle_beta                  91.755776
_cell_angle_gamma                 60.196998
_cell_volume                      6831.58037925

loop_
_atom_site_label
_atom_site_type_symbol
_atom_type_description
_atom_site_fract_x
_atom_site_fract_y
_atom_site_fract_z
_atom_type_partial_charge
C1    C     C_R   0.611131 0.301791 0.444088 0.544505
C2    C     C_R   0.742692 0.657436 0.178952 0.031101
C3    C     C_R   0.619290 0.140957 0.829339 0.030877
C4    C     C_R   0.683232 0.167691 0.850828 -0.121229
C5    C     C_R   0.710449 0.135888 0.888672 -0.124713
C6    C     C_R   0.594154 0.250798 0.772836 -0.084250
C7    C     C_R   0.596601 0.263307 0.733248 0.144362
C8    C     C_R   0.609253 0.183146 0.707949 0.055271
C9    C     C_R   0.616732 0.093761 0.722513 -0.117303
C10   C     C_R   0.615586 0.081715 0.762017 -0.134493
C11   C     C_R   0.606069 0.159421 0.787534 -0.006739
C12   C     C_R   0.535669 0.208979 0.641121 0.128630
C13   C     C_R   0.815208 0.587279 0.153537 -0.118394
C14   C     C_R   0.539254 0.232714 0.602855 -0.156400
C15   C     C_R   0.708398 0.213912 0.614143 0.127603
C16   C     C_R   0.704743 0.189452 0.652438 -0.144225
C17   C     C_R   0.617361 0.191305 0.666369 0.022614
C18   C     C_R   0.621624 0.242571 0.589631 0.012366
C19   C     C_R   0.045081 0.739459 0.048745 0.540465
C20   C     C_R   0.747241 0.746295 0.063949 0.543160
C21   C     C_R   0.751355 0.040464 0.050781 0.540682
C22   C     C_R   0.016379 0.722690 0.939535 0.542574
C23   C     C_R   0.717256 0.730271 0.954817 0.540627
C24   C     C_R   0.813982 0.614471 0.115427 -0.132341
C25   C     C_R   0.721407 0.024369 0.942070 0.541190
C26   C     C_R   0.725961 0.557021 0.232190 0.179415
C27   C     C_R   0.717838 0.546113 0.271774 0.182895
C28   C     C_R   0.730463 0.611769 0.298368 -0.004112
C29   C     C_R   0.758879 0.681299 0.285722 -0.165894
C30   C     C_R   0.766764 0.692127 0.246700 -0.162313
C31   C     C_R   0.747155 0.633101 0.219759 -0.008887
C32   C     C_R   0.593374 0.672833 0.345370 -0.131800
C33   C     C_R   0.592808 0.609840 0.449068 0.554976
C34   C     C_R   0.558272 0.678082 0.382350 0.104156
C35   C     C_R   0.736714 0.582450 0.406287 0.115849
C36   C     C_R   0.769429 0.578844 0.368402 -0.103615
C37   C     C_R   0.697938 0.620575 0.338168 -0.027346
C38   C     C_R   0.629723 0.628555 0.412895 0.046466
C39   C     C_R   0.098524 0.731211 0.085859 0.019867
C40   C     C_R   0.149447 0.636617 0.104730 -0.130727
C41   C     C_R   0.169587 0.632892 0.144183 -0.116410
C42   C     C_R   0.138741 0.723609 0.165249 0.023029
C43   C     C_R   0.098114 0.816855 0.145968 -0.134487
C44   C     C_R   0.303698 0.591293 0.442387 0.548212
C45   C     C_R   0.078351 0.820690 0.106405 -0.129915
C46   C     C_R   0.202173 0.750188 0.228599 -0.153969
C47   C     C_R   0.210019 0.741525 0.268520 -0.108947
C48   C     C_R   0.152141 0.707787 0.288066 0.034317
C49   C     C_R   0.083700 0.686347 0.267221 -0.064714
C50   C     C_R   0.078809 0.689735 0.227041 0.148139
C51   C     C_R   0.138977 0.722025 0.207502 0.026402
C52   C     C_R   0.202751 0.585277 0.342522 0.111820
C53   C     C_R   0.240606 0.557760 0.380092 -0.127603
C54   C     C_R   0.209551 0.728972 0.393573 -0.136361
C55   C     C_R   0.606043 0.299171 0.553490 0.547612
C56   C     C_R   0.170036 0.758866 0.356065 0.111150
C57   C     C_R   0.171085 0.685283 0.329695 0.069825
C58   C     C_R   0.247317 0.627922 0.405441 -0.031355
C59   C     C_R   0.724692 0.099803 0.087034 0.019717
C60   C     C_R   0.798542 0.115570 0.107036 -0.130031
C61   C     C_R   0.784327 0.147193 0.145429 -0.095798
C62   C     C_R   0.695876 0.164177 0.164149 0.043679
C63   C     C_R   0.617579 0.158683 0.143187 -0.137221
C64   C     C_R   0.632042 0.126222 0.104905 -0.134630
C65   C     C_R   0.608004 0.257289 0.223384 -0.153914
C66   C     C_R   0.588131 0.607038 0.558789 0.533799
C67   C     C_R   0.597772 0.262955 0.263124 -0.118142
C68   C     C_R   0.668775 0.182636 0.286482 -0.008829
C69   C     C_R   0.753153 0.098737 0.269625 -0.116127
C70   C     C_R   0.764773 0.092753 0.229711 0.149355
C71   C     C_R   0.690902 0.172562 0.206350 0.041847
C72   C     C_R   0.742210 0.174315 0.351787 -0.149098
C73   C     C_R   0.731767 0.198988 0.390946 0.133350
C74   C     C_R   0.550885 0.250322 0.384884 -0.133222
C75   C     C_R   0.562301 0.220162 0.345919 0.147022
C76   C     C_R   0.657604 0.189913 0.328719 0.004966
C77   C     C_R   0.297579 0.589231 0.551640 0.542192
C78   C     C_R   0.633143 0.245208 0.407008 0.006936
C79   C     C_R   0.693205 0.692510 0.918784 0.018458
C80   C     C_R   0.768911 0.601921 0.901496 -0.134731
C81   C     C_R   0.760151 0.582352 0.862634 -0.096900
C82   C     C_R   0.675898 0.653207 0.840603 0.044493
C83   C     C_R   0.595214 0.737840 0.858749 -0.138055
C84   C     C_R   0.603555 0.757191 0.897613 -0.131657
C85   C     C_R   0.588078 0.654863 0.779033 -0.156755
C86   C     C_R   0.582604 0.654490 0.739122 -0.139666
C87   C     C_R   0.665613 0.641927 0.717707 -0.007422
C88   C     C_R   0.739687 0.711953 0.102314 0.021216
C89   C     C_R   0.754444 0.629951 0.736585 -0.106066
C90   C     C_R   0.759283 0.634410 0.776819 0.150650
C91   C     C_R   0.675705 0.645134 0.798308 0.046509
C92   C     C_R   0.729117 0.557106 0.654258 -0.128076
C93   C     C_R   0.710758 0.548918 0.615120 -0.128874
C94   C     C_R   0.555356 0.714282 0.617802 -0.129178
C95   C     C_R   0.573144 0.721738 0.656871 -0.121666
C96   C     C_R   0.657959 0.641614 0.675570 0.029058
C97   C     C_R   0.621407 0.625699 0.596920 0.020275
C98   C     C_R   0.061842 0.700288 0.901309 0.018033
C99   C     C_R   0.664947 0.780482 0.127668 -0.132934
C100  C     C_R   0.078880 0.772801 0.883262 -0.128422
C101  C     C_R   0.101275 0.762785 0.844410 -0.124138
C102  C     C_R   0.107105 0.680118 0.823002 0.027050
C103  C     C_R   0.097063 0.603907 0.841564 -0.125238
C104  C     C_R   0.074700 0.613833 0.880490 -0.131598
C105  C     C_R   0.184019 0.583893 0.762574 -0.120464
C106  C     C_R   0.193353 0.580588 0.722891 -0.103066
C107  C     C_R   0.136408 0.669521 0.701147 0.024909
C108  C     C_R   0.070258 0.762125 0.719446 -0.127605
C109  C     C_R   0.060626 0.765490 0.759201 -0.123695
C110  C     C_R   0.666933 0.753547 0.165787 -0.131228
C111  C     C_R   0.117925 0.676450 0.781064 0.026287
C112  C     C_R   0.192039 0.724593 0.645123 -0.152853
C113  C     C_R   0.232484 0.705245 0.608537 -0.148054
C114  C     C_R   0.185949 0.573317 0.599084 -0.101884
C115  C     C_R   0.143264 0.592946 0.635829 0.148369
C116  C     C_R   0.152523 0.665475 0.659630 0.031501
C117  C     C_R   0.234403 0.626005 0.586078 -0.012106
C118  C     C_R   0.674050 0.077003 0.905806 0.021517
C119  C     C_R   0.604107 0.056522 0.885354 -0.133502
C120  C     C_R   0.577263 0.087925 0.847271 -0.123510
Cr1   Cr    Cr6+3 0.426010 0.422500 0.497000 0.991552
Cr2   Cr    Cr6+3 0.651300 0.426310 0.501970 1.042764
Cr3   Cr    Cr6+3 0.422670 0.651170 0.501050 1.009068
Cr4   Cr    Cr6+3 0.905130 0.911420 0.992650 1.007580
Cr5   Cr    Cr6+3 0.911860 0.682710 0.002320 1.007081
Cr6   Cr    Cr6+3 0.682710 0.906840 0.004710 1.008761
H1    H     H_    0.166391 0.566453 0.089605 0.122970
H2    H     H_    0.038678 0.894788 0.092734 0.128304
H3    H     H_    0.263926 0.757831 0.284052 0.129714
H4    H     H_    0.248744 0.774756 0.213974 0.113707
H5    H     H_    0.035980 0.663842 0.282116 0.132685
H6    H     H_    0.872818 0.560340 0.096535 0.120326
H7    H     H_    0.074594 0.887427 0.161923 0.115867
H8    H     H_    0.212740 0.784226 0.413211 0.121443
H9    H     H_    0.573556 0.115463 0.090127 0.121323
H10   H     H_    0.551168 0.319085 0.205821 0.118760
H11   H     H_    0.849950 0.542035 0.361736 0.106748
H12   H     H_    0.808916 0.036752 0.287407 0.094616
H13   H     H_    0.548749 0.171689 0.157275 0.103332
H14   H     H_    0.838478 0.550096 0.917158 0.121542
H15   H     H_    0.543667 0.827372 0.910107 0.126641
H16   H     H_    0.518209 0.788066 0.672926 0.106944
H17   H     H_    0.513888 0.662598 0.724841 0.122955
H18   H     H_    0.523326 0.663635 0.794972 0.114699
H19   H     H_    0.818068 0.621669 0.719998 0.102616
H20   H     H_    0.795069 0.494621 0.668373 0.097401
H21   H     H_    0.763133 0.479868 0.599754 0.129646
H22   H     H_    0.529131 0.793073 0.842263 0.101973
H23   H     H_    0.486227 0.775074 0.604612 0.124752
H24   H     H_    0.061435 0.557042 0.893612 0.129616
H25   H     H_    0.246385 0.509010 0.709133 0.121633
H26   H     H_    0.229704 0.514619 0.778867 0.106738
H27   H     H_    0.111157 0.821206 0.830823 0.104293
H28   H     H_    0.007772 0.837409 0.772835 0.102079
H29   H     H_    0.198668 0.780605 0.663246 0.111178
H30   H     H_    0.268843 0.747289 0.599032 0.131393
H31   H     H_    0.100739 0.539684 0.825547 0.107098
H32   H     H_    0.610410 0.808284 0.185267 0.108042
H33   H     H_    0.185605 0.514272 0.580946 0.126062
H34   H     H_    0.575433 0.010681 0.897885 0.123586
H35   H     H_    0.764327 0.152827 0.903887 0.123512
H36   H     H_    0.768976 0.172223 0.671838 0.103596
H37   H     H_    0.583733 0.312347 0.792252 0.116244
H38   H     H_    0.526864 0.067427 0.831396 0.103615
H39   H     H_    0.626498 0.032094 0.703277 0.122606
H40   H     H_    0.626465 0.009881 0.772652 0.108335
H41   H     H_    0.768682 0.731706 0.305965 0.119840
H42   H     H_    0.473008 0.251597 0.584361 0.130275
H43   H     H_    0.717577 0.207613 0.837678 0.098786
H44   H     H_    0.784412 0.749565 0.237304 0.131248
H45   H     H_    0.538466 0.707600 0.321818 0.112319
O1    O     O_R   0.324990 0.503440 0.453910 -0.526048
O2    O     O_R   0.639980 0.519500 0.542640 -0.501677
O3    O     O_R   0.500750 0.673190 0.545480 -0.527292
O4    O     O_R   0.336260 0.640450 0.538210 -0.501442
O5    O     O_3   0.499990 0.499990 0.500010 -0.238980
O6    O     O_R   0.834210 0.019400 0.034570 -0.522968
O7    O     O_R   0.002210 0.824620 0.031030 -0.502887
O8    O     O_R   0.024400 0.669340 0.039790 -0.516563
O9    O     O_R   0.830490 0.694950 0.045870 -0.501684
O10   O     O_R   0.675430 0.831160 0.051290 -0.518528
O11   O     O_R   0.698870 0.998880 0.039560 -0.501135
O12   O     O_R   0.522030 0.339050 0.458320 -0.519614
O13   O     O_R   0.811290 0.006780 0.950620 -0.517843
O14   O     O_R   0.980960 0.812920 0.953200 -0.501025
O15   O     O_R   0.001480 0.656720 0.955830 -0.520328
O16   O     O_R   0.809240 0.683250 0.968050 -0.502346
O17   O     O_R   0.652500 0.818540 0.967340 -0.520417
O18   O     O_R   0.677620 0.987170 0.961730 -0.501804
O19   O     O_3   0.833240 0.833660 0.999890 -0.234436
O20   O     O_R   0.676180 0.324490 0.458320 -0.467089
O21   O     O_R   0.643570 0.521510 0.464260 -0.483285
O22   O     O_R   0.504630 0.675350 0.460920 -0.491333
O23   O     O_R   0.339850 0.642450 0.459830 -0.486815
O24   O     O_R   0.321120 0.501280 0.538470 -0.523950
O25   O     O_R   0.518440 0.337050 0.536710 -0.515146
O26   O     O_R   0.672300 0.322330 0.542880 -0.477783
H46   H     H_    0.607501 0.856412 0.118512 0.127585
N1    N     N_2   0.450615 0.726985 0.387949 -0.481792
H47   H     H_    0.411520 0.711377 0.366399 0.244524
C121  C     C_3   0.403940 0.835582 0.395823 -0.286442
H48   H     H_    0.322036 0.866789 0.402733 0.123472
H49   H     H_    0.408561 0.875956 0.370288 0.119732
H50   H     H_    0.442861 0.850102 0.420831 0.163940
H51   H     H_    0.874356 0.512969 0.163490 0.105094
N2    N     N_2   0.808702 0.539220 0.437822 -0.498515
H52   H     H_    0.783670 0.576923 0.463762 0.244349
C122  C     C_3   0.917197 0.498670 0.431922 -0.315234
H53   H     H_    0.960175 0.468616 0.459468 0.135106
H54   H     H_    0.931423 0.559899 0.421834 0.135246
H55   H     H_    0.946208 0.434097 0.410956 0.145793
N3    N     N_2   0.133820 0.861689 0.344551 -0.527964
H56   H     H_    0.163154 0.899756 0.360817 0.237920
C123  C     C_3   0.023682 0.922328 0.339093 -0.312884
H57   H     H_    0.003228 0.999508 0.328738 0.128486
H58   H     H_    0.984892 0.930846 0.366696 0.136955
H59   H     H_    0.995566 0.886488 0.317325 0.153360
H60   H     H_    0.202811 0.560099 0.158727 0.119380
N4    N     N_2   0.012960 0.660606 0.206948 -0.535139
H61   H     H_    0.986763 0.690406 0.179946 0.259389
C124  C     C_3   0.038234 0.554841 0.210728 -0.317521
H62   H     H_    0.056685 0.516183 0.182163 0.125975
H63   H     H_    0.971515 0.552299 0.222136 0.157942
H64   H     H_    0.105270 0.511333 0.230437 0.158839
N5    N     N_2   0.207224 0.508908 0.316520 -0.527007
H65   H     H_    0.281012 0.449581 0.312719 0.266452
C125  C     C_3   0.136719 0.472656 0.324468 -0.331506
H66   H     H_    0.138321 0.421441 0.300713 0.135082
H67   H     H_    0.057140 0.537812 0.326701 0.147206
H68   H     H_    0.159012 0.429014 0.351702 0.125253
H69   H     H_    0.270461 0.479084 0.388643 0.131544
H70   H     H_    0.870617 0.096150 0.094018 0.119722
N6    N     N_2   0.478891 0.223524 0.323448 -0.526288
H71   H     H_    0.500326 0.177679 0.299173 0.257323
C126  C     C_3   0.394757 0.223720 0.342782 -0.331531
H72   H     H_    0.341450 0.218771 0.321150 0.132753
H73   H     H_    0.350164 0.296189 0.359072 0.142338
H74   H     H_    0.424121 0.157017 0.362224 0.142086
H75   H     H_    0.534095 0.330130 0.275705 0.145119
H76   H     H_    0.844991 0.152185 0.161208 0.113497
N7    N     N_2   0.850117 0.005979 0.213204 -0.531058
H77   H     H_    0.915794 0.975666 0.230296 0.243985
C127  C     C_3   0.828358 0.927880 0.198668 -0.292915
H78   H     H_    0.894238 0.871019 0.181808 0.157096
H79   H     H_    0.759453 0.960978 0.179363 0.165791
H80   H     H_    0.816105 0.888835 0.222921 0.136208
H81   H     H_    0.816127 0.147384 0.338892 0.089438
N8    N     N_2   0.819736 0.182510 0.413250 -0.481136
H82   H     H_    0.878577 0.178766 0.397479 0.235845
C128  C     C_3   0.855800 0.099697 0.440404 -0.293506
H83   H     H_    0.921294 0.095252 0.457636 0.132725
H84   H     H_    0.881821 0.025775 0.424928 0.119924
H85   H     H_    0.794235 0.112656 0.460429 0.152584
H86   H     H_    0.476527 0.282779 0.397775 0.132185
N9    N     N_2   0.688375 0.474984 0.284005 -0.486061
H87   H     H_    0.623695 0.507028 0.300498 0.249405
C129  C     C_3   0.770916 0.382245 0.300513 -0.302731
H88   H     H_    0.796745 0.398796 0.328623 0.142308
H89   H     H_    0.836813 0.345881 0.280902 0.139154
H90   H     H_    0.743406 0.327440 0.305094 0.156802
H91   H     H_    0.821966 0.515214 0.849242 0.124999
N10   N     N_2   0.846488 0.631988 0.795230 -0.534347
H92   H     H_    0.914187 0.592070 0.780605 0.242051
C130  C     C_3   0.830552 0.728361 0.811394 -0.286953
H93   H     H_    0.869088 0.759207 0.793664 0.137472
H94   H     H_    0.864047 0.715419 0.840954 0.169528
H95   H     H_    0.747781 0.786811 0.812871 0.151326
H96   H     H_    0.070295 0.839803 0.898704 0.124902
N11   N     N_2   0.702115 0.498617 0.205282 -0.490445
H97   H     H_    0.662107 0.536425 0.180794 0.251337
C131  C     C_3   0.782900 0.394341 0.198475 -0.291565
H98   H     H_    0.756676 0.340821 0.207183 0.174944
H99   H     H_    0.854743 0.376083 0.214756 0.127837
H100  H     H_    0.800794 0.382181 0.167417 0.117036
N12   N     N_2   0.095943 0.538075 0.650168 -0.532029
H101  H     H_    0.042013 0.576050 0.670966 0.255896
C132  C     C_3   0.070656 0.477009 0.624165 -0.328483
H102  H     H_    0.030451 0.444585 0.640019 0.133565
H103  H     H_    0.141644 0.411796 0.612533 0.143263
H104  H     H_    0.019177 0.525076 0.600479 0.146024
H105  H     H_    0.026285 0.831385 0.702958 0.103623
N13   N     N_2   0.583160 0.357665 0.719301 -0.529026
H106  H     H_    0.556855 0.374789 0.691261 0.258729
C133  C     C_3   0.666554 0.377062 0.728526 -0.309596
H107  H     H_    0.650060 0.450454 0.715604 0.159035
H108  H     H_    0.739434 0.315114 0.716683 0.131008
H109  H     H_    0.675371 0.382848 0.760113 0.150593
N14   N     N_2   0.447040 0.209101 0.654485 -0.519479
H110  H     H_    0.416950 0.178109 0.634870 0.240566
C134  C     C_3   0.368901 0.307376 0.668876 -0.303127
H111  H     H_    0.304071 0.300250 0.679779 0.146577
H112  H     H_    0.339460 0.364953 0.645553 0.152952
H113  H     H_    0.400085 0.334189 0.692916 0.165672
N15   N     N_2   0.797055 0.214732 0.601328 -0.487761
H114  H     H_    0.837687 0.228424 0.622818 0.233480
C135  C     C_3   0.862838 0.127549 0.577587 -0.292057
H115  H     H_    0.926578 0.137020 0.567012 0.132645
H116  H     H_    0.819405 0.121135 0.552286 0.155724
H117  H     H_    0.895761 0.056044 0.594565 0.126509

loop_
_geom_bond_atom_site_label_1
_geom_bond_atom_site_label_2
_ccdc_geom_bond_type
C8    C9    A    
C131  H100  S    
N15   C135  S    
N9    C129  S    
C15   N15   S    
C81   H91   S    
C101  C102  A    
C22   C98   S    
C19   O8    A    
C15   C18   A    
C134  H113  S    
C121  H49   S    
C121  H48   S    
C14   C18   A    
C95   C96   A    
C100  C101  A    
C72   C76   A    
C25   C118  S    
Cr4   O19   S    
C41   H60   S    
C1    O12   A    
C7    C8    A    
C20   O9    A    
C73   N8    S    
C55   O26   A    
C85   C86   A    
C56   C57   A    
C94   H23   S    
C89   H19   S    
C49   H5    S    
C125  H66   S    
N13   H106  S    
C29   C30   A    
C47   H3    S    
C33   O21   A    
C28   C37   S    
C66   C97   S    
C28   C29   A    
N12   C132  S    
N5    H65   S    
C21   C59   S    
C124  H64   S    
C77   C117  S    
C69   C70   A    
C109  C111  A    
C70   N7    S    
C54   C58   A    
Cr4   O14   S    
C80   C81   A    
C123  H58   S    
Cr1   O5    S    
C26   C31   A    
C106  C107  A    
C45   H2    S    
C128  H84   S    
C127  H78   S    
C54   H8    S    
C9    H39   S    
C50   N4    S    
C92   C96   A    
C108  C109  A    
C3    C4    A    
Cr6   O19   S    
C129  H88   S    
C41   C42   A    
C104  H24   S    
C43   H7    S    
C2    C13   A    
C118  C119  A    
C30   H44   S    
N5    C125  S    
C68   C69   A    
C131  H99   S    
C34   N1    S    
C135  H117  S    
C2    C110  A    
C134  H111  S    
C35   C36   A    
C44   C58   S    
C119  H34   S    
C127  H79   S    
C112  H29   S    
C12   C17   A    
Cr5   O8    S    
C48   C49   A    
C126  H72   S    
C66   O2    A    
C75   N6    S    
Cr5   O19   S    
N2    H52   S    
C9    C10   A    
Cr1   O25   S    
Cr4   O7    S    
C110  H32   S    
C25   O13   A    
C10   H40   S    
N15   H114  S    
Cr1   O12   S    
C128  H85   S    
C135  H116  S    
C55   O25   A    
C105  C111  A    
C64   H9    S    
C33   O22   A    
N1    H47   S    
C77   O4    A    
C60   H70   S    
C132  H102  S    
C1    C78   S    
C126  H73   S    
C102  C111  S    
C61   C62   A    
C23   C79   S    
Cr5   O9    S    
C85   H18   S    
C112  C113  A    
C34   C38   A    
N8    C128  S    
C86   H17   S    
Cr3   O5    S    
C6    C7    A    
Cr3   O22   S    
C113  H30   S    
C85   C91   A    
C21   O11   A    
C114  H33   S    
C54   C56   A    
C4    H43   S    
C92   H20   S    
C67   C68   A    
C88   C99   A    
C47   C48   A    
C48   C57   S    
C35   C38   A    
C3    C11   S    
C74   C75   A    
C114  C115  A    
C122  H53   S    
C6    C11   A    
C86   C87   A    
C130  H93   S    
N7    H77   S    
N10   C130  S    
C100  H96   S    
C94   C97   A    
C65   C67   A    
C128  H83   S    
C65   C71   A    
C40   H1    S    
C46   C51   A    
C83   H22   S    
Cr4   O13   S    
C81   C82   A    
C82   C91   S    
C79   C80   A    
C13   C24   A    
C74   C78   A    
C60   C61   A    
N7    C127  S    
N14   C134  S    
C22   O15   A    
Cr6   O18   S    
C75   C76   A    
C44   O1    A    
C59   C60   A    
C124  H62   S    
C115  N12   S    
N4    C124  S    
C26   N11   S    
N6    C126  S    
C24   H6    S    
C35   N2    S    
C83   C84   A    
C130  H94   S    
C101  H27   S    
C30   C31   A    
C73   C78   A    
C127  H80   S    
C87   C96   S    
Cr1   O1    S    
C62   C63   A    
C50   C51   A    
C59   C64   A    
C66   O3    A    
C94   C95   A    
Cr3   O23   S    
C74   H86   S    
C32   C37   A    
N3    H56   S    
C119  C120  A    
Cr2   O21   S    
C109  H28   S    
C24   C88   A    
C19   O7    A    
Cr4   O6    S    
C70   C71   A    
C7    N13   S    
C19   C39   S    
C18   C55   S    
C53   H69   S    
C113  C117  A    
C23   O17   A    
C1    O20   A    
C122  H54   S    
C40   C41   A    
C125  H67   S    
N12   H101  S    
C12   C14   A    
C49   C50   A    
C98   C100  A    
C133  H108  S    
N11   C131  S    
C26   C27   A    
C121  H50   S    
C13   H51   S    
Cr6   O11   S    
C42   C43   A    
C107  C108  A    
C14   H42   S    
N9    H87   S    
C93   C97   A    
C112  C116  A    
Cr3   O3    S    
N8    H82   S    
C72   H81   S    
C36   H11   S    
C69   H12   S    
N4    H61   S    
C105  H26   S    
C131  H98   S    
C46   C47   A    
C133  H107  S    
C106  H25   S    
C79   C84   A    
C123  H57   S    
C61   H76   S    
C63   H13   S    
C32   H45   S    
C133  H109  S    
C103  H31   S    
C3    C120  A    
C33   C38   S    
N3    C123  S    
C72   C73   A    
C123  H59   S    
C21   O6    A    
C46   H4    S    
C52   C57   A    
Cr3   O4    S    
C53   C58   A    
Cr5   O15   S    
C56   N3    S    
N10   H92   S    
C68   C76   S    
Cr2   O2    S    
C105  C106  A    
C42   C51   S    
C44   O23   A    
C8    C17   S    
C39   C45   A    
C5    C118  A    
Cr5   O16   S    
C129  H90   S    
C16   H36   S    
N14   H110  S    
C29   H41   S    
C22   O14   A    
C132  H103  S    
C77   O24   A    
C124  H63   S    
C80   H14   S    
C12   N14   S    
C23   O16   A    
C52   C53   A    
C99   C110  A    
C90   C91   A    
C16   C17   A    
C84   H15   S    
C130  H95   S    
Cr2   O5    S    
C15   C16   A    
C20   C88   S    
C99   H46   S    
C67   H75   S    
C92   C93   A    
C126  H74   S    
Cr1   O24   S    
C62   C71   S    
C93   H21   S    
C134  H112  S    
Cr2   O26   S    
C102  C103  A    
C90   N10   S    
Cr2   O20   S    
C107  C116  S    
C65   H10   S    
Cr6   O17   S    
C10   C11   A    
C120  H38   S    
N13   C133  S    
C63   C64   A    
C39   C40   A    
C135  H115  S    
C52   N5    S    
C4    C5    A    
C125  H68   S    
C6    H37   S    
C95   H16   S    
C36   C37   A    
C82   C83   A    
C122  H55   S    
C132  H104  S    
C103  C104  A    
N1    C121  S    
C87   C89   A    
C2    C31   S    
Cr6   O10   S    
C25   O18   A    
C5    H35   S    
C114  C117  A    
C129  H89   S    
C89   C90   A    
N11   H97   S    
N2    C122  S    
C27   N9    S    
C43   C45   A    
C98   C104  A    
C108  H105  S    
C115  C116  A    
N6    H71   S    
C32   C34   A    
C20   O10   A    
C27   C28   A    
