data_mof_unit_64418.cif
_audit_creation_date              2012-12-10T20:14:11-0500
_audit_creation_method            fapswitch 2.2
_symmetry_space_group_name_H-M    P1
_symmetry_Int_Tables_number       1
_space_group_crystal_system       triclinic
_cell_length_a                    19.230074
_cell_length_b                    18.484894
_cell_length_c                    10.516824
_cell_angle_alpha                 89.680555
_cell_angle_beta                  90.132091
_cell_angle_gamma                 90.01542
_cell_volume                      3738.30393248

loop_
_atom_site_label
_atom_site_type_symbol
_atom_type_description
_atom_site_fract_x
_atom_site_fract_y
_atom_site_fract_z
_atom_type_partial_charge
C1    C     C_R   0.365932 0.499989 0.499898 1.051990
C2    C     C_R   0.634068 0.500011 0.500110 1.051986
C3    C     C_R   0.964120 0.549751 0.575619 -0.072517
C4    C     C_R   0.035880 0.450229 0.424723 -0.072541
C5    C     C_R   0.036179 0.549773 0.575440 -0.071818
C6    C     C_R   0.963823 0.450208 0.424902 -0.071839
C7    C     C_R   0.071703 0.500016 0.499985 0.207464
C8    C     C_R   0.928298 0.499970 0.500346 0.207471
C9    C     C_R   0.541031 0.725701 0.583936 0.076983
C10   C     C_R   0.458973 0.274299 0.416058 0.076971
C11   C     C_R   0.458998 0.726200 0.416006 0.067218
C12   C     C_R   0.540998 0.273800 0.584001 0.067233
C13   C     C_R   0.541842 0.801639 0.585512 -0.241035
C14   C     C_R   0.458161 0.198361 0.414482 -0.241040
C15   C     C_R   0.458186 0.802149 0.414405 -0.241233
C16   C     C_R   0.541809 0.197851 0.585602 -0.241235
C17   C     C_R   0.500011 0.841327 0.499960 0.102728
C18   C     C_R   0.499989 0.158673 0.500041 0.102726
C19   C     C_R   0.438570 0.962054 0.476160 -0.152706
C20   C     C_R   0.561430 0.037946 0.523840 -0.152704
C21   C     C_R   0.561437 0.961944 0.523806 -0.152197
C22   C     C_R   0.438563 0.038056 0.476194 -0.152199
C23   C     C_R   0.499993 0.077311 0.500032 0.111555
C24   C     C_R   0.500006 0.922689 0.499968 0.111556
C25   C     C_R   0.499984 0.500238 0.257334 1.043045
C26   C     C_R   0.500018 0.499762 0.742666 1.043075
C27   C     C_3   0.443342 0.465809 0.041945 0.384927
C28   C     C_3   0.556661 0.534192 0.958055 0.384923
C29   C     C_3   0.443106 0.533749 0.957624 0.389995
C30   C     C_3   0.556898 0.466253 0.042376 0.389986
C31   C     C_3   0.500234 0.430409 0.959909 -0.326658
C32   C     C_3   0.499770 0.569592 0.040091 -0.326698
C33   C     C_3   0.499994 0.499264 0.877086 -0.303822
C34   C     C_3   0.500009 0.500737 0.122915 -0.303859
C35   C     C_R   0.745038 0.463347 0.597689 0.307552
C36   C     C_R   0.254930 0.536637 0.402427 0.307518
C37   C     C_R   0.255158 0.463247 0.597259 0.310076
C38   C     C_R   0.744877 0.536771 0.402896 0.310054
C39   C     C_R   0.817502 0.463408 0.597654 0.352268
C40   C     C_R   0.182465 0.536579 0.402550 0.352240
C41   C     C_R   0.182697 0.463347 0.597198 0.347398
C42   C     C_R   0.817337 0.536678 0.403050 0.347373
C43   C     C_R   0.853136 0.500022 0.500363 -0.277798
C44   C     C_R   0.146865 0.499986 0.499907 -0.277804
C45   C     C_R   0.709079 0.500041 0.500230 -0.358503
C46   C     C_R   0.290921 0.499958 0.499859 -0.358510
H1    H     H_    0.500439 0.373963 0.924358 0.225799
H2    H     H_    0.499565 0.626038 0.075643 0.225796
H3    H     H_    0.574245 0.828933 0.654524 0.155158
H4    H     H_    0.425761 0.171066 0.345465 0.155160
H5    H     H_    0.425791 0.829856 0.345372 0.156739
H6    H     H_    0.574201 0.170143 0.654639 0.156745
N1    N     N_R   0.500000 0.689440 0.500000 -0.111267
N2    N     N_R   0.500000 0.310560 0.500000 -0.111266
O1    O     O_R   0.398180 0.560840 0.499970 -0.599586
O2    O     O_R   0.601820 0.439160 0.500030 -0.599571
O3    O     O_R   0.601820 0.560840 0.500030 -0.601852
O4    O     O_R   0.398180 0.439160 0.499970 -0.601850
O5    O     O_R   0.499980 0.560800 0.313940 -0.617189
O6    O     O_R   0.500020 0.439200 0.686060 -0.617165
O7    O     O_R   0.500020 0.560800 0.686060 -0.612947
O8    O     O_R   0.499980 0.439200 0.313940 -0.612941
Zn1   Zn    Zn3+2 0.500000 0.581210 0.500000 1.037688
Zn2   Zn    Zn3+2 0.500000 0.418790 0.500000 1.037700
Cl1   Cl    Cl    0.368218 0.420731 0.101870 -0.449284
Cl2   Cl    Cl    0.631785 0.579270 0.898132 -0.449358
Cl3   Cl    Cl    0.367640 0.578253 0.897315 -0.426958
Cl4   Cl    Cl    0.632365 0.421753 0.102691 -0.426927
Cl5   Cl    Cl    0.699658 0.419412 0.722522 -0.453267
Cl6   Cl    Cl    0.300268 0.580549 0.277520 -0.453163
Cl7   Cl    Cl    0.300779 0.419191 0.722017 -0.422002
Cl8   Cl    Cl    0.699299 0.580838 0.278097 -0.421959
Cl9   Cl    Cl    0.863756 0.417407 0.719218 -0.412248
Cl10  Cl    Cl    0.136170 0.582554 0.281008 -0.412229
Cl11  Cl    Cl    0.136694 0.417370 0.718758 -0.411612
Cl12  Cl    Cl    0.863383 0.582678 0.281572 -0.411631
H7    H     H_    0.936232 0.588184 0.633845 0.174121
H8    H     H_    0.063767 0.411800 0.366489 0.174108
H9    H     H_    0.064297 0.588207 0.633562 0.174609
H10   H     H_    0.935705 0.411778 0.366772 0.174591
H11   H     H_    0.573155 0.695616 0.650211 0.164341
H12   H     H_    0.426852 0.304384 0.349778 0.164343
H13   H     H_    0.426910 0.696509 0.349695 0.169711
H14   H     H_    0.573083 0.303491 0.650317 0.169740
H15   H     H_    0.389940 0.934111 0.459594 0.152780
H16   H     H_    0.610059 0.065889 0.540407 0.152783
H17   H     H_    0.610072 0.933930 0.540350 0.152383
H18   H     H_    0.389928 0.066070 0.459649 0.152382

loop_
_geom_bond_atom_site_label_1
_geom_bond_atom_site_label_2
_ccdc_geom_bond_type
C21   H17   S    
C27   C29   S    
C14   C18   A    
C28   Cl2   S    
C8    C43   S    
C2    O3    A    
C26   O7    A    
C38   C42   A    
C29   C32   S    
C30   C31   S    
C1    C46   S    
C29   C33   S    
C12   H14   S    
O7    Zn1   S    
C9    C13   A    
C38   C45   A    
O8    Zn2   S    
C29   Cl3   S    
C11   C15   A    
C12   C16   A    
O1    Zn1   S    
O2    Zn2   S    
C36   C46   A    
C22   H18   S    
C5    H9    S    
C11   N1    A    
C25   C34   S    
C2    C45   S    
C31   H1    S    
C32   H2    S    
C4    C7    A    
C19   H15   S    
C36   Cl6   S    
O3    Zn1   S    
C27   C34   S    
O4    Zn2   S    
C38   Cl8   S    
C17   C24   S    
C30   C34   S    
C27   C31   S    
C18   C23   S    
C36   C40   A    
C19   C22   A    
C4    C6    A    
C3    C8    A    
C10   C14   A    
C5    C7    A    
C6    C8    A    
C11   H13   S    
C10   H12   S    
C20   H16   S    
C32   C34   S    
C35   C39   A    
C4    H8    S    
C27   Cl1   S    
C41   Cl11  S    
C26   C33   S    
C6    H10   S    
C20   C23   A    
C28   C32   S    
C31   C33   S    
C7    C44   S    
C13   H3    S    
C28   C33   S    
C15   H5    S    
C37   Cl7   S    
C41   C44   A    
C9    N1    A    
C42   C43   A    
C3    H7    S    
C15   C17   A    
O5    Zn1   S    
C16   H6    S    
C3    C5    A    
C39   C43   A    
C42   Cl12  S    
C13   C17   A    
O6    Zn2   S    
C28   C30   S    
C19   C24   A    
C1    O1    A    
C2    O2    A    
C1    O4    A    
N1    Zn1   S    
C14   H4    S    
N2    Zn2   S    
C40   Cl10  S    
C25   O8    A    
C39   Cl9   S    
C37   C41   A    
C10   N2    A    
C12   N2    A    
C40   C44   A    
C20   C21   A    
C35   Cl5   S    
C16   C18   A    
C21   C24   A    
C22   C23   A    
C25   O5    A    
C37   C46   A    
C26   O6    A    
C30   Cl4   S    
C9    H11   S    
C35   C45   A    
