data_mof_unit_6358.cif
_audit_creation_date              2012-12-11T15:42:49-0500
_audit_creation_method            fapswitch 2.2
_symmetry_space_group_name_H-M    P1
_symmetry_Int_Tables_number       1
_space_group_crystal_system       triclinic
_cell_length_a                    6.951776
_cell_length_b                    14.57844
_cell_length_c                    16.199932
_cell_angle_alpha                 90.484448
_cell_angle_beta                  89.941174
_cell_angle_gamma                 90.117202
_cell_volume                      1641.73614977

loop_
_atom_site_label
_atom_site_type_symbol
_atom_type_description
_atom_site_fract_x
_atom_site_fract_y
_atom_site_fract_z
_atom_type_partial_charge
O1    O     O_R   0.505810 0.583360 0.413880 -0.539451
O2    O     O_R   0.175870 0.595480 0.585520 -0.535578
O3    O     O_R   0.005540 0.416640 0.586120 -0.545903
C1    C     C_R   0.344947 0.619891 0.612758 0.744779
O4    O     O_R   0.176100 0.594390 0.414490 -0.503077
O5    O     O_R   0.005770 0.415540 0.413870 -0.547703
C2    C     C_R   0.345159 0.616451 0.386021 0.832763
O6    O     O_R   0.505580 0.584460 0.586130 -0.552545
O7    O     O_3   0.339190 0.441320 0.500000 -0.368123
V1    V     V_3+5 0.064350 0.510890 0.500000 1.601485
O8    O     O_R   0.676050 0.404520 0.414480 -0.526446
C3    C     C_R   0.844844 0.381770 0.385930 0.768326
O9    O     O_R   0.675830 0.405610 0.585510 -0.512830
C4    C     C_R   0.844474 0.385436 0.614786 0.806506
V2    V     V_3+5 0.564340 0.489110 0.500000 1.583939
O10   O     O_3   0.839370 0.558680 0.500000 -0.368793
C5    C     C_2   0.731306 0.219202 0.793364 0.524864
C6    C     C_2   0.885219 0.164790 0.810151 -0.376057
C7    C     C_2   0.710620 0.276161 0.718049 0.619073
C8    C     C_2   0.858987 0.324154 0.686542 -0.435528
H1    H     H_    0.998905 0.320450 0.716047 0.127000
C9    C     C_R   0.040323 0.197048 0.240723 0.637148
C10   C     C_R   0.021475 0.253761 0.311111 -0.142639
C11   C     C_R   0.855665 0.309395 0.319902 -0.263847
C12   C     C_R   0.699399 0.289811 0.266010 -0.057034
C13   C     C_R   0.700295 0.205001 0.223466 -0.118880
C14   C     C_R   0.878834 0.175903 0.192123 -0.299061
C15   C     C_R   0.212180 0.758443 0.693529 -0.023074
C16   C     C_R   0.223680 0.816680 0.763258 -0.217131
H2    H     H_    0.114128 0.868577 0.772636 0.178551
C17   C     C_R   0.379780 0.812910 0.818232 -0.187330
C18   C     C_R   0.525143 0.747938 0.803205 0.671568
C19   C     C_R   0.511753 0.687143 0.735974 -0.194972
H3    H     H_    0.623913 0.636370 0.727854 0.157728
C20   C     C_R   0.355772 0.690252 0.680567 -0.206409
C21   C     C_R   0.211775 0.752090 0.309842 0.612315
C22   C     C_R   0.224019 0.818868 0.247581 -0.198248
C23   C     C_R   0.378846 0.816548 0.189700 -0.324416
C24   C     C_R   0.521687 0.748801 0.199235 0.672323
C25   C     C_R   0.511115 0.685219 0.263408 -0.226254
H4    H     H_    0.623747 0.634401 0.268791 0.206638
C26   C     C_R   0.355570 0.685252 0.318696 -0.282810
O11   O     O_R   0.230120 0.912300 0.917180 -0.557006
O12   O     O_R   0.559740 0.902430 0.088770 -0.505425
O13   O     O_R   0.729930 0.081310 0.089370 -0.534197
C27   C     C_R   0.390646 0.882072 0.118924 0.849680
O14   O     O_R   0.559840 0.901330 0.917750 -0.514983
O15   O     O_R   0.730030 0.080210 0.917120 -0.513805
C28   C     C_R   0.390922 0.879160 0.888816 0.742718
O16   O     O_R   0.230020 0.913400 0.089430 -0.549523
O17   O     O_3   0.396460 0.055470 0.003290 -0.350972
V3    V     V_3+5 0.671360 0.985960 0.003250 1.695111
O18   O     O_R   0.059740 0.091300 0.917690 -0.532459
C29   C     C_R   0.891502 0.110432 0.887420 0.764170
O19   O     O_R   0.059640 0.092400 0.088720 -0.499697
C30   C     C_R   0.890909 0.111513 0.119944 0.795635
V4    V     V_3+5 0.171350 0.007820 0.003190 1.670581
O20   O     O_3   0.896380 0.938200 0.003220 -0.378159
F1    F     F_    0.583143 0.224195 0.848206 -0.614445
F2    F     F_    0.678460 0.741319 0.854622 -0.659114
F3    F     F_    0.065018 0.756118 0.365324 -0.622482
C31   C     C_2   0.079137 0.893259 0.248903 0.913520
O21   O     O_2   0.130409 0.973102 0.243213 -0.534720
O22   O     O_R   0.884680 0.872303 0.260254 -0.606455
H5    H     H_    0.800355 0.928929 0.261090 0.297382
F4    F     F_    0.670909 0.742471 0.145364 -0.643036
C32   C     C_2   0.038769 0.146338 0.747836 0.731840
O23   O     O_2   0.206315 0.138769 0.769625 -0.480349
O24   O     O_R   0.990671 0.134585 0.664575 -0.651505
H6    H     H_    0.107130 0.122041 0.628511 0.342902
F5    F     F_    0.530928 0.285225 0.685982 -0.622280
F6    F     F_    0.209115 0.155528 0.224855 -0.634998
C33   C     C_2   0.158415 0.242587 0.379483 0.880252
O25   O     O_2   0.124899 0.185855 0.432771 -0.543980
O26   O     O_R   0.323476 0.296541 0.383927 -0.637922
H7    H     H_    0.406072 0.280496 0.433261 0.321976
C34   C     C_2   0.549087 0.357721 0.244003 0.866714
O27   O     O_2   0.570101 0.439084 0.260555 -0.577677
O28   O     O_R   0.387740 0.329199 0.199150 -0.631665
H8    H     H_    0.296149 0.381412 0.187041 0.296522
C35   C     C_2   0.583362 0.131007 0.261691 0.943982
O29   O     O_2   0.537940 0.062545 0.222280 -0.534788
O30   O     O_R   0.533981 0.137127 0.345195 -0.649253
H9    H     H_    0.458374 0.081865 0.364785 0.331149
C36   C     C_2   0.054782 0.775769 0.633840 0.813370
O31   O     O_2   0.084507 0.769923 0.559569 -0.515540
O32   O     O_R   0.874252 0.803535 0.662708 -0.659621
H10   H     H_    0.779099 0.814140 0.616381 0.307684

loop_
_geom_bond_atom_site_label_1
_geom_bond_atom_site_label_2
_ccdc_geom_bond_type
O19   C30   A    
C33   O25   D    
C21   C26   A    
C7    C8    D    
C1    O6    A    
C35   O29   D    
O14   C28   A    
O18   C29   A    
O15   C29   A    
C13   C14   A    
C31   O21   D    
C12   C34   S    
C15   C16   A    
C22   C23   A    
C17   C28   S    
O5    C3    A    
C23   C24   A    
C7    F5    S    
V2    O10   S    
C2    C26   S    
C31   O22   S    
C19   C20   A    
O8    V2    S    
C17   C18   A    
C15   C20   A    
C10   C11   A    
O17   V4    S    
O7    V1    S    
O13   C30   A    
O12   V3    S    
C34   O28   S    
C1    C20   S    
O9    C4    A    
C33   O26   S    
C10   C33   S    
C9    F6    S    
C35   O30   S    
O12   C27   A    
C22   C31   S    
C36   O32   S    
O17   V3    S    
C4    C8    S    
C11   C12   A    
C6    C32   S    
C24   C25   A    
O4    C2    A    
O18   V4    S    
C14   C30   S    
O11   C28   A    
O13   V3    S    
C12   C13   A    
C34   O27   D    
C32   O23   D    
C32   O24   S    
O2    C1    A    
O26   H7    S    
C16   H2    S    
O30   H9    S    
C5    C6    D    
O11   V4    S    
C36   O31   D    
O3    C4    A    
V3    O20   S    
C5    F1    S    
O1    V2    S    
C25   H4    S    
C13   C35   S    
C9    C14   A    
O9    V2    S    
C24   F4    S    
C18   F2    S    
C21   F3    S    
O2    V1    S    
C3    C11   S    
C21   C22   A    
O1    C2    A    
O16   V4    S    
O5    V1    S    
O8    C3    A    
O14   V3    S    
O6    V2    S    
C27   O16   A    
C18   C19   A    
O19   V4    S    
O7    V2    S    
O4    V1    S    
C16   C17   A    
O3    V1    S    
V1    O10   S    
O22   H5    S    
V4    O20   S    
C25   C26   A    
C5    C7    S    
C19   H3    S    
O24   H6    S    
C23   C27   S    
C6    C29   S    
O28   H8    S    
O15   V3    S    
C8    H1    S    
O32   H10   S    
C15   C36   S    
C9    C10   A    
