data_mof_unit_61862.cif
_audit_creation_date              2012-12-10T16:48:35-0500
_audit_creation_method            fapswitch 2.2
_symmetry_space_group_name_H-M    P1
_symmetry_Int_Tables_number       1
_space_group_crystal_system       triclinic
_cell_length_a                    18.402213
_cell_length_b                    18.409772
_cell_length_c                    18.400483
_cell_angle_alpha                 119.696141
_cell_angle_beta                  119.571955
_cell_angle_gamma                 90.617246
_cell_volume                      4432.68635645

loop_
_atom_site_label
_atom_site_type_symbol
_atom_type_description
_atom_site_fract_x
_atom_site_fract_y
_atom_site_fract_z
_atom_type_partial_charge
C1    C     C_R   0.138457 0.361417 0.999460 0.511998
C2    C     C_2   0.797603 0.684781 0.992774 -0.054328
C3    C     C_2   0.722989 0.281216 0.443833 -0.166865
C4    C     C_R   0.860198 0.637154 0.998782 0.498793
C5    C     C_2   0.697464 0.192256 0.387681 -0.101264
C6    C     C_2   0.781680 0.337314 0.556213 -0.160525
C7    C     C_2   0.803525 0.304562 0.612227 -0.094975
C8    C     C_2   0.337361 0.281117 0.054387 -0.166076
C9    C     C_2   0.304749 0.192423 0.000983 -0.096052
C10   C     C_2   0.281275 0.337428 0.057257 -0.160988
C11   C     C_2   0.192310 0.304512 0.994880 -0.095610
C12   C     C_3   0.747892 0.353478 0.040701 -0.213120
C13   C     C_2   0.218458 0.787615 0.950417 -0.171600
C14   C     C_2   0.304073 0.796680 0.991792 -0.104063
C15   C     C_2   0.164332 0.726854 0.946596 -0.149564
C16   C     C_R   0.138517 0.638911 0.277004 0.507944
C17   C     C_2   0.192639 0.720170 0.025130 0.020226
C18   C     C_2   0.218956 0.778959 0.556335 -0.159513
C19   C     C_2   0.307800 0.803259 0.612225 -0.097005
C20   C     C_2   0.162672 0.720142 0.443962 -0.158849
C21   C     C_2   0.195345 0.697159 0.387709 -0.096167
C22   C     C_R   0.639063 0.138392 0.276989 0.506959
C23   C     C_3   0.799142 0.301402 0.998806 0.045957
C24   C     C_R   0.361656 0.861166 0.722978 0.510723
C25   C     C_R   0.640591 0.863418 0.002021 0.494419
C26   C     C_R   0.361490 0.138421 0.000063 0.509491
C27   C     C_R   0.359379 0.857733 0.998299 0.515136
C28   C     C_R   0.861261 0.361422 0.722987 0.510283
C29   C     C_R   0.639561 0.141331 0.998308 0.488672
C30   C     C_R   0.140468 0.644440 0.003817 0.518544
C31   C     C_R   0.857560 0.358702 0.998998 0.496196
C32   C     C_3   0.730517 0.217620 0.888745 -0.241454
C33   C     C_3   0.672523 0.156709 0.889022 -0.246155
C34   C     C_3   0.697069 0.199927 0.998950 0.079950
C35   C     C_3   0.856529 0.272498 0.068412 -0.231666
C36   C     C_3   0.832320 0.241160 0.178469 -0.269629
C37   C     C_3   0.823519 0.163046 0.187307 -0.292208
C38   C     C_3   0.854450 0.195996 0.295457 -0.440665
C39   C     C_3   0.269349 0.791392 0.136006 -0.252286
C40   C     C_3   0.237560 0.827961 0.206397 -0.290706
C41   C     C_3   0.313767 0.900994 0.316289 -0.454720
C42   C     C_3   0.586796 0.288405 0.972083 -0.260990
C43   C     C_3   0.570199 0.373250 0.030610 -0.308200
C44   C     C_3   0.473706 0.366075 0.967131 -0.446644
C45   C     C_3   0.797370 0.210513 0.067697 -0.116701
C46   C     C_3   0.684505 0.293637 0.037146 -0.098606
C47   C     C_2   0.712317 0.768124 0.934468 -0.099464
C48   C     C_2   0.707508 0.819755 0.014144 0.247232
C49   C     C_2   0.775428 0.719552 0.938956 -0.128565
H1    H     H_    0.765122 0.179519 0.855608 0.142405
H2    H     H_    0.687425 0.237873 0.838814 0.112991
H3    H     H_    0.778381 0.234560 0.578183 0.105246
H4    H     H_    0.408308 0.314719 0.099456 0.151436
H5    H     H_    0.234929 0.156592 0.957180 0.106347
H6    H     H_    0.315225 0.408738 0.112398 0.154875
H7    H     H_    0.156078 0.234256 0.936692 0.105788
H8    H     H_    0.186611 0.820082 0.913437 0.160076
H9    H     H_    0.334337 0.760091 0.023568 0.110109
H10   H     H_    0.102181 0.680251 0.872611 0.146085
H11   H     H_    0.185201 0.801799 0.593840 0.155912
H12   H     H_    0.703704 0.325762 0.116390 0.139407
H13   H     H_    0.601102 0.142970 0.834755 0.111039
H14   H     H_    0.343829 0.779937 0.578084 0.104296
H15   H     H_    0.091571 0.696019 0.406794 0.155397
H16   H     H_    0.265343 0.721803 0.421544 0.103809
H17   H     H_    0.683073 0.091407 0.860191 0.134387
H18   H     H_    0.895938 0.236896 0.041705 0.115152
H19   H     H_    0.804094 0.144037 0.029601 0.136385
H20   H     H_    0.795518 0.411894 0.121280 0.124504
H21   H     H_    0.711325 0.380417 0.996039 0.123692
H22   H     H_    0.925357 0.239004 0.351123 0.149720
H23   H     H_    0.905175 0.333246 0.146799 0.112538
H24   H     H_    0.813716 0.234189 0.316484 0.165132
H25   H     H_    0.847032 0.138347 0.299403 0.147177
H26   H     H_    0.753903 0.117681 0.133963 0.182146
H27   H     H_    0.864581 0.124201 0.167826 0.154385
H28   H     H_    0.904174 0.281179 0.231899 0.139453
H29   H     H_    0.798295 0.284594 0.207014 0.156047
H30   H     H_    0.759933 0.881052 0.159732 0.338294
H31   H     H_    0.366781 0.874685 0.346241 0.156675
H32   H     H_    0.341996 0.957490 0.320204 0.153881
H33   H     H_    0.288857 0.925615 0.365203 0.145924
H34   H     H_    0.669372 0.761860 0.863261 0.104487
H35   H     H_    0.185000 0.855607 0.178588 0.161985
H36   H     H_    0.209223 0.774288 0.206264 0.183113
H37   H     H_    0.320679 0.762122 0.162374 0.150593
H38   H     H_    0.301078 0.849264 0.144722 0.152828
H39   H     H_    0.456698 0.356045 0.895143 0.152065
H40   H     H_    0.428534 0.309665 0.948515 0.159015
H41   H     H_    0.463794 0.428251 0.011288 0.147199
H42   H     H_    0.585426 0.384482 0.102582 0.164403
H43   H     H_    0.613996 0.431543 0.050592 0.159809
H44   H     H_    0.570608 0.277140 0.899758 0.138253
H45   H     H_    0.800712 0.709171 0.893512 0.139274
H46   H     H_    0.539486 0.231557 0.950114 0.166714
H47   H     H_    0.767078 0.688538 0.031555 0.171310
H48   H     H_    0.701042 0.315155 0.406570 0.151783
H49   H     H_    0.720112 0.156049 0.421582 0.107422
H50   H     H_    0.806492 0.408425 0.593626 0.153285
O1    O     O_3   0.000000 0.500000 0.000000 -0.438011
O2    O     O_R   0.324760 0.053850 0.939900 -0.542106
O3    O     O_R   0.443270 0.883090 0.060070 -0.540525
O4    O     O_R   0.053940 0.324750 0.939940 -0.541748
O5    O     O_R   0.616890 0.176890 0.060090 -0.559051
O6    O     O_R   0.323100 0.883090 0.939900 -0.541749
O7    O     O_R   0.616910 0.056740 0.939940 -0.556751
O8    O     O_R   0.615250 0.885990 0.939940 -0.562131
O9    O     O_R   0.446110 0.175200 0.060060 -0.543929
O10   O     O_R   0.614030 0.053850 0.229160 -0.541757
O11   O     O_R   0.324790 0.884790 0.770830 -0.540337
O12   O     O_R   0.053880 0.613970 0.229150 -0.539042
O13   O     O_R   0.884790 0.613970 0.060060 -0.540433
O14   O     O_R   0.175250 0.615170 0.229170 -0.548489
O15   O     O_R   0.886020 0.446110 0.770840 -0.542119
O16   O     O_R   0.176940 0.616860 0.060100 -0.548952
O17   O     O_R   0.883150 0.323060 0.939910 -0.548238
O18   O     O_R   0.056770 0.616860 0.939930 -0.551060
O19   O     O_R   0.883130 0.443210 0.060060 -0.552841
O20   O     O_3   0.769091 0.836422 0.108627 -0.724801
O21   O     O_R   0.884840 0.324750 0.770840 -0.542717
O22   O     O_R   0.175280 0.446110 0.060100 -0.539461
O23   O     O_R   0.885990 0.615170 0.939900 -0.544156
O24   O     O_3   0.500040 0.999960 0.000000 -0.436238
O25   O     O_R   0.615200 0.175200 0.229160 -0.544467
O26   O     O_R   0.446160 0.885990 0.770850 -0.542965
O27   O     O_R   0.614060 0.884790 0.060100 -0.547757
Zn1   Zn    Zn3+2 0.956210 0.542060 0.085830 0.927478
Zn2   Zn    Zn3+2 0.129620 0.543770 0.085850 0.925610
Zn3   Zn    Zn3+2 0.957930 0.543770 0.914160 0.926516
Zn4   Zn    Zn3+2 0.956240 0.370390 0.914160 0.930147
Zn5   Zn    Zn3+2 0.543830 0.957900 0.914170 0.914064
Zn6   Zn    Zn3+2 0.542120 0.956180 0.085840 0.933198
Zn7   Zn    Zn3+2 0.370430 0.956180 0.914150 0.933928
Zn8   Zn    Zn3+2 0.543800 0.129560 0.085840 0.909339

loop_
_geom_bond_atom_site_label_1
_geom_bond_atom_site_label_2
_ccdc_geom_bond_type
C12   H20   S    
C16   C21   S    
O24   Zn6   S    
O1    Zn1   S    
C40   H35   S    
C1    C11   S    
C39   H38   S    
C25   O27   A    
C3    C6    S    
C16   O14   A    
C41   H31   S    
C32   H2    S    
O14   Zn2   S    
C12   C23   S    
C11   H7    S    
O5    Zn8   S    
O24   Zn7   S    
O21   Zn4   S    
C36   C37   S    
O3    Zn6   S    
C7    H3    S    
C36   H28   S    
C26   O2    A    
C17   C39   S    
O1    Zn4   S    
C13   H8    S    
C27   O6    A    
C42   H44   S    
C18   C19   D    
C42   C46   S    
C3    H48   S    
O13   Zn1   S    
C5    C22   S    
C19   H14   S    
C8    C9    D    
H30   O20   S    
C9    C26   S    
C34   C46   S    
O27   Zn6   S    
C14   C27   S    
O18   Zn3   S    
C1    O4    A    
O23   Zn3   S    
O24   Zn5   S    
C37   H26   S    
C13   C14   D    
C17   C30   S    
O10   Zn6   S    
C33   H17   S    
C48   O20   S    
C30   O16   A    
O7    Zn5   S    
C14   H9    S    
O24   Zn8   S    
C42   H46   S    
C24   O11   A    
O22   Zn2   S    
C12   C46   S    
C28   O21   A    
C26   O9    A    
C39   C40   S    
O1    Zn3   S    
C33   H13   S    
C46   H12   S    
C29   C34   S    
C43   H42   S    
C7    C28   S    
C29   O5    A    
C23   C31   S    
C40   H36   S    
C20   H15   S    
C2    C4    S    
C43   C44   S    
C31   O19   A    
O9    Zn8   S    
C37   C38   S    
C2    C49   D    
O26   Zn5   S    
C47   C48   D    
C35   H18   S    
C22   O10   A    
C41   H32   S    
C45   H19   S    
C33   C34   S    
C4    O23   A    
C36   C45   S    
C34   C45   S    
C5    H49   S    
C10   H6    S    
C25   C48   S    
C32   H1    S    
C28   O15   A    
C18   H11   S    
C40   C41   S    
C37   H27   S    
C35   H23   S    
C23   C35   S    
C13   C15   S    
O12   Zn1   S    
C24   O26   A    
C49   H45   S    
O15   Zn3   S    
C29   O7    A    
O19   Zn1   S    
C35   C45   S    
C31   O17   A    
C44   H41   S    
C25   O8    A    
O6    Zn7   S    
C38   H25   S    
C15   C17   D    
C12   H21   S    
C38   H22   S    
C21   H16   S    
O1    Zn2   S    
C15   H10   S    
C3    C5    D    
C8    H4    S    
C22   O25   A    
C6    C7    D    
C30   O18   A    
O2    Zn7   S    
C47   C49   S    
C27   O3    A    
C43   H43   S    
O25   Zn8   S    
C6    H50   S    
O8    Zn5   S    
C2    H47   S    
C19   C24   S    
C36   H29   S    
C23   C32   S    
C41   H33   S    
C18   C20   S    
C4    O13   A    
C32   C33   S    
O4    Zn4   S    
C1    O22   A    
C10   C11   D    
O16   Zn2   S    
C47   H34   S    
O17   Zn4   S    
C20   C21   D    
C8    C10   S    
C42   C43   S    
O11   Zn7   S    
C9    H5    S    
C39   H37   S    
C44   H39   S    
C44   H40   S    
C16   O12   A    
C38   H24   S    
