data_mof_unit_48322.cif
_audit_creation_date              2012-12-11T14:05:39-0500
_audit_creation_method            fapswitch 2.2
_symmetry_space_group_name_H-M    P1
_symmetry_Int_Tables_number       1
_space_group_crystal_system       triclinic
_cell_length_a                    17.576395
_cell_length_b                    17.551883
_cell_length_c                    17.469926
_cell_angle_alpha                 89.559847
_cell_angle_beta                  89.6489
_cell_angle_gamma                 89.278947
_cell_volume                      5388.76788579

loop_
_atom_site_label
_atom_site_type_symbol
_atom_type_description
_atom_site_fract_x
_atom_site_fract_y
_atom_site_fract_z
_atom_type_partial_charge
C1    C     C_R   0.703784 0.785568 0.201607 -0.026867
C2    C     C_R   0.319417 0.776148 0.222115 -0.028027
C3    C     C_R   0.905674 0.816278 0.618118 -0.098599
C4    C     C_R   0.094650 0.381665 0.816417 -0.076905
C5    C     C_R   0.903893 0.615739 0.184873 -0.078094
C6    C     C_R   0.097329 0.815323 0.615838 -0.105105
C7    C     C_R   0.903075 0.184600 0.383945 -0.101305
C8    C     C_R   0.816104 0.903451 0.616029 -0.125099
C9    C     C_R   0.182732 0.094688 0.380092 -0.077352
C10   C     C_R   0.619814 0.902187 0.181495 -0.102573
C11   C     C_R   0.383353 0.096480 0.816062 -0.157625
C12   C     C_R   0.183493 0.904213 0.381714 -0.121806
C13   C     C_R   0.222165 0.320928 0.774354 0.014815
C14   C     C_R   0.819500 0.088043 0.626057 -0.090694
C15   C     C_R   0.375414 0.912274 0.818657 -0.056180
C16   C     C_R   0.625249 0.087030 0.181027 0.006998
C17   C     C_R   0.182959 0.094237 0.618229 -0.109715
C18   C     C_R   0.819828 0.904506 0.377982 -0.077147
C19   C     C_R   0.379875 0.094344 0.183321 -0.061516
C20   C     C_R   0.618893 0.905936 0.816208 -0.075766
C21   C     C_R   0.815859 0.096402 0.383811 -0.041318
C22   C     C_R   0.184540 0.903277 0.615594 -0.095341
C23   C     C_R   0.615437 0.097372 0.815267 -0.126887
C24   C     C_R   0.773968 0.670428 0.229189 0.071673
C25   C     C_R   0.381878 0.903908 0.183685 -0.142438
C26   C     C_2   0.643073 0.656253 0.176105 1.034360
C27   C     C_2   0.348777 0.351889 0.829310 1.023310
C28   C     C_2   0.346347 0.648302 0.170352 0.981949
C29   C     C_2   0.658379 0.358492 0.827636 1.013039
C30   C     C_2   0.353127 0.353381 0.184477 1.086943
C31   C     C_2   0.648221 0.650507 0.826203 1.038562
C32   C     C_2   0.788863 0.209838 0.099820 1.007684
C33   C     C_2   0.209255 0.790737 0.900389 0.995075
C34   C     C_2   0.175598 0.642220 0.657386 1.045632
C35   C     C_R   0.295958 0.800273 0.786356 -0.029052
C36   C     C_2   0.825654 0.356761 0.343533 1.035235
C37   C     C_2   0.170101 0.346795 0.645914 1.005713
C38   C     C_2   0.829918 0.658579 0.360091 1.028726
C39   C     C_2   0.182553 0.353599 0.354380 1.097794
C40   C     C_2   0.828569 0.647714 0.649500 1.007888
C41   C     C_2   0.181970 0.645834 0.352035 1.126802
C42   C     C_2   0.900784 0.204496 0.797801 1.005907
C43   C     C_2   0.666363 0.193740 0.636320 1.141876
C44   C     C_2   0.350787 0.823661 0.350129 1.022334
C45   C     C_2   0.646423 0.166839 0.347701 1.021721
C46   C     C_R   0.703239 0.200017 0.214589 -0.009049
C47   C     C_2   0.357869 0.827962 0.655442 1.035330
C48   C     C_2   0.347279 0.166935 0.352758 1.035925
C49   C     C_2   0.652213 0.828166 0.645168 1.042095
C50   C     C_2   0.349000 0.170559 0.648135 1.030523
C51   C     C_2   0.788587 0.899169 0.206376 1.005053
C52   C     C_R   0.776281 0.678719 0.776335 -0.012515
C53   C     C_R   0.223242 0.322229 0.223913 0.046729
C54   C     C_R   0.221404 0.220955 0.679836 -0.009215
C55   C     C_R   0.800630 0.787007 0.295478 -0.030589
C56   C     C_R   0.223076 0.775597 0.321539 0.022576
C57   C     C_R   0.320636 0.223348 0.775093 0.013533
C58   C     C_R   0.788633 0.196366 0.710013 0.000810
C59   C     C_R   0.772494 0.226911 0.329623 0.081157
C60   C     C_R   0.228482 0.773003 0.670144 0.071602
C61   C     C_R   0.777626 0.775982 0.677804 -0.007577
C62   C     C_R   0.221480 0.223860 0.320713 0.051749
C63   C     C_R   0.639170 0.830439 0.828277 0.068118
C64   C     C_R   0.358922 0.169776 0.170272 0.084149
C65   C     C_R   0.159730 0.650392 0.832629 0.099314
C66   C     C_R   0.840332 0.349760 0.167632 0.088312
C67   C     C_R   0.360183 0.170767 0.829466 0.090865
C68   C     C_R   0.220460 0.681343 0.221665 0.013990
C69   C     C_R   0.647896 0.830928 0.161109 0.108794
C70   C     C_R   0.833513 0.348707 0.841844 0.072269
C71   C     C_R   0.168589 0.640609 0.169430 0.040133
C72   C     C_R   0.648764 0.159323 0.168354 0.087197
C73   C     C_R   0.350563 0.840669 0.832464 0.085327
C74   C     C_R   0.170443 0.361064 0.170428 0.059399
C75   C     C_R   0.829068 0.638972 0.829693 0.068574
C76   C     C_R   0.360030 0.829410 0.169817 0.056993
C77   C     C_R   0.636503 0.172241 0.828510 0.097767
C78   C     C_R   0.828493 0.635834 0.172986 0.113408
C79   C     C_R   0.787609 0.292793 0.803460 -0.020254
C80   C     C_R   0.169380 0.359627 0.828948 0.094292
C81   C     C_R   0.834039 0.158278 0.653053 0.026845
C82   C     C_R   0.170816 0.829246 0.361503 0.068233
C83   C     C_R   0.841249 0.833514 0.349399 0.098890
C84   C     C_R   0.169265 0.168921 0.639671 0.056166
C85   C     C_R   0.168683 0.169913 0.358848 0.085352
C86   C     C_R   0.830426 0.828809 0.638263 0.062246
C87   C     C_R   0.172586 0.827924 0.635634 0.111958
C88   C     C_R   0.828015 0.171907 0.364057 0.100684
C89   C     C_R   0.707639 0.704891 0.199653 -0.184178
C90   C     C_R   0.320115 0.223687 0.223665 0.052314
C91   C     C_R   0.293736 0.295010 0.800037 -0.180154
C92   C     C_R   0.290280 0.707919 0.193046 -0.077700
C93   C     C_R   0.706571 0.292166 0.804529 -0.132872
C94   C     C_R   0.293593 0.294541 0.195782 -0.288885
C95   C     C_R   0.706289 0.707320 0.803872 -0.142384
C96   C     C_R   0.759850 0.238932 0.174667 -0.120545
C97   C     C_R   0.238825 0.761896 0.825686 -0.115013
C98   C     C_R   0.198910 0.707539 0.705558 -0.193464
C99   C     C_R   0.801644 0.292401 0.294505 -0.193442
C100  C     C_R   0.193002 0.291238 0.706128 -0.124241
C101  C     C_R   0.678830 0.777374 0.774912 -0.018811
C102  C     C_R   0.804820 0.706171 0.293768 -0.191558
C103  C     C_R   0.194246 0.294799 0.294158 -0.299614
C104  C     C_R   0.805293 0.706038 0.706377 -0.123742
C105  C     C_R   0.193957 0.706787 0.293401 -0.306997
C106  C     C_R   0.826530 0.233435 0.768022 -0.092212
C107  C     C_R   0.708264 0.195917 0.709739 -0.325241
C108  C     C_R   0.292587 0.802998 0.292964 -0.126610
C109  C     C_R   0.707201 0.196474 0.295961 -0.178729
C110  C     C_R   0.293288 0.803448 0.705046 -0.182985
C111  C     C_R   0.292627 0.197219 0.294866 -0.172608
C112  C     C_R   0.798644 0.295476 0.213570 -0.032461
C113  C     C_R   0.707715 0.804977 0.704831 -0.142365
C114  C     C_R   0.291835 0.193357 0.706841 -0.153574
C115  C     C_R   0.761051 0.825216 0.238031 -0.125217
C116  C     C_R   0.616582 0.816144 0.903105 -0.139847
C117  C     C_R   0.382238 0.183630 0.095702 -0.136773
C118  C     C_R   0.180379 0.621522 0.903755 -0.065605
C119  C     C_R   0.819395 0.379307 0.097049 -0.072905
C120  C     C_R   0.380304 0.183420 0.904932 -0.059775
C121  C     C_R   0.624208 0.818087 0.088918 -0.058199
C122  C     C_R   0.819379 0.375183 0.912922 -0.008915
C123  C     C_R   0.200945 0.704981 0.786619 -0.026645
C124  C     C_R   0.182678 0.618494 0.094596 -0.071867
C125  C     C_R   0.620473 0.180551 0.096772 -0.096791
C126  C     C_R   0.378856 0.819584 0.903880 -0.090526
C127  C     C_R   0.183626 0.382243 0.095328 -0.116669
C128  C     C_R   0.816397 0.618424 0.905160 -0.095961
C129  C     C_R   0.381730 0.816874 0.094744 -0.048017
C130  C     C_R   0.616261 0.184310 0.904135 -0.019251
C131  C     C_R   0.815476 0.615892 0.097381 -0.104914
C132  C     C_R   0.183131 0.380648 0.904160 -0.073969
C133  C     C_R   0.903688 0.616718 0.815866 -0.135247
C134  C     C_R   0.671205 0.227645 0.773493 0.053373
C135  C     C_R   0.096139 0.383557 0.184185 -0.116970
C136  C     C_R   0.904432 0.179646 0.623991 -0.046052
C137  C     C_R   0.096869 0.816077 0.384399 -0.103207
C138  C     C_R   0.911956 0.374133 0.181209 -0.049376
C139  C     C_R   0.088363 0.625506 0.818661 -0.061221
C140  C     C_R   0.912716 0.819317 0.374742 -0.059475
C141  C     C_R   0.094674 0.183141 0.617786 -0.066248
C142  C     C_R   0.094503 0.618076 0.183303 -0.106272
C143  C     C_R   0.904587 0.376622 0.820110 -0.095917
C144  C     C_R   0.094429 0.183486 0.381726 -0.124869
H1    H     H_    0.614651 0.761635 0.931037 0.147061
H2    H     H_    0.377617 0.763511 0.929813 0.142059
H3    H     H_    0.236935 0.382978 0.065802 0.091316
H4    H     H_    0.763743 0.620566 0.936276 0.156474
H5    H     H_    0.380242 0.764610 0.063605 0.159627
H6    H     H_    0.615667 0.238233 0.933483 0.122814
H7    H     H_    0.760966 0.615298 0.069326 0.126281
H8    H     H_    0.236826 0.377980 0.933637 0.099111
H9    H     H_    0.932040 0.615024 0.761464 0.149189
H10   H     H_    0.068635 0.387365 0.238618 0.096834
H11   H     H_    0.930186 0.235124 0.627034 0.139473
H12   H     H_    0.384271 0.237471 0.067022 0.097158
H13   H     H_    0.070079 0.762153 0.389168 0.096619
H14   H     H_    0.944035 0.367390 0.233291 0.090065
H15   H     H_    0.056803 0.631589 0.766185 0.106448
H16   H     H_    0.945247 0.767123 0.369209 0.087638
H17   H     H_    0.064451 0.236736 0.618509 0.149529
H18   H     H_    0.064820 0.617832 0.236691 0.095970
H19   H     H_    0.930784 0.373141 0.764098 0.142770
H20   H     H_    0.064759 0.236892 0.382913 0.094310
H21   H     H_    0.937060 0.763630 0.620270 0.156536
H22   H     H_    0.063840 0.380850 0.763747 0.161313
H23   H     H_    0.236119 0.622585 0.929479 0.139396
H24   H     H_    0.932961 0.614761 0.239081 0.115967
H25   H     H_    0.069432 0.760921 0.615221 0.127690
H26   H     H_    0.931137 0.238937 0.384442 0.113682
H27   H     H_    0.761359 0.931308 0.613621 0.128893
H28   H     H_    0.236491 0.064522 0.377706 0.110405
H29   H     H_    0.620264 0.926630 0.238036 0.122406
H30   H     H_    0.386076 0.068668 0.761876 0.157377
H31   H     H_    0.236317 0.933942 0.379667 0.155846
H32   H     H_    0.768455 0.055695 0.632957 0.100403
H33   H     H_    0.369651 0.944695 0.766328 0.113467
H34   H     H_    0.762940 0.379894 0.072982 0.132274
H35   H     H_    0.632805 0.052983 0.232064 0.124064
H36   H     H_    0.235846 0.063351 0.619916 0.155913
H37   H     H_    0.763792 0.930562 0.376548 0.128468
H38   H     H_    0.376616 0.063396 0.236712 0.117614
H39   H     H_    0.622210 0.938174 0.764049 0.149535
H40   H     H_    0.762277 0.067072 0.383939 0.113162
H41   H     H_    0.238596 0.931737 0.614416 0.124991
H42   H     H_    0.612782 0.070210 0.760557 0.098249
H43   H     H_    0.380713 0.932913 0.237448 0.153172
H44   H     H_    0.530575 0.647588 0.155665 0.345466
H45   H     H_    0.376569 0.236508 0.935400 0.104031
H46   H     H_    0.370193 0.461881 0.853744 0.338272
H47   H     H_    0.413947 0.561329 0.205616 0.360795
H48   H     H_    0.553685 0.398436 0.854558 0.358345
H49   H     H_    0.352877 0.353379 0.067914 0.258751
H50   H     H_    0.594476 0.590935 0.909124 0.343654
H51   H     H_    0.858246 0.135029 0.045953 0.344573
H52   H     H_    0.136285 0.862357 0.953882 0.334070
H53   H     H_    0.156547 0.529338 0.649683 0.349724
H54   H     H_    0.850242 0.393272 0.449790 0.353328
H55   H     H_    0.204364 0.412191 0.557023 0.369436
H56   H     H_    0.630248 0.766076 0.056870 0.106584
H57   H     H_    0.849394 0.651137 0.473574 0.345090
H58   H     H_    0.066704 0.353052 0.354252 0.258901
H59   H     H_    0.912252 0.592994 0.591549 0.339253
H60   H     H_    0.066071 0.649366 0.351772 0.254708
H61   H     H_    0.954136 0.136985 0.874928 0.331159
H62   H     H_    0.644298 0.080817 0.641328 0.274583
H63   H     H_    0.406658 0.904880 0.407499 0.331344
H64   H     H_    0.543716 0.120945 0.360545 0.366025
H65   H     H_    0.395083 0.853005 0.548723 0.340352
H66   H     H_    0.368736 0.141744 0.463549 0.344281
H67   H     H_    0.767402 0.370369 0.945611 0.117416
H68   H     H_    0.591282 0.795516 0.553865 0.345216
H69   H     H_    0.405512 0.087163 0.591747 0.338944
H70   H     H_    0.853831 0.951474 0.127139 0.345075
H71   H     H_    0.235931 0.619666 0.064164 0.154534
H72   H     H_    0.621629 0.236651 0.070849 0.135803
N1    N     N_R   0.584840 0.879720 0.932190 -0.049023
N2    N     N_R   0.415160 0.879720 0.932190 -0.057381
N3    N     N_R   0.120280 0.415160 0.067810 -0.047494
N4    N     N_R   0.879720 0.584840 0.932190 -0.050632
N5    N     N_R   0.415160 0.879720 0.067810 -0.054072
N6    N     N_R   0.584840 0.120280 0.932190 -0.056550
N7    N     N_R   0.879720 0.584840 0.067810 -0.053867
N8    N     N_R   0.120280 0.415160 0.932190 -0.053317
N9    N     N_R   0.932190 0.584840 0.879720 -0.049077
N10   N     N_R   0.067810 0.415160 0.120280 -0.047210
N11   N     N_R   0.932190 0.120280 0.584840 -0.055974
N12   N     N_R   0.415160 0.120280 0.067810 -0.048868
N13   N     N_R   0.067810 0.879720 0.415160 -0.047406
N14   N     N_R   0.932190 0.415160 0.120280 -0.053765
N15   N     N_R   0.067810 0.584840 0.879720 -0.053957
N16   N     N_R   0.932190 0.879720 0.415160 -0.053063
N17   N     N_R   0.067810 0.120280 0.584840 -0.053122
N18   N     N_R   0.067810 0.584840 0.120280 -0.047898
N19   N     N_R   0.932190 0.415160 0.879720 -0.057563
N20   N     N_R   0.067810 0.120280 0.415160 -0.047663
N21   N     N_R   0.932190 0.879720 0.584840 -0.048779
N22   N     N_R   0.067810 0.415160 0.879720 -0.055455
N23   N     N_R   0.120280 0.584840 0.932190 -0.057486
N24   N     N_R   0.932190 0.584840 0.120280 -0.051958
N25   N     N_R   0.067810 0.879720 0.584840 -0.051936
N26   N     N_R   0.932190 0.120280 0.415160 -0.054057
N27   N     N_R   0.879720 0.932190 0.584840 -0.046661
N28   N     N_R   0.120280 0.067810 0.415160 -0.051186
N29   N     N_R   0.584840 0.932190 0.120280 -0.056572
N30   N     N_R   0.415160 0.067810 0.879720 -0.050831
N31   N     N_R   0.120280 0.932190 0.415160 -0.050184
N32   N     N_R   0.879720 0.067810 0.584840 -0.049233
N33   N     N_R   0.415160 0.932190 0.879720 -0.053599
N34   N     N_R   0.879720 0.415160 0.067810 -0.060255
N35   N     N_R   0.584840 0.067810 0.120280 -0.059754
N36   N     N_R   0.120280 0.067810 0.584840 -0.050443
N37   N     N_R   0.879720 0.932190 0.415160 -0.057479
N38   N     N_R   0.415160 0.067810 0.120280 -0.052263
N39   N     N_R   0.584840 0.932190 0.879720 -0.049736
N40   N     N_R   0.879720 0.067810 0.415160 -0.056393
N41   N     N_R   0.120280 0.932190 0.584840 -0.051575
N42   N     N_R   0.584840 0.067810 0.879720 -0.050382
N43   N     N_R   0.415160 0.932190 0.120280 -0.051179
N44   N     N_R   0.415160 0.120280 0.932190 -0.052399
N45   N     N_R   0.584840 0.879720 0.067810 -0.053905
N46   N     N_R   0.879720 0.415160 0.932190 -0.060467
N47   N     N_R   0.120280 0.584840 0.067810 -0.053810
N48   N     N_R   0.584840 0.120280 0.067810 -0.057612
Ni1   Ni    Ni4+2 0.500000 0.880920 0.000000 0.243257
Ni2   Ni    Ni4+2 0.119080 0.000000 0.500000 0.246608
Ni3   Ni    Ni4+2 0.500000 1.000000 0.119080 0.247838
Ni4   Ni    Ni4+2 0.500000 0.000000 0.880920 0.249843
Ni5   Ni    Ni4+2 0.500000 0.119080 0.000000 0.249129
Ni6   Ni    Ni4+2 0.119080 0.500000 0.000000 0.242297
Ni7   Ni    Ni4+2 0.880920 0.500000 0.000000 0.251604
Ni8   Ni    Ni4+2 0.000000 0.500000 0.880920 0.247887
Ni9   Ni    Ni4+2 0.000000 0.500000 0.119080 0.252504
Ni10  Ni    Ni4+2 0.000000 0.119080 0.500000 0.244043
Ni11  Ni    Ni4+2 0.000000 0.880920 0.500000 0.249792
Ni12  Ni    Ni4+2 0.880920 0.000000 0.500000 0.246337
O1    O     O_2   0.653441 0.588074 0.165575 -0.616890
O2    O     O_R   0.378048 0.378566 0.112561 -0.775259
O3    O     O_2   0.610261 0.621318 0.776132 -0.546158
O4    O     O_R   0.635789 0.630309 0.902692 -0.855270
O5    O     O_2   0.765647 0.236557 0.039388 -0.691033
O6    O     O_R   0.842707 0.150640 0.099631 -0.777828
O7    O     O_2   0.234093 0.765855 0.960949 -0.680468
O8    O     O_R   0.152264 0.846907 0.900286 -0.780485
O9    O     O_2   0.164287 0.651729 0.588925 -0.597302
O10   O     O_R   0.171938 0.568728 0.688598 -0.780478
O11   O     O_2   0.832112 0.420888 0.316691 -0.582124
O12   O     O_R   0.569345 0.686741 0.171233 -0.791049
O13   O     O_R   0.835396 0.345120 0.422201 -0.781824
O14   O     O_2   0.103757 0.366477 0.637808 -0.679892
O15   O     O_R   0.225947 0.375475 0.596627 -0.707178
O16   O     O_2   0.843566 0.590665 0.351600 -0.587672
O17   O     O_R   0.832595 0.689675 0.433455 -0.785232
O18   O     O_2   0.238616 0.382271 0.382704 -0.497428
O19   O     O_R   0.110872 0.377684 0.380425 -0.757469
O20   O     O_2   0.779501 0.608991 0.620080 -0.548973
O21   O     O_R   0.904889 0.635527 0.629923 -0.861612
O22   O     O_2   0.237950 0.615096 0.380286 -0.479410
O23   O     O_2   0.414812 0.333311 0.841742 -0.615475
O24   O     O_R   0.110211 0.621750 0.376495 -0.744873
O25   O     O_2   0.960900 0.226437 0.770462 -0.682487
O26   O     O_R   0.900832 0.152503 0.858719 -0.777175
O27   O     O_2   0.659350 0.252524 0.599120 -0.508931
O28   O     O_R   0.634310 0.127168 0.608242 -0.739937
O29   O     O_2   0.386877 0.772692 0.382012 -0.548902
O30   O     O_R   0.365179 0.899543 0.367907 -0.862324
O31   O     O_2   0.657546 0.163086 0.416764 -0.581188
O32   O     O_R   0.575367 0.147162 0.319758 -0.769582
O33   O     O_2   0.421699 0.834547 0.681820 -0.622936
O34   O     O_R   0.327328 0.428692 0.835270 -0.782880
O35   O     O_R   0.346794 0.838030 0.576754 -0.782712
O36   O     O_2   0.413127 0.153484 0.334664 -0.630263
O37   O     O_R   0.325815 0.161067 0.429838 -0.780240
O38   O     O_2   0.628282 0.893590 0.640275 -0.684698
O39   O     O_R   0.628734 0.773868 0.592484 -0.714903
O40   O     O_2   0.383849 0.220285 0.613905 -0.538463
O41   O     O_R   0.364117 0.094048 0.631843 -0.862556
O42   O     O_2   0.766537 0.959773 0.233056 -0.689650
O43   O     O_R   0.839281 0.898333 0.144502 -0.779445
O44   O     O_2   0.364718 0.639223 0.103503 -0.683154
O45   O     O_R   0.377150 0.600776 0.227081 -0.704221
O46   O     O_2   0.685328 0.422242 0.831259 -0.626859
O47   O     O_R   0.580484 0.349023 0.840246 -0.756366
O48   O     O_2   0.381666 0.381326 0.241126 -0.512065

loop_
_geom_bond_atom_site_label_1
_geom_bond_atom_site_label_2
_ccdc_geom_bond_type
C118  N23   A    
C49   C113  S    
C33   O7    D    
N48   Ni5   S    
C80   C132  A    
C135  N10   A    
C101  C113  A    
C131  H7    S    
C52   C75   S    
H55   O15   S    
C20   N39   A    
C28   O44   D    
N33   Ni4   S    
C133  N9    A    
C60   C98   A    
C116  H1    S    
C45   C109  S    
N39   Ni4   S    
C73   C126  A    
C34   O9    D    
C75   C128  A    
N44   Ni5   S    
N11   N32   A    
N31   Ni2   S    
N47   Ni6   S    
N13   Ni11  S    
C37   O14   D    
C38   O17   S    
C65   C118  A    
C6    N25   A    
C67   C120  A    
C46   C72   S    
C49   O39   S    
C16   H35   S    
C28   O45   S    
C139  H15   S    
C144  H20   S    
N16   Ni11  S    
C141  N17   A    
C85   C144  A    
C143  H19   S    
C83   C140  A    
C22   N41   A    
C27   O23   D    
C61   C104  A    
C119  N34   A    
C122  N46   A    
C15   N33   A    
C120  N44   A    
C50   C114  S    
C44   O29   D    
N7    Ni7   S    
C41   O22   D    
C7    C88   A    
C39   O18   D    
C27   O34   S    
C22   C87   A    
C23   C77   A    
C42   C106  S    
C41   C105  S    
C15   C73   A    
N19   N46   A    
N14   Ni9   S    
C132  H8    S    
C45   O31   D    
C55   C83   S    
C32   O5    D    
N32   Ni12  S    
N35   Ni3   S    
C81   C136  A    
C70   C79   S    
C29   O47   S    
N16   N37   A    
H52   O8    S    
C23   H42   S    
C12   N31   A    
C43   O28   S    
C17   N36   A    
C47   O33   D    
C72   C125  A    
C25   C76   A    
C30   C94   S    
C120  H45   S    
C21   N40   A    
N17   Ni10  S    
C54   C114  A    
C125  N48   A    
C2    C108  A    
C59   C109  A    
C36   C99   S    
C8    C86   A    
N5    Ni1   S    
C65   C139  A    
C10   C69   A    
C46   C96   A    
H57   O17   S    
C7    H26   S    
N40   Ni12  S    
C139  N15   A    
C1    C115  A    
C14   C81   A    
C33   C97   S    
N8    N22   A    
C126  N2    A    
N17   N36   A    
H50   O4    S    
C5    N24   A    
C12   H31   S    
N42   Ni4   S    
C70   C143  A    
C4    C80   A    
C107  C134  A    
C35   C97   A    
C41   O24   S    
H54   O13   S    
C118  H23   S    
N24   Ni9   S    
H60   O24   S    
C58   C107  A    
C70   C122  A    
C56   C108  A    
C25   H43   S    
C9    C85   A    
C62   C111  A    
C130  H6    S    
C27   C91   S    
N10   Ni9   S    
C128  N4    A    
C24   C102  A    
C8    H27   S    
N46   Ni7   S    
C21   C88   A    
N29   Ni3   S    
C90   C111  A    
N30   Ni4   S    
C36   O13   S    
C30   O2    S    
C138  N14   A    
C60   C110  A    
C136  H11   S    
C18   H37   S    
C30   O48   D    
C79   C106  A    
C2    C92   A    
N9    Ni8   S    
C129  H5    S    
C138  H14   S    
C74   C127  A    
C66   C138  A    
N15   Ni8   S    
C31   O4    S    
H70   O43   S    
N36   Ni2   S    
C66   C119  A    
C15   H33   S    
C39   O19   S    
C40   O20   D    
C77   C134  S    
C3    H21   S    
C11   H30   S    
C53   C94   A    
N37   Ni12  S    
C56   C82   S    
C45   O32   S    
C137  H13   S    
C17   C84   A    
C20   C63   A    
C5    C78   A    
C97   C123  A    
C140  H16   S    
H62   O28   S    
C34   O10   S    
N3    N10   A    
C13   C80   S    
N13   N31   A    
C68   C105  A    
C4    N22   A    
H68   O39   S    
C131  N7    A    
C37   C100  S    
C13   C91   A    
C49   O38   D    
C95   C101  A    
C124  H71   S    
C21   H40   S    
C117  N12   A    
C53   C74   S    
C16   C72   A    
C64   C90   S    
C54   C84   S    
H53   O10   S    
C127  N3    A    
C55   C102  A    
C135  H10   S    
H51   O6    S    
C40   O21   S    
C22   H41   S    
C59   C99   A    
C52   C95   A    
C47   O35   S    
C5    H24   S    
C44   O30   S    
C48   O36   D    
C14   H32   S    
N6    Ni5   S    
H44   O12   S    
C23   N42   A    
C10   H29   S    
C33   O8    S    
N29   N45   A    
C3    C86   A    
N21   Ni11  S    
C32   O6    S    
C19   H38   S    
C16   N35   A    
C90   C94   A    
N38   Ni3   S    
N21   N27   A    
C29   O46   D    
C130  N6    A    
C137  N13   A    
C58   C81   S    
C144  N20   A    
C128  H4    S    
C8    N27   A    
N19   Ni8   S    
C43   O27   D    
C51   C115  S    
C64   C117  A    
C121  H56   S    
N45   Ni1   S    
H46   O34   S    
C19   C64   A    
C37   O15   S    
C74   C135  A    
C38   O16   D    
C18   C83   A    
C10   N29   A    
C43   C107  S    
C35   C110  A    
N34   Ni7   S    
C20   H39   S    
C63   C116  A    
C24   C78   S    
C136  N11   A    
C140  N16   A    
N1    Ni1   S    
N2    N33   A    
H69   O41   S    
C2    C76   S    
H49   O2    S    
C52   C104  A    
C57   C91   A    
N23   Ni6   S    
C132  N8    A    
C11   N30   A    
N41   Ni2   S    
C142  H18   S    
C75   C133  A    
C39   C103  S    
N18   Ni9   S    
C124  N47   A    
N12   Ni5   S    
N25   Ni11  S    
C29   C93   S    
C51   O42   D    
C55   C115  A    
C84   C141  A    
C53   C103  A    
C68   C71   S    
C31   C95   S    
C7    N26   A    
C34   C98   S    
N28   Ni2   S    
C77   C130  A    
C65   C123  S    
C1    C69   S    
C56   C105  A    
N30   N44   A    
C61   C86   S    
C46   C109  A    
C122  H67   S    
C9    H28   S    
C36   O11   D    
C116  N1    A    
C26   O1    D    
C141  H17   S    
N26   N40   A    
C63   C101  S    
C24   C89   A    
C126  H2    S    
C26   C89   S    
C26   O12   S    
C96   C112  A    
N25   N41   A    
C133  H9    S    
H64   O32   S    
N11   Ni10  S    
C79   C93   A    
C82   C137  A    
N7    N24   A    
C125  H72   S    
N2    Ni1   S    
N15   N23   A    
N1    N39   A    
C143  N19   A    
N4    Ni7   S    
C59   C88   S    
C121  N45   A    
C68   C92   A    
H47   O45   S    
C119  H34   S    
C31   O3    D    
N35   N48   A    
C50   O40   D    
C54   C100  A    
C57   C67   S    
C60   C87   S    
C11   C67   A    
C14   N32   A    
C44   C108  S    
C18   N37   A    
C98   C123  A    
C62   C85   S    
C71   C124  A    
N26   Ni10  S    
C129  N5    A    
C93   C134  A    
C50   O41   S    
C6    C87   A    
C58   C106  A    
C25   N43   A    
C78   C131  A    
H59   O21   S    
H61   O26   S    
C40   C104  S    
C76   C129  A    
C19   N38   A    
C69   C121  A    
C117  H12   S    
H63   O30   S    
C12   C82   A    
C48   O37   S    
C28   C92   S    
N22   Ni8   S    
N6    N42   A    
C3    N21   A    
C71   C142  A    
N12   N38   A    
C17   H36   S    
N18   N47   A    
C32   C96   S    
C61   C113  A    
H65   O35   S    
H48   O47   S    
C62   C103  A    
C42   O26   S    
C35   C73   S    
C1    C89   A    
C57   C114  A    
C47   C110  S    
N3    Ni6   S    
N20   N28   A    
C13   C100  A    
C38   C102  S    
N14   N34   A    
N43   Ni3   S    
C99   C112  A    
H58   O19   S    
C4    H22   S    
N4    N9    A    
N20   Ni10  S    
H66   O37   S    
N8    Ni6   S    
C142  N18   A    
C48   C111  S    
C51   O43   S    
C66   C112  S    
N5    N43   A    
C9    N28   A    
N27   Ni12  S    
C42   O25   D    
C127  H3    S    
C6    H25   S    
