data_mof_unit_31369.cif
_audit_creation_date              2012-12-11T15:18:31-0500
_audit_creation_method            fapswitch 2.2
_symmetry_space_group_name_H-M    P1
_symmetry_Int_Tables_number       1
_space_group_crystal_system       triclinic
_cell_length_a                    6.938939
_cell_length_b                    19.919861
_cell_length_c                    23.843069
_cell_angle_alpha                 93.58755
_cell_angle_beta                  91.010092
_cell_angle_gamma                 88.51107
_cell_volume                      3287.66152012

loop_
_atom_site_label
_atom_site_type_symbol
_atom_type_description
_atom_site_fract_x
_atom_site_fract_y
_atom_site_fract_z
_atom_type_partial_charge
O1    O     O_R   0.620100 0.812200 0.810870 -0.548998
O2    O     O_R   0.379900 0.187800 0.189130 -0.549144
O3    O     O_R   0.296960 0.671650 0.794750 -0.536021
O4    O     O_R   0.703040 0.328350 0.205250 -0.536884
O5    O     O_R   0.120160 0.687800 0.689130 -0.505889
O6    O     O_R   0.879840 0.312200 0.310870 -0.502534
C1    C     C_R   0.468608 0.647166 0.804807 0.720553
C2    C     C_R   0.531392 0.352834 0.195193 0.719382
O7    O     O_R   0.290810 0.810670 0.817290 -0.507646
O8    O     O_R   0.709190 0.189330 0.182710 -0.507696
O9    O     O_R   0.113980 0.827820 0.711840 -0.542623
O10   O     O_R   0.886020 0.172180 0.288160 -0.520414
C3    C     C_R   0.458907 0.832153 0.834100 0.749127
C4    C     C_R   0.541085 0.167861 0.165889 0.749008
O11   O     O_R   0.626290 0.672180 0.788160 -0.544735
O12   O     O_R   0.373710 0.327820 0.211840 -0.544526
O13   O     O_3   0.451520 0.755460 0.715370 -0.366671
O14   O     O_3   0.548480 0.244540 0.284630 -0.362396
V1    V     V_3+5 0.179200 0.748980 0.756420 1.560170
V2    V     V_3+5 0.820800 0.251020 0.243580 1.579943
O15   O     O_R   0.783880 0.828350 0.705250 -0.534986
O16   O     O_R   0.216120 0.171650 0.294750 -0.552922
C5    C     C_R   0.950416 0.852667 0.695022 0.746677
C6    C     C_R   0.050053 0.147248 0.304978 0.740551
O17   O     O_R   0.790030 0.689320 0.682700 -0.542503
O18   O     O_R   0.209970 0.310680 0.317300 -0.546233
C7    C     C_R   0.959600 0.667514 0.666195 0.765647
C8    C     C_R   0.040403 0.332514 0.333786 0.758884
V3    V     V_3+5 0.678400 0.751010 0.743570 1.511725
V4    V     V_3+5 0.321600 0.248990 0.256430 1.500136
O19   O     O_3   0.955950 0.744540 0.784620 -0.375122
O20   O     O_3   0.044050 0.255460 0.215380 -0.375620
C9    C     C_R   0.868874 0.427973 0.388162 0.651839
C10   C     C_R   0.131147 0.572102 0.611788 0.649203
C11   C     C_R   0.027941 0.382632 0.382570 -0.242954
C12   C     C_R   0.972093 0.617446 0.617382 -0.245921
C13   C     C_R   0.174831 0.385119 0.423660 -0.209200
C14   C     C_R   0.825306 0.615024 0.576259 -0.201524
C15   C     C_R   0.163889 0.431140 0.470638 -0.017697
C16   C     C_R   0.836264 0.569012 0.529272 -0.019791
C17   C     C_R   0.004789 0.476660 0.476344 -0.116770
C18   C     C_R   0.995339 0.523478 0.523572 -0.117295
C19   C     C_R   0.855873 0.475531 0.434743 -0.025844
C20   C     C_R   0.144225 0.524588 0.565183 -0.025395
C21   C     C_R   0.310368 0.432173 0.511964 0.538126
C22   C     C_R   0.689821 0.567993 0.487936 0.539525
C23   C     C_R   0.301389 0.477969 0.559101 0.139231
C24   C     C_R   0.698754 0.522171 0.440812 0.139302
H1    H     H_    0.296855 0.350202 0.419322 0.214517
H2    H     H_    0.703346 0.649971 0.580586 0.217406
C25   C     C_R   0.955838 0.913552 0.662960 -0.040474
C26   C     C_R   0.052463 0.086208 0.337154 -0.038721
C27   C     C_R   0.984946 0.034110 0.664170 -0.160901
C28   C     C_R   0.150333 0.969436 0.341780 -0.161074
C29   C     C_R   0.978559 0.975493 0.692585 -0.214123
C30   C     C_R   0.136944 0.027499 0.312567 -0.196604
C31   C     C_R   0.944282 0.909735 0.603568 0.127841
C32   C     C_R   0.984699 0.087449 0.392855 0.121499
C33   C     C_R   0.977052 0.968824 0.573480 0.043795
C34   C     C_R   0.023565 0.030593 0.426272 0.041109
C35   C     C_R   0.983942 0.031485 0.605296 0.110412
C36   C     C_R   0.095174 0.970343 0.398045 0.109145
C37   C     C_R   0.008661 0.968864 0.513951 0.059352
C38   C     C_R   0.001828 0.030913 0.486270 0.059479
C39   C     C_R   0.001891 0.091266 0.520289 -0.195236
C40   C     C_R   0.074040 0.910547 0.482899 -0.195084
C41   C     C_R   0.995947 0.091405 0.578423 -0.171588
C42   C     C_R   0.118655 0.911558 0.426511 -0.172673
H3    H     H_    0.003783 0.139147 0.602729 0.131977
H4    H     H_    0.175739 0.865847 0.405140 0.133686
H5    H     H_    0.188875 0.026261 0.269897 0.142728
H6    H     H_    0.986369 0.978603 0.738111 0.159887
H7    H     H_    0.995656 0.081772 0.688437 0.131837
H8    H     H_    0.210304 0.923981 0.320759 0.131174
H9    H     H_    0.025031 0.139072 0.503283 0.141553
H10   H     H_    0.109786 0.864632 0.502568 0.144499
C43   C     C_R   0.488781 0.585786 0.836116 -0.053317
C44   C     C_R   0.511219 0.414214 0.163884 -0.053178
C45   C     C_R   0.594176 0.469314 0.837749 -0.162921
C46   C     C_R   0.405822 0.530686 0.162251 -0.162683
C47   C     C_R   0.557681 0.526503 0.808277 -0.135234
C48   C     C_R   0.442318 0.473497 0.191723 -0.135017
C49   C     C_R   0.457205 0.587636 0.894317 -0.220042
C50   C     C_R   0.542794 0.412363 0.105683 -0.220229
C51   C     C_R   0.497965 0.530230 0.925830 0.090687
C52   C     C_R   0.502034 0.469770 0.074171 0.090710
C53   C     C_R   0.566752 0.470739 0.895994 0.132322
C54   C     C_R   0.433247 0.529260 0.104006 0.132116
C55   C     C_R   0.476297 0.529911 0.985683 0.054509
C56   C     C_R   0.523702 0.470088 0.014317 0.054613
C57   C     C_R   0.590331 0.412565 0.982113 -0.177017
C58   C     C_R   0.409667 0.587435 0.017887 -0.176922
C59   C     C_R   0.610752 0.413056 0.924351 -0.187602
C60   C     C_R   0.389246 0.586944 0.075649 -0.187211
H11   H     H_    0.663307 0.367602 0.901580 0.134656
H12   H     H_    0.336691 0.632398 0.098420 0.135016
H13   H     H_    0.592998 0.364956 0.086343 0.101416
H14   H     H_    0.407003 0.635044 0.913657 0.101638
H15   H     H_    0.415266 0.475298 0.236428 0.147054
H16   H     H_    0.584734 0.524702 0.763572 0.146810
H17   H     H_    0.647536 0.423983 0.815004 0.123881
H18   H     H_    0.352461 0.576016 0.184996 0.124233
H19   H     H_    0.629053 0.365882 0.000284 0.134672
H20   H     H_    0.370944 0.634118 0.999716 0.134819
C61   C     C_R   0.685775 0.072527 0.104297 0.644826
C62   C     C_R   0.314261 0.927544 0.895640 0.642607
C63   C     C_R   0.531790 0.118528 0.116438 -0.228404
C64   C     C_R   0.468198 0.881511 0.883530 -0.226163
C65   C     C_R   0.365941 0.116610 0.081585 -0.213613
C66   C     C_R   0.634030 0.883427 0.918388 -0.213343
C67   C     C_R   0.352793 0.070200 0.034829 0.008710
C68   C     C_R   0.647206 0.929858 0.965125 0.008242
C69   C     C_R   0.506481 0.023803 0.023269 -0.073811
C70   C     C_R   0.493529 0.976263 0.976676 -0.073549
C71   C     C_R   0.673022 0.024794 0.058253 -0.029664
C72   C     C_R   0.327006 0.975280 0.941685 -0.028300
C73   C     C_R   0.188833 0.069295 0.999316 0.593360
C74   C     C_R   0.811187 0.930775 0.000628 0.593603
C75   C     C_R   0.176499 0.022373 0.953295 -0.183171
C76   C     C_R   0.823545 0.977709 0.046637 -0.181392
H21   H     H_    0.247626 0.152005 0.090648 0.212856
H22   H     H_    0.752321 0.848017 0.909340 0.212780
H23   H     H_    0.047762 0.022828 0.926932 0.193419
H24   H     H_    0.952302 0.977263 0.072992 0.194078
F1    F     F_    0.729577 0.426307 0.347332 -0.669053
F2    F     F_    0.270357 0.573718 0.652643 -0.669233
F3    F     F_    0.845689 0.072904 0.138103 -0.693690
F4    F     F_    0.154423 0.927196 0.861802 -0.698897
F5    F     F_    0.039653 0.113726 0.009111 -0.689482
F6    F     F_    0.960368 0.886344 0.990834 -0.688928
F7    F     F_    0.463752 0.388458 0.506756 -0.701839
F8    F     F_    0.536487 0.611731 0.493128 -0.701614
N1    N     N_3   0.452036 0.476084 0.600969 -0.551314
H25   H     H_    0.455934 0.428303 0.616838 0.249735
H26   H     H_    0.583554 0.482758 0.581657 0.255500
N2    N     N_3   0.548102 0.524048 0.398946 -0.551091
H27   H     H_    0.544240 0.571818 0.383055 0.249945
H28   H     H_    0.416586 0.517400 0.418265 0.255731
N3    N     N_3   0.858533 0.142716 0.410798 -0.672060
H29   H     H_    0.763216 0.129086 0.441304 0.249139
H30   H     H_    0.940491 0.183807 0.425094 0.215110
N4    N     N_3   0.872763 0.848527 0.576663 -0.686210
H31   H     H_    0.801468 0.857187 0.538744 0.251123
H32   H     H_    0.986170 0.813331 0.571067 0.217787

loop_
_geom_bond_atom_site_label_1
_geom_bond_atom_site_label_2
_ccdc_geom_bond_type
C32   N3    S    
C6    C26   S    
C40   C42   A    
C44   C48   A    
O13   V3    S    
C17   C18   A    
O4    C2    A    
V1    O19   S    
C74   C76   A    
C45   C53   A    
C56   C57   A    
C15   C17   A    
C16   C22   A    
C61   C63   A    
O9    V1    S    
C31   N4    S    
C50   H13   S    
C14   C16   A    
C50   C52   A    
O3    C1    A    
C73   C75   A    
C22   F8    S    
C52   C54   A    
C31   C33   A    
C67   C73   A    
C43   C49   A    
O12   V4    S    
C62   F4    S    
C34   C36   A    
C48   H15   S    
C21   C23   A    
O7    C3    A    
O13   V1    S    
C9    F1    S    
C28   H8    S    
C27   C35   A    
O7    V1    S    
O6    C8    A    
C68   C74   A    
C8    C11   S    
O8    V2    S    
C39   C41   A    
C49   H14   S    
O3    V1    S    
C25   C31   A    
C73   F5    S    
C19   C24   A    
C17   C19   A    
C10   C12   A    
C29   H6    S    
C20   C23   A    
C15   C21   A    
C27   C29   A    
C37   C40   A    
C2    O12   A    
O5    C7    A    
C23   N1    S    
C2    C44   S    
C63   C65   A    
C18   C20   A    
C3    C64   S    
C68   C70   A    
C24   N2    S    
C34   C38   A    
O11   V3    S    
C22   C24   A    
C51   C53   A    
O17   V3    S    
C28   C30   A    
C33   C35   A    
C14   H2    S    
C61   F3    S    
C9    C19   A    
C10   C20   A    
N2    H28   S    
O8    C4    A    
C45   C47   A    
C51   C55   A    
N2    H27   S    
C1    O11   A    
C28   C36   A    
C25   C29   A    
O15   V3    S    
C46   H18   S    
C41   H3    S    
C74   F6    S    
C57   C59   A    
C13   H1    S    
C35   C41   A    
C5    C25   S    
C43   C47   A    
C10   F2    S    
C30   H5    S    
C40   H10   S    
O10   V2    S    
C58   C60   A    
C67   C69   A    
C55   C58   A    
C60   H12   S    
C26   C32   A    
O14   V4    S    
C42   H4    S    
C4    C63   S    
C49   C51   A    
C21   F7    S    
O15   C5    A    
C52   C56   A    
N1    H25   S    
O16   C6    A    
O1    C3    A    
C12   C14   A    
N4    H32   S    
C69   C70   A    
V2    O20   S    
O16   V4    S    
C11   C13   A    
V3    O19   S    
O18   C8    A    
C61   C71   A    
C27   H7    S    
C57   H19   S    
C16   C18   A    
C70   C72   A    
N3    H29   S    
O18   V4    S    
C46   C54   A    
O5    V1    S    
C47   H16   S    
C75   H23   S    
C7    C12   S    
O17   C7    A    
O6    V2    S    
O10   C6    A    
C33   C37   A    
C39   H9    S    
C72   C75   A    
C1    C43   S    
O2    V4    S    
C38   C39   A    
C65   C67   A    
C13   C15   A    
C66   H22   S    
V4    O20   S    
N3    H30   S    
C65   H21   S    
O1    V3    S    
C62   C64   A    
C53   C59   A    
O9    C5    A    
C9    C11   A    
C46   C48   A    
C64   C66   A    
O14   V2    S    
C36   C42   A    
O2    C4    A    
C66   C68   A    
C76   H24   S    
C58   H20   S    
C37   C38   A    
O4    V2    S    
C44   C50   A    
C59   H11   S    
C71   C76   A    
C62   C72   A    
N1    H26   S    
C54   C60   A    
N4    H31   S    
C45   H17   S    
C55   C56   A    
C32   C34   A    
C26   C30   A    
C69   C71   A    
