data_mof_unit_14635.cif
_audit_creation_date              2012-12-11T15:41:19-0500
_audit_creation_method            fapswitch 2.2
_symmetry_space_group_name_H-M    P1
_symmetry_Int_Tables_number       1
_space_group_crystal_system       triclinic
_cell_length_a                    14.897171
_cell_length_b                    14.922027
_cell_length_c                    14.966445
_cell_angle_alpha                 109.222299
_cell_angle_beta                  109.913353
_cell_angle_gamma                 109.423859
_cell_volume                      2556.41679382

loop_
_atom_site_label
_atom_site_type_symbol
_atom_type_description
_atom_site_fract_x
_atom_site_fract_y
_atom_site_fract_z
_atom_type_partial_charge
C1    C     C_R   0.194149 0.993286 0.903261 -0.129106
C2    C     C_R   0.752531 0.937194 0.031197 -0.122584
C3    C     C_R   0.779813 0.325468 0.327291 0.040024
C4    C     C_R   0.129991 0.700250 0.699956 0.024731
C5    C     C_R   0.499333 0.934669 0.301188 0.039829
C6    C     C_R   0.497935 0.960286 0.672558 0.051326
C7    C     C_R   0.493977 0.326086 0.025548 -0.064438
C8    C     C_R   0.502969 0.705622 0.079552 -0.083483
C9    C     C_R   0.125823 0.212843 0.784913 -0.131026
C10   C     C_R   0.825526 0.904185 0.426085 -0.128017
C11   C     C_R   0.236630 0.294452 0.856289 -0.169283
C12   C     C_R   0.722130 0.811349 0.346064 -0.151487
C13   C     C_R   0.280809 0.342873 0.970396 0.128443
C14   C     C_R   0.711553 0.727592 0.257723 0.115969
C15   C     C_R   0.212527 0.309020 0.011915 -0.154923
C16   C     C_R   0.806150 0.738132 0.251016 -0.177487
C17   C     C_R   0.101714 0.227267 0.940162 -0.102699
C18   C     C_R   0.909205 0.831251 0.330971 -0.122627
C19   C     C_R   0.058260 0.179875 0.826806 -0.113615
C20   C     C_R   0.918898 0.914153 0.418472 -0.087647
C21   C     C_R   0.404823 0.539234 0.083321 -0.230680
C22   C     C_R   0.594149 0.525746 0.149834 -0.194526
C23   C     C_R   0.750343 0.221873 0.314865 -0.110039
C24   C     C_R   0.194805 0.791723 0.700381 -0.130444
C25   C     C_R   0.505198 0.630368 0.123567 0.071243
C26   C     C_R   0.492463 0.428998 0.071973 0.089089
C27   C     C_R   0.602510 0.627760 0.175046 0.021720
C28   C     C_R   0.394766 0.436080 0.045673 -0.003005
C29   C     C_R   0.870951 0.528338 0.431182 -0.168661
C30   C     C_R   0.964909 0.523356 0.624199 -0.174099
C31   C     C_R   0.959974 0.623369 0.525475 -0.159709
C32   C     C_R   0.876475 0.428427 0.529915 -0.165519
C33   C     C_R   0.014468 0.618097 0.618948 0.141573
C34   C     C_R   0.837712 0.428242 0.430446 0.140834
C35   C     C_R   0.598025 0.951694 0.571439 -0.162454
C36   C     C_R   0.398821 0.844629 0.376038 -0.167305
C37   C     C_R   0.598695 0.946723 0.478102 -0.192169
C38   C     C_R   0.398178 0.851997 0.470231 -0.174919
C39   C     C_R   0.498993 0.902674 0.382920 0.142214
C40   C     C_R   0.497842 0.916231 0.570331 0.147445
C41   C     C_R   0.968356 0.842377 0.947159 -0.168120
C42   C     C_R   0.872814 0.939710 0.846331 -0.177432
C43   C     C_R   0.881933 0.850816 0.955902 -0.168826
C44   C     C_R   0.959383 0.930986 0.837436 -0.166064
C45   C     C_R   0.407763 0.906351 0.208556 -0.125800
C46   C     C_R   0.590094 0.039384 0.774811 -0.148543
C47   C     C_R   0.843028 0.911168 0.916447 0.147006
C48   C     C_R   0.015670 0.894602 0.899263 0.141755
C49   C     C_R   0.586846 0.315142 0.037847 0.570189
C50   C     C_R   0.411029 0.701341 0.006294 0.612933
C51   C     C_R   0.591249 0.995821 0.299732 -0.140110
C52   C     C_R   0.406312 0.938387 0.684701 -0.128626
C53   C     C_R   0.404945 0.220574 0.964500 -0.242397
C54   C     C_R   0.592681 0.796060 0.102287 -0.258041
C55   C     C_R   0.755859 0.315294 0.225237 -0.182344
C56   C     C_R   0.194346 0.702324 0.792883 -0.136021
C57   C     C_R   0.196958 0.904577 0.997097 -0.122840
C58   C     C_R   0.763241 0.036756 0.947754 -0.130164
C59   C     C_R   0.131087 0.930456 0.932554 0.039950
C60   C     C_R   0.785912 0.957454 0.960867 0.039105
H1    H     H_    0.164931 0.015647 0.842016 0.097667
H2    H     H_    0.759491 0.882441 0.061989 0.101339
H3    H     H_    0.092116 0.175703 0.697122 0.105430
H4    H     H_    0.833674 0.968268 0.494443 0.097535
H5    H     H_    0.288089 0.319637 0.822884 0.112190
H6    H     H_    0.650458 0.803940 0.353180 0.125053
H7    H     H_    0.244877 0.346707 0.099575 0.117038
H8    H     H_    0.800001 0.674713 0.183572 0.138509
H9    H     H_    0.049211 0.201393 0.972377 0.113792
H10   H     H_    0.981619 0.839030 0.325200 0.108527
H11   H     H_    0.330869 0.544753 0.064579 0.196653
H12   H     H_    0.668043 0.522670 0.188939 0.160529
H13   H     H_    0.836457 0.532510 0.357358 0.116595
H14   H     H_    0.000595 0.517799 0.696851 0.109611
H15   H     H_    0.991800 0.697180 0.520817 0.112248
H16   H     H_    0.847427 0.353946 0.533906 0.107372
H17   H     H_    0.676484 0.993614 0.646031 0.101160
H18   H     H_    0.320324 0.803598 0.301842 0.109291
H19   H     H_    0.677604 0.987583 0.485019 0.103026
H20   H     H_    0.319341 0.816634 0.465394 0.108690
H21   H     H_    0.004716 0.806096 0.989022 0.107384
H22   H     H_    0.837201 0.978089 0.806856 0.102140
H23   H     H_    0.758921 0.198721 0.377045 0.089517
H24   H     H_    0.167177 0.824307 0.648755 0.084850
H25   H     H_    0.855027 0.820320 0.003674 0.110631
H26   H     H_    0.988482 0.963059 0.791704 0.113512
H27   H     H_    0.322694 0.848020 0.175791 0.096322
H28   H     H_    0.672545 0.086272 0.792525 0.083778
H29   H     H_    0.675490 0.018514 0.350674 0.091829
H30   H     H_    0.320530 0.883964 0.622268 0.092540
H31   H     H_    0.319729 0.192811 0.938352 0.163298
H32   H     H_    0.677677 0.832922 0.163017 0.157135
H33   H     H_    0.776452 0.381053 0.207989 0.159543
H34   H     H_    0.165358 0.654914 0.828061 0.148775
H35   H     H_    0.171908 0.845580 0.022848 0.088728
H36   H     H_    0.791836 0.081371 0.910507 0.080879
H37   H     H_    0.972174 0.117621 0.771353 0.094293
H38   H     H_    0.998809 0.986010 0.480549 0.095070
N1    N     N_R   0.293810 0.002730 0.945950 -0.037207
N2    N     N_R   0.706190 0.997270 0.054050 -0.036570
N3    N     N_R   0.706160 0.152130 0.208910 -0.038009
N4    N     N_R   0.293840 0.847870 0.791090 -0.038517
N5    N     N_R   0.443140 0.945920 0.152090 -0.043464
N6    N     N_R   0.556860 0.054080 0.847910 -0.044749
N7    N     N_R   0.556830 0.208940 0.002760 -0.101461
N8    N     N_R   0.443170 0.791060 0.997240 -0.093465
N9    N     N_R   0.556790 0.002750 0.208910 -0.038664
N10   N     N_R   0.443210 0.997250 0.791090 -0.038418
N11   N     N_R   0.443180 0.152110 0.945950 -0.066432
N12   N     N_R   0.556820 0.847890 0.054050 -0.068543
N13   N     N_R   0.706170 0.208950 0.152090 -0.046817
N14   N     N_R   0.293830 0.791050 0.847910 -0.038724
N15   N     N_R   0.293800 0.945910 0.002760 -0.037902
N16   N     N_R   0.706200 0.054090 0.997240 -0.040543
Ni1   Ni    Ni4+2 0.369690 0.999990 0.869700 0.203289
Ni2   Ni    Ni4+2 0.630310 0.000010 0.130300 0.206751
Ni3   Ni    Ni4+2 0.369670 0.869670 0.000000 0.234312
Ni4   Ni    Ni4+2 0.630330 0.130330 0.000000 0.198807
O1    O     O_3   0.683460 0.394975 0.056799 -0.658254
C61   C     C_3   0.724109 0.347319 0.993942 -0.282111
H39   H     H_    0.660674 0.296695 0.905079 0.150795
H40   H     H_    0.754260 0.297773 0.022793 0.143972
H41   H     H_    0.795246 0.414032 0.003852 0.171739
O2    O     O_3   0.301830 0.624992 0.957849 -0.653974
C62   C     C_3   0.273521 0.539482 0.858103 -0.348483
H42   H     H_    0.326885 0.502371 0.870978 0.157251
H43   H     H_    0.279434 0.568635 0.799763 0.155317
H44   H     H_    0.186996 0.474299 0.819603 0.189499

loop_
_geom_bond_atom_site_label_1
_geom_bond_atom_site_label_2
_ccdc_geom_bond_type
C18   H10   S    
C38   C40   A    
C17   H9    S    
C8    C50   A    
N4    N14   A    
N2    Ni2   S    
C55   H33   S    
C1    N1    A    
C19   H37   S    
C23   N3    A    
C56   H34   S    
C37   H19   S    
C7    C26   S    
C23   H23   S    
C21   H11   S    
N13   Ni4   S    
N10   Ni1   S    
C58   N16   A    
C45   H27   S    
C1    C59   A    
N1    Ni1   S    
N14   Ni3   S    
C4    C24   A    
C2    C60   A    
C57   C59   A    
C29   H13   S    
C58   C60   A    
C54   N12   A    
C58   H36   S    
C21   C25   A    
N4    Ni1   S    
C45   N5    A    
C47   C60   S    
C52   H30   S    
C9    C19   A    
C10   C20   A    
C38   H20   S    
C42   H22   S    
C32   H16   S    
C53   H31   S    
C62   H44   S    
C31   C33   A    
C13   C28   S    
C16   H8    S    
C14   C27   S    
C46   H28   S    
C61   H41   S    
C15   H7    S    
C5    C45   A    
C4    C56   A    
C8    C25   S    
C41   C43   A    
N5    Ni3   S    
C42   C44   A    
C44   H26   S    
C22   H12   S    
C61   H40   S    
N6    Ni4   S    
C43   H25   S    
C6    C40   S    
C50   O2    S    
C7    C49   A    
C8    C54   A    
C57   N15   A    
C3    C34   S    
C3    C23   A    
C12   H6    S    
C29   C34   A    
C35   H17   S    
C32   C34   A    
C54   H32   S    
C24   N4    A    
C31   H15   S    
C29   C31   A    
C41   H21   S    
N2    N16   A    
C9    C11   A    
N16   Ni4   S    
C10   C12   A    
N15   Ni3   S    
C51   N9    A    
C21   C28   A    
C12   C14   A    
C22   C27   A    
C13   C15   A    
N8    Ni3   S    
C57   H35   S    
C62   H42   S    
C14   C16   A    
N7    Ni4   S    
N3    N13   A    
C7    C53   A    
N12   Ni2   S    
N6    N10   A    
C61   H39   S    
C35   C37   A    
C48   C59   S    
C50   N8    A    
N8    N12   A    
C53   N11   A    
C15   C17   A    
N7    N11   A    
C4    C33   S    
C6    C46   A    
C30   C33   A    
C55   N13   A    
C9    H3    S    
C26   C28   A    
C36   C39   A    
C10   H4    S    
C1    H1    S    
N1    N15   A    
C49   N7    A    
O1    C61   S    
C25   C27   A    
C3    C55   A    
C5    C39   S    
C35   C40   A    
C24   H24   S    
C37   C39   A    
C44   C48   A    
C36   H18   S    
C51   H29   S    
C30   C32   A    
C11   C13   A    
C49   O1    S    
C46   N6    A    
C30   H14   S    
C36   C38   A    
C17   C19   A    
C41   C48   A    
C18   C20   A    
C42   C47   A    
N9    Ni2   S    
N11   Ni1   S    
C2    N2    A    
C2    H2    S    
C20   H38   S    
C52   N10   A    
C16   C18   A    
C22   C26   A    
C62   H43   S    
N3    Ni2   S    
C5    C51   A    
N5    N9    A    
C6    C52   A    
C43   C47   A    
C56   N14   A    
C11   H5    S    
O2    C62   S    
