data_mof_unit_36081.cif
_audit_creation_date              2013-03-05T15:40:17-0500
_audit_creation_method            fapswitch 2.2
_symmetry_space_group_name_H-M    P1
_symmetry_Int_Tables_number       1
_space_group_crystal_system       triclinic
_cell_length_a                    10.764209
_cell_length_b                    8.691784
_cell_length_c                    7.453543
_cell_angle_alpha                 102.856434
_cell_angle_beta                  94.505818
_cell_angle_gamma                 92.560424
_cell_volume                      676.384067601

loop_
_atom_site_label
_atom_site_type_symbol
_atom_site_description
_atom_site_fract_x
_atom_site_fract_y
_atom_site_fract_z
_atom_type_partial_charge
O1    O     O_R   0.509050 0.286130 0.619770 -0.589098
O2    O     O_R   0.485540 0.256780 0.308360 -0.549121
C1    C     C_R   0.496405 0.199769 0.453349 0.916411
O3    O     O_R   0.331410 0.514680 0.655740 -0.595357
O4    O     O_R   0.307900 0.485330 0.344330 -0.562779
C2    C     C_R   0.262996 0.507818 0.502886 0.812585
Cu1   Cu    Cu3+1 0.513920 0.517380 0.684380 0.965943
Cu2   Cu    Cu3+1 0.486080 0.482620 0.315620 1.000024
O5    O     O_R   0.514460 0.743220 0.691640 -0.593181
O6    O     O_R   0.490950 0.713870 0.380230 -0.581873
O7    O     O_R   0.692100 0.514670 0.655670 -0.585981
O8    O     O_R   0.668590 0.485320 0.344260 -0.595137
C3    C     C_R   0.503606 0.800235 0.546707 0.859914
C4    C     C_R   0.737483 0.510297 0.499863 0.772003
H1    H     H_    0.092974 0.338213 0.256948 0.207014
C5    C     C_R   0.152994 0.752297 0.774829 -0.244763
H2    H     H_    0.253240 0.759893 0.775373 0.194019
C6    C     C_R   0.099807 0.861780 0.910136 0.403539
C7    C     C_R   0.969852 0.862979 0.905626 -0.212537
H3    H     H_    0.926542 0.949529 0.005354 0.171350
C8    C     C_R   0.894221 0.756236 0.769129 -0.242577
H4    H     H_    0.794844 0.769339 0.766468 0.168842
C9    C     C_R   0.946545 0.639222 0.638051 0.110081
C10   C     C_R   0.077902 0.637102 0.641298 0.034678
C11   C     C_R   0.129797 0.522557 0.506344 -0.084289
C12   C     C_R   0.053410 0.421674 0.364404 -0.147384
H5    H     H_    0.868613 0.339184 0.253915 0.163146
C13   C     C_R   0.925643 0.423303 0.361451 -0.201073
C14   C     C_R   0.871673 0.526857 0.499829 -0.082275
C15   C     C_2   0.495359 0.031978 0.427183 -0.308171
H6    H     H_    0.487183 0.960620 0.286558 0.207462
C16   C     C_2   0.504747 0.968021 0.573110 -0.364710
H7    H     H_    0.513229 0.039263 0.713869 0.193154
N1    N     N_2   0.465100 0.456430 0.038520 -0.205175
H8    H     H_    0.402247 0.377730 0.948457 0.245870
N2    N     N_2   0.534900 0.543570 0.961480 -0.217942
H9    H     H_    0.597737 0.622297 0.051537 0.225106
N3    N     N_R   0.177763 0.972129 0.051014 0.112773
O9    O     O_R   0.295319 0.999177 0.031664 -0.395888
O10   O     O_R   0.133105 0.040959 0.203708 -0.404603

loop_
_geom_bond_atom_site_label_1
_geom_bond_atom_site_label_2
_geom_bond_distance
_ccdc_geom_bond_type
O4    Cu2   1.947105 S    
N3    O10   1.301126 A    
C9    C10   1.413271 A    
C1    C15   1.427137 S    
Cu1   N2    2.020271 S    
C3    C16   1.426885 S    
C12   C13   1.374511 A    
C7    H3    1.082933 S    
Cu2   O8    1.957917 S    
C16   H7    1.087786 S    
O2    C1    1.284808 A    
C6    N3    1.438092 S    
Cu1   Cu2   2.688616 S    
C5    C10   1.415719 A    
C5    C6    1.400979 A    
Cu2   N1    2.020270 S    
C8    H4    1.079912 S    
Cu1   O7    1.947106 S    
O4    C2    1.289919 A    
O3    Cu1   1.957916 S    
C9    C14   1.419937 A    
O3    C2    1.295337 A    
C13   C14   1.392538 A    
C7    C8    1.393184 A    
O8    C4    1.296389 A    
N1    H8    1.029186 S    
N1    N2    1.295527 D    
C8    C9    1.414779 A    
C15   H6    1.087375 S    
O7    C4    1.288371 A    
C2    C11   1.446914 S    
C4    C14   1.445213 S    
C15   C16   1.326303 D    
N3    O9    1.301728 A    
C10   C11   1.416822 A    
Cu2   O6    1.957172 S    
C6    C7    1.397179 A    
H5    C13   1.084282 S    
Cu1   O5    1.951359 S    
O5    C3    1.284439 A    
N2    H9    1.029180 S    
H1    C12   1.082466 S    
C11   C12   1.396528 A    
O1    Cu1   1.957174 S    
O2    Cu2   1.951361 S    
C5    H2    1.077781 S    
O1    C1    1.292523 A    
O6    C3    1.292880 A    
