data_mof_unit_32322.cif
_audit_creation_date              2012-10-26T19:07:30-0400
_audit_creation_method            fapswitch 2.2
_symmetry_space_group_name_H-M    P1
_symmetry_Int_Tables_number       1
_space_group_crystal_system       triclinic
_cell_length_a                    15.05605
_cell_length_b                    13.885159
_cell_length_c                    10.630503
_cell_angle_alpha                 89.835403
_cell_angle_beta                  87.537594
_cell_angle_gamma                 89.822566
_cell_volume                      2220.29562642

loop_
_atom_site_label
_atom_site_type_symbol
_atom_type_description
_atom_site_fract_x
_atom_site_fract_y
_atom_site_fract_z
_atom_type_partial_charge
C1    C     C_R   0.329229 0.500244 0.501243 0.577506
C2    C     C_R   0.961174 0.583730 0.296500 0.499030
C3    C     C_R   0.430015 0.794399 0.556203 0.382804
C4    C     C_R   0.569942 0.205607 0.443649 0.390049
C5    C     C_R   0.569566 0.794090 0.442544 0.378206
C6    C     C_R   0.430452 0.205869 0.557391 0.378771
C7    C     C_R   0.573138 0.896803 0.446499 0.038246
C8    C     C_R   0.426812 0.103171 0.553238 0.037722
C9    C     C_R   0.426544 0.897031 0.551754 0.040474
C10   C     C_R   0.573389 0.102960 0.447968 0.042185
C11   C     C_R   0.500140 0.948495 0.500175 -0.139582
C12   C     C_R   0.670642 0.499777 0.498520 0.574533
C13   C     C_R   0.499799 0.051486 0.499540 -0.140041
C14   C     C_R   0.646696 0.948825 0.393484 0.253571
C15   C     C_R   0.353192 0.051161 0.606092 0.254241
C16   C     C_R   0.351076 0.949003 0.598736 0.258266
C17   C     C_R   0.648817 0.050986 0.400837 0.261892
C18   C     C_R   0.500135 0.500219 0.259602 0.575714
C19   C     C_R   0.499994 0.499779 0.740384 0.575052
C20   C     C_3   0.500233 0.592191 0.040239 -0.129244
C21   C     C_3   0.500088 0.407799 0.959715 -0.131590
C22   C     C_3   0.573675 0.545469 0.953255 -0.132785
C23   C     C_R   0.952817 0.499095 0.498197 -0.153111
C24   C     C_3   0.426646 0.454517 0.046687 -0.123754
C25   C     C_3   0.428341 0.544965 0.962458 0.394013
C26   C     C_3   0.571979 0.455024 0.037506 0.387539
C27   C     C_3   0.500598 0.499094 0.877100 -0.018650
C28   C     C_3   0.499708 0.500896 0.122862 -0.016713
C29   C     C_R   0.816435 0.538470 0.392070 0.253865
C30   C     C_R   0.183253 0.454574 0.602191 0.253735
C31   C     C_R   0.767050 0.498638 0.495233 0.031157
C32   C     C_R   0.232591 0.501264 0.504170 0.027949
C33   C     C_R   0.808823 0.459550 0.598808 0.238549
C34   C     C_R   0.046738 0.499735 0.500074 -0.151781
C35   C     C_R   0.190414 0.550368 0.408083 0.233778
C36   C     C_R   0.902342 0.454948 0.598125 -0.032466
C37   C     C_R   0.097130 0.546723 0.402355 -0.031486
C38   C     C_R   0.909676 0.541663 0.395660 0.017043
C39   C     C_R   0.089971 0.452944 0.599425 0.016130
C40   C     C_R   0.946558 0.405374 0.692884 0.436545
C41   C     C_R   0.053210 0.585781 0.299425 0.433760
C42   C     C_R   0.038688 0.404903 0.693945 0.501147
Cu1   Cu    Cu3+1 0.500000 0.597420 0.500000 1.036871
Cu2   Cu    Cu3+1 0.500000 0.402580 0.500000 1.051161
F1    F     F_    0.353946 0.591414 0.919975 -0.561974
F2    F     F_    0.646379 0.408567 0.079958 -0.567763
F3    F     F_    0.901624 0.352727 0.782584 -0.517628
F4    F     F_    0.098554 0.622663 0.197203 -0.521958
F5    F     F_    0.076949 0.355507 0.788036 -0.473594
F6    F     F_    0.923294 0.623165 0.194610 -0.480678
H1    H     H_    0.499176 0.667505 0.075081 0.167701
H2    H     H_    0.611168 0.305126 0.330859 0.375594
H3    H     H_    0.610647 0.695769 0.328867 0.353554
H4    H     H_    0.389787 0.303806 0.671658 0.352590
H5    H     H_    0.742145 0.939672 0.264925 0.353717
H6    H     H_    0.257555 0.060341 0.734371 0.355260
H7    H     H_    0.222215 0.940157 0.617188 0.351276
H8    H     H_    0.777665 0.059817 0.382039 0.353925
H9    H     H_    0.501146 0.332487 0.924869 0.170684
H10   H     H_    0.634213 0.581329 0.912670 0.169220
H11   H     H_    0.366124 0.418610 0.087233 0.184691
H12   H     H_    0.714846 0.548418 0.282928 0.333843
H13   H     H_    0.283015 0.442068 0.713471 0.332459
H14   H     H_    0.781027 0.456766 0.777092 0.381421
H15   H     H_    0.217772 0.666064 0.315560 0.385281
H16   H     H_    0.388807 0.694918 0.669060 0.377813
N1    N     N_R   0.500000 0.743810 0.500000 -0.288374
N2    N     N_R   0.500000 0.256190 0.500000 -0.289128
O1    O     O_R   0.370260 0.582280 0.500030 -0.455705
O2    O     O_3   0.224118 0.412443 0.702911 -0.545749
O3    O     O_3   0.756096 0.428877 0.700502 -0.604681
O4    O     O_3   0.242496 0.599945 0.319965 -0.599420
O5    O     O_3   0.362031 0.746607 0.619759 -0.570958
O6    O     O_3   0.637932 0.253415 0.380130 -0.560569
O7    O     O_3   0.637725 0.745593 0.380376 -0.568861
O8    O     O_3   0.362465 0.254325 0.619893 -0.562202
O9    O     O_3   0.716241 0.899249 0.334098 -0.599036
O10   O     O_3   0.283563 0.100750 0.665257 -0.591994
O11   O     O_3   0.274506 0.899269 0.633774 -0.602526
O12   O     O_R   0.629740 0.417720 0.499970 -0.445068
O13   O     O_3   0.725355 0.100720 0.365634 -0.592945
O14   O     O_R   0.629740 0.582280 0.499970 -0.492524
O15   O     O_R   0.370260 0.417720 0.500030 -0.486964
O16   O     O_R   0.499980 0.582260 0.316850 -0.532490
O17   O     O_R   0.500020 0.417740 0.683150 -0.530617
O18   O     O_R   0.500020 0.582260 0.683150 -0.516505
O19   O     O_R   0.499980 0.417740 0.316850 -0.517388
O20   O     O_3   0.775705 0.574457 0.287274 -0.552034

loop_
_geom_bond_atom_site_label_1
_geom_bond_atom_site_label_2
_ccdc_geom_bond_type
C40   F3    S    
C21   C26   S    
C24   H11   S    
C34   C37   A    
H7    O11   S    
C5    N1    A    
C19   O18   A    
C7    C11   A    
C8    C13   A    
C35   C37   A    
C9    C16   A    
C21   H9    S    
C20   H1    S    
H2    O6    S    
C22   H10   S    
H5    O9    S    
H14   O3    S    
C15   O10   S    
C20   C25   S    
C2    C41   A    
C15   C16   A    
C33   C36   A    
H6    O10   S    
C14   O9    S    
C29   O20   S    
C2    F6    S    
C7    C14   A    
C29   C38   A    
C18   O16   A    
C31   C33   A    
Cu2   O19   S    
C19   C27   S    
C4    O6    S    
Cu2   O15   S    
C40   C42   A    
C21   C27   S    
Cu1   O1    S    
Cu1   O16   S    
C14   C17   A    
H3    O7    S    
C30   O2    S    
C39   C42   A    
C34   C39   A    
C32   C35   A    
Cu2   O12   S    
C18   C28   S    
C24   C25   S    
H8    O13   S    
C4    N2    A    
C26   F2    S    
C6    C8    A    
C20   C28   S    
H16   O5    S    
H12   O20   S    
C1    C32   S    
C1    O1    A    
C5    O7    S    
Cu1   Cu2   S    
C3    C9    A    
C2    C38   A    
H13   O2    S    
C36   C40   A    
C23   C34   A    
C12   O14   A    
C9    C11   A    
H4    O8    S    
C20   C22   S    
C35   O4    S    
C8    C15   A    
C22   C27   S    
C12   C31   S    
Cu2   N2    S    
C25   C27   S    
C4    C10   A    
Cu2   O17   S    
C23   C38   A    
C25   F1    S    
C5    C7    A    
Cu1   O18   S    
C3    N1    A    
C24   C28   S    
C19   O17   A    
C10   C13   A    
C6    O8    S    
C1    O15   A    
H15   O4    S    
C26   C28   S    
C18   O19   A    
C16   O11   S    
C29   C31   A    
C30   C32   A    
C11   C13   A    
C12   O12   A    
C6    N2    A    
C41   F4    S    
C30   C39   A    
C17   O13   S    
C37   C41   A    
C3    O5    S    
C33   O3    S    
C42   F5    S    
Cu1   N1    S    
C23   C36   A    
C22   C26   S    
C21   C24   S    
Cu1   O14   S    
C10   C17   A    
