data_mof_unit_65551.cif
_audit_creation_date              2012-12-10T17:56:08-0500
_audit_creation_method            fapswitch 2.2
_symmetry_space_group_name_H-M    P1
_symmetry_Int_Tables_number       1
_space_group_crystal_system       triclinic
_cell_length_a                    30.221875
_cell_length_b                    30.686313
_cell_length_c                    21.680499
_cell_angle_alpha                 89.981421
_cell_angle_beta                  134.737958
_cell_angle_gamma                 90.027808
_cell_volume                      14282.2794905

loop_
_atom_site_label
_atom_site_type_symbol
_atom_type_description
_atom_site_fract_x
_atom_site_fract_y
_atom_site_fract_z
_atom_type_partial_charge
C1    C     C_R   0.309439 0.809531 0.118557 0.808582
C2    C     C_R   0.690566 0.809531 0.881420 0.771625
C3    C     C_R   0.809643 0.309458 0.118523 0.796184
C4    C     C_R   0.190456 0.309524 0.881302 0.769227
C5    C     C_R   0.548161 0.788022 0.003513 0.154606
C6    C     C_R   0.452883 0.788067 0.998570 0.153702
C7    C     C_R   0.047421 0.288051 0.001986 0.152663
C8    C     C_R   0.952145 0.288039 0.997047 0.154286
C9    C     C_R   0.523515 0.668089 0.000871 0.395360
C10   C     C_R   0.474390 0.668126 0.995324 0.395205
C11   C     C_R   0.024696 0.168104 0.003073 0.394313
C12   C     C_R   0.975557 0.168097 0.997497 0.394859
C13   C     C_R   0.477274 0.827465 0.000547 -0.194260
C14   C     C_R   0.524803 0.827440 0.003484 -0.192563
C15   C     C_R   0.975902 0.327452 0.997783 -0.190647
C16   C     C_R   0.023427 0.327459 0.000713 -0.192381
C17   C     C_R   0.346141 0.841263 0.252676 0.058156
C18   C     C_R   0.652784 0.840854 0.746290 0.014329
C19   C     C_R   0.834393 0.347370 0.239736 0.013340
C20   C     C_R   0.149291 0.339560 0.743113 0.039100
C21   C     C_R   0.340706 0.843754 0.183374 -0.117403
C22   C     C_R   0.659270 0.843735 0.816519 -0.105333
C23   C     C_R   0.841768 0.343490 0.183427 -0.094309
C24   C     C_R   0.158913 0.343612 0.815968 -0.116012
C25   C     C_R   0.360956 0.881774 0.172951 -0.177713
C26   C     C_R   0.639917 0.882056 0.827602 -0.176267
C27   C     C_R   0.874217 0.376239 0.183312 -0.184770
C28   C     C_R   0.142503 0.382968 0.828970 -0.165574
C29   C     C_R   0.393648 0.913854 0.237663 -0.192579
C30   C     C_R   0.607186 0.914137 0.762901 -0.200645
C31   C     C_R   0.906254 0.408589 0.247575 -0.193406
C32   C     C_R   0.109751 0.415017 0.764216 -0.195768
C33   C     C_R   0.404630 0.908624 0.311827 -0.059270
C34   C     C_R   0.595255 0.908592 0.688042 -0.051659
C35   C     C_R   0.904291 0.409077 0.310521 -0.063656
C36   C     C_R   0.094906 0.408409 0.687318 -0.058560
C37   C     C_R   0.377588 0.873375 0.315975 0.051432
C38   C     C_R   0.621277 0.872969 0.682987 0.063065
C39   C     C_R   0.864838 0.379823 0.302035 0.056641
C40   C     C_R   0.118229 0.371728 0.680047 0.066473
C41   C     C_3   0.408295 0.841035 0.387608 -0.564361
C42   C     C_3   0.589321 0.840619 0.611114 -0.547233
C43   C     C_3   0.877864 0.350631 0.368509 -0.514333
C44   C     C_3   0.084290 0.339585 0.607368 -0.546466
C45   C     C_R   0.335589 0.749761 0.999952 0.768302
C46   C     C_R   0.664407 0.749741 0.000067 0.796352
C47   C     C_R   0.835577 0.249748 0.999909 0.795035
C48   C     C_R   0.164398 0.249751 0.000029 0.772644
C49   C     C_3   0.373327 0.805763 0.318258 0.277435
C50   C     C_3   0.624300 0.805322 0.680342 0.267928
C51   C     C_3   0.844883 0.314706 0.300199 0.267811
C52   C     C_3   0.117996 0.304069 0.676465 0.262445
C53   C     C_R   0.866367 0.752718 0.920009 0.381770
C54   C     C_R   0.131442 0.763104 0.074127 0.382007
C55   C     C_R   0.366109 0.266143 0.921418 0.391965
C56   C     C_R   0.630377 0.243714 0.075881 0.373634
C57   C     C_R   0.884021 0.751442 0.999946 -0.261049
C58   C     C_R   0.115966 0.749921 0.999281 -0.206548
C59   C     C_R   0.382403 0.252565 0.997544 -0.258131
C60   C     C_R   0.614686 0.250637 0.998387 -0.208458
C61   C     C_R   0.947445 0.752718 0.079082 0.373722
C62   C     C_R   0.054185 0.739438 0.923114 0.315887
C63   C     C_R   0.444615 0.243568 0.074070 0.339480
C64   C     C_R   0.552566 0.259925 0.920517 0.343483
C65   C     C_R   0.993064 0.758930 0.077939 -0.056348
C66   C     C_R   0.006545 0.746803 0.919851 -0.055517
C67   C     C_R   0.491798 0.252114 0.077326 -0.063472
C68   C     C_R   0.507260 0.266812 0.922139 -0.055408
C69   C     C_R   0.976003 0.754567 0.998225 -0.123651
C70   C     C_R   0.022887 0.754397 0.998360 -0.096350
C71   C     C_R   0.475640 0.260105 0.999161 -0.126535
C72   C     C_R   0.522924 0.259549 0.000091 -0.093625
C73   C     C_R   0.912320 0.749712 0.918733 -0.062553
C74   C     C_R   0.086352 0.760600 0.077278 -0.119212
C75   C     C_R   0.412339 0.267338 0.920144 -0.059965
C76   C     C_R   0.585578 0.250658 0.078701 -0.122141
C77   C     C_R   0.056377 0.765942 0.155917 0.413249
C78   C     C_R   0.943007 0.744046 0.840613 0.374167
C79   C     C_R   0.555239 0.251671 0.157205 0.417542
C80   C     C_R   0.445617 0.279145 0.846220 0.381430
C81   C     C_R   0.102639 0.763959 0.156286 0.244257
C82   C     C_R   0.896648 0.743738 0.840265 0.297593
C83   C     C_R   0.601733 0.250736 0.157952 0.240129
C84   C     C_R   0.398175 0.277276 0.843725 0.303876
C85   C     C_R   0.182687 0.618924 0.824205 0.046115
C86   C     C_R   0.867806 0.622389 0.183058 0.035631
C87   C     C_R   0.629203 0.123743 0.814429 0.035873
C88   C     C_R   0.316909 0.119253 0.176403 0.045690
C89   C     C_R   0.189574 0.690670 0.881154 0.797030
C90   C     C_R   0.808432 0.690665 0.118536 0.845454
C91   C     C_R   0.691471 0.190676 0.881512 0.844209
C92   C     C_R   0.310387 0.190671 0.118822 0.808060
C93   C     C_R   0.154438 0.657787 0.813755 -0.162588
C94   C     C_R   0.840325 0.657724 0.185268 -0.154351
C95   C     C_R   0.659732 0.157718 0.814973 -0.146736
C96   C     C_R   0.345488 0.157777 0.186150 -0.165651
C97   C     C_R   0.091177 0.663906 0.733693 0.268752
C98   C     C_R   0.846390 0.660449 0.256313 0.255008
C99   C     C_R   0.657010 0.159076 0.746961 0.251149
C100  C     C_R   0.409096 0.163572 0.265452 0.265887
C101  C     C_R   0.059958 0.630934 0.670067 -0.204845
C102  C     C_R   0.879399 0.627874 0.320966 -0.207836
C103  C     C_R   0.624063 0.126505 0.682275 -0.207204
C104  C     C_R   0.440354 0.130607 0.329097 -0.207266
C105  C     C_R   0.091506 0.592819 0.683281 -0.104415
C106  C     C_R   0.907462 0.593073 0.316435 -0.113247
C107  C     C_R   0.592735 0.093090 0.683761 -0.116915
C108  C     C_R   0.408517 0.092831 0.316673 -0.105572
C109  C     C_R   0.153204 0.588586 0.760974 0.040233
C110  C     C_R   0.900734 0.592043 0.246382 0.067396
C111  C     C_R   0.596375 0.093412 0.751076 0.067721
C112  C     C_R   0.346470 0.088937 0.239689 0.042779
C113  C     C_3   0.208355 0.559438 0.811005 -0.463406
C114  C     C_3   0.912770 0.565006 0.202499 -0.460026
C115  C     C_3   0.579414 0.068521 0.790926 -0.450773
C116  C     C_3   0.290884 0.060276 0.190625 -0.464265
C117  C     C_3   0.242595 0.594269 0.883140 0.138670
C118  C     C_3   0.875350 0.599740 0.130078 0.115817
C119  C     C_3   0.616690 0.103303 0.863278 0.106081
C120  C     C_3   0.256579 0.095101 0.118471 0.136557
C121  C     C_R   0.940538 0.559293 0.381333 0.811742
C122  C     C_R   0.059523 0.559047 0.618894 0.813594
C123  C     C_R   0.440500 0.059070 0.381128 0.814930
C124  C     C_R   0.559463 0.059348 0.618635 0.812249
C125  C     C_R   0.440277 0.940668 0.381016 0.792173
C126  C     C_R   0.559703 0.940680 0.618978 0.789200
C127  C     C_R   0.940164 0.440731 0.380730 0.787400
C128  C     C_R   0.059567 0.440602 0.618699 0.789987
C129  C     C_R   0.164446 0.750026 0.999815 0.858656
C130  C     C_R   0.835797 0.750082 0.000418 0.787397
C131  C     C_R   0.663850 0.249803 0.999234 0.857282
C132  C     C_R   0.335153 0.250499 0.999423 0.771717
C133  C     C_R   0.595276 0.788224 0.005379 -0.216485
C134  C     C_R   0.405734 0.788303 0.996634 -0.221636
C135  C     C_R   0.094580 0.288276 0.003942 -0.219629
C136  C     C_R   0.905045 0.288253 0.995214 -0.217167
C137  C     C_R   0.616360 0.749080 0.000723 -0.037802
C138  C     C_R   0.383633 0.749116 0.999343 -0.043412
C139  C     C_R   0.116312 0.249101 0.000572 -0.045999
C140  C     C_R   0.883577 0.249090 0.999177 -0.035106
C141  C     C_R   0.591859 0.709309 0.997063 -0.172423
C142  C     C_R   0.407129 0.709304 0.001148 -0.191796
C143  C     C_R   0.092411 0.209300 0.998055 -0.193167
C144  C     C_R   0.907649 0.209303 0.002079 -0.169349
C145  C     C_R   0.547099 0.708017 0.000605 -0.092898
C146  C     C_R   0.451865 0.708044 0.997570 -0.093468
C147  C     C_R   0.047638 0.208029 0.001565 -0.092674
C148  C     C_R   0.952385 0.208023 0.998494 -0.092725
C149  C     C_R   0.523810 0.747888 0.001064 0.015775
C150  C     C_R   0.476201 0.747905 0.999076 0.017023
C151  C     C_R   0.023696 0.247896 0.000757 0.017237
C152  C     C_R   0.976083 0.247892 0.998761 0.015546
Cu1   Cu    Cu3+1 0.280880 0.719080 0.061820 1.084756
Cu2   Cu    Cu3+1 0.719120 0.719080 0.938180 1.041178
Cu3   Cu    Cu3+1 0.780880 0.219080 0.061820 1.036016
Cu4   Cu    Cu3+1 0.219120 0.219080 0.938180 1.072470
Cu5   Cu    Cu3+1 0.219090 0.780890 0.938220 1.044033
Cu6   Cu    Cu3+1 0.780910 0.780890 0.061780 1.038594
Cu7   Cu    Cu3+1 0.719090 0.280890 0.938220 1.049514
Cu8   Cu    Cu3+1 0.280910 0.280890 0.061780 1.043593
Cu9   Cu    Cu3+1 0.544430 0.999980 0.499990 1.002325
Cu10  Cu    Cu3+1 0.455570 0.999980 0.500010 0.991394
Cu11  Cu    Cu3+1 0.044430 0.499980 0.499990 0.998784
Cu12  Cu    Cu3+1 0.955570 0.499980 0.500010 1.005446
H1    H     H_    0.614307 0.818896 0.007764 0.140002
H2    H     H_    0.387460 0.818991 0.995700 0.141515
H3    H     H_    0.113158 0.318960 0.005424 0.143037
H4    H     H_    0.886333 0.318933 0.993408 0.139621
H5    H     H_    0.011568 0.635450 0.609855 0.183307
H6    H     H_    0.883167 0.629838 0.374420 0.189227
H7    H     H_    0.622778 0.127465 0.631078 0.191064
H8    H     H_    0.489005 0.134882 0.388735 0.183911
H9    H     H_    0.200581 0.527972 0.827615 0.223487
H10   H     H_    0.963120 0.563676 0.240125 0.243069
H11   H     H_    0.528417 0.068947 0.749701 0.243183
H12   H     H_    0.297678 0.028575 0.173421 0.223728
H13   H     H_    0.226093 0.556624 0.780419 0.193761
H14   H     H_    0.888915 0.532892 0.181557 0.166805
H15   H     H_    0.601393 0.035732 0.813424 0.161921
H16   H     H_    0.273937 0.057954 0.222323 0.191969
H17   H     H_    0.608423 0.679757 0.991651 0.156711
H18   H     H_    0.389778 0.679706 0.005118 0.157196
H19   H     H_    0.109479 0.179717 0.993592 0.158010
H20   H     H_    0.890779 0.179731 0.006956 0.156601
H21   H     H_    0.280277 0.611431 0.894640 0.114494
H22   H     H_    0.830430 0.587562 0.067214 0.146269
H23   H     H_    0.659626 0.090555 0.927649 0.144732
H24   H     H_    0.219663 0.112759 0.108097 0.113187
H25   H     H_    0.459781 0.858355 0.000299 0.152551
H26   H     H_    0.543094 0.858313 0.005234 0.151584
H27   H     H_    0.957928 0.358334 0.996597 0.153134
H28   H     H_    0.041234 0.358346 0.001517 0.154138
H29   H     H_    0.354259 0.885615 0.117152 0.161190
H30   H     H_    0.647359 0.886163 0.883980 0.156028
H31   H     H_    0.877191 0.375561 0.136353 0.146897
H32   H     H_    0.152261 0.388009 0.887043 0.164926
H33   H     H_    0.411369 0.942110 0.230752 0.161297
H34   H     H_    0.590196 0.942656 0.770389 0.147645
H35   H     H_    0.933531 0.432440 0.249272 0.160308
H36   H     H_    0.095035 0.444394 0.773328 0.160130
H37   H     H_    0.459125 0.839575 0.429115 0.173928
H38   H     H_    0.538617 0.839606 0.570619 0.170881
H39   H     H_    0.928419 0.344416 0.424418 0.165658
H40   H     H_    0.033259 0.339924 0.565720 0.168147
H41   H     H_    0.394109 0.844945 0.422692 0.224162
H42   H     H_    0.602745 0.844100 0.575003 0.223070
H43   H     H_    0.852924 0.361294 0.386364 0.228048
H44   H     H_    0.098046 0.341995 0.571545 0.226405
H45   H     H_    0.403945 0.783013 0.322348 0.157663
H46   H     H_    0.593758 0.782967 0.677140 0.162619
H47   H     H_    0.875682 0.287276 0.316574 0.161010
H48   H     H_    0.086747 0.283243 0.674184 0.159009
O1    O     O_R   0.321150 0.768980 0.142380 -0.568253
O2    O     O_R   0.678850 0.768980 0.857620 -0.575620
O3    O     O_R   0.821150 0.268980 0.142380 -0.575988
O4    O     O_R   0.178850 0.268980 0.857620 -0.571869
O5    O     O_R   0.917370 0.545120 0.409780 -0.583352
O6    O     O_R   0.082630 0.545120 0.590220 -0.577724
O7    O     O_R   0.417370 0.045120 0.409780 -0.578605
O8    O     O_R   0.582630 0.045120 0.590220 -0.584251
O9    O     O_R   0.492430 0.954900 0.409810 -0.583677
O10   O     O_R   0.507570 0.954900 0.590190 -0.587071
O11   O     O_R   0.992430 0.454900 0.409810 -0.588759
O12   O     O_R   0.007570 0.454900 0.590190 -0.582844
O13   O     O_R   0.417320 0.954950 0.409780 -0.576962
O14   O     O_R   0.582680 0.954950 0.590220 -0.573638
O15   O     O_R   0.917320 0.454950 0.409780 -0.574365
O16   O     O_R   0.082680 0.454950 0.590220 -0.574292
O17   O     O_R   0.268980 0.821170 0.038000 -0.586174
O18   O     O_R   0.731020 0.821170 0.962000 -0.588771
O19   O     O_R   0.768980 0.321170 0.038000 -0.585804
O20   O     O_R   0.231020 0.321170 0.962000 -0.585147
O21   O     O_R   0.340930 0.723870 0.052190 -0.578048
O22   O     O_R   0.659070 0.723870 0.947810 -0.590165
O23   O     O_R   0.840930 0.223870 0.052190 -0.592738
O24   O     O_R   0.159070 0.223870 0.947810 -0.575544
O25   O     O_R   0.288760 0.776060 0.947810 -0.585979
O26   O     O_R   0.711240 0.776060 0.052190 -0.565094
O27   O     O_R   0.788760 0.276060 0.947810 -0.564984
O28   O     O_R   0.211240 0.276060 0.052190 -0.584123
O29   O     O_R   0.230990 0.678800 0.962040 -0.555714
O30   O     O_R   0.769010 0.678800 0.037960 -0.590419
O31   O     O_R   0.730990 0.178800 0.962040 -0.597010
O32   O     O_R   0.269010 0.178800 0.037960 -0.551221
O33   O     O_R   0.178820 0.731000 0.857660 -0.549579
O34   O     O_R   0.821180 0.731000 0.142340 -0.541006
O35   O     O_R   0.678820 0.231000 0.857660 -0.542534
O36   O     O_R   0.321180 0.231000 0.142340 -0.546632
O37   O     O_R   0.211210 0.723910 0.052230 -0.534804
O38   O     O_R   0.788790 0.723910 0.947770 -0.528503
O39   O     O_R   0.711210 0.223910 0.052230 -0.513449
O40   O     O_R   0.288790 0.223910 0.947770 -0.547407
O41   O     O_R   0.159040 0.776100 0.947850 -0.570157
O42   O     O_R   0.840960 0.776100 0.052150 -0.579209
O43   O     O_R   0.659040 0.276100 0.947850 -0.584962
O44   O     O_R   0.340960 0.276100 0.052150 -0.555169
O45   O     O_R   0.992480 0.545070 0.409820 -0.575314
O46   O     O_R   0.007520 0.545070 0.590180 -0.578714
O47   O     O_R   0.492480 0.045070 0.409820 -0.580190
O48   O     O_R   0.507520 0.045070 0.590180 -0.576671
O49   O     O_3   0.328438 0.783940 0.310099 -0.618996
H49   H     H_    0.302130 0.805996 0.305406 0.363808
O50   O     O_3   0.668019 0.782927 0.686691 -0.638561
H50   H     H_    0.695299 0.804600 0.692679 0.359270
O51   O     O_3   0.789182 0.300505 0.273266 -0.617918
H51   H     H_    0.762067 0.326203 0.254172 0.350956
O52   O     O_3   0.159812 0.279611 0.681410 -0.640132
H52   H     H_    0.187566 0.300039 0.686064 0.379476
O53   O     O_3   0.804784 0.758538 0.843268 -0.642434
H53   H     H_    0.784026 0.777060 0.854156 0.326042
O54   O     O_3   0.189616 0.780930 0.140324 -0.675631
H54   H     H_    0.183757 0.807513 0.159922 0.330804
O55   O     O_3   0.305674 0.278181 0.848406 -0.660493
H55   H     H_    0.284247 0.288941 0.864784 0.322893
O56   O     O_3   0.688831 0.227821 0.146473 -0.630140
H56   H     H_    0.682963 0.202608 0.168771 0.354630
O57   O     O_3   0.966259 0.746050 0.157943 -0.659828
H57   H     H_    0.934223 0.729415 0.149319 0.356426
O58   O     O_3   0.039631 0.720316 0.852878 -0.650829
H58   H     H_    0.077316 0.706702 0.871966 0.330930
O59   O     O_3   0.460267 0.224267 0.145014 -0.653053
H59   H     H_    0.423972 0.208124 0.125896 0.337133
O60   O     O_3   0.534024 0.258831 0.841197 -0.659843
H60   H     H_    0.560210 0.237786 0.843995 0.357701
O61   O     O_3   0.074841 0.775437 0.233431 -0.615946
H61   H     H_    0.046181 0.798159 0.221181 0.354735
O62   O     O_3   0.924257 0.742830 0.761374 -0.606966
H62   H     H_    0.949153 0.764808 0.763045 0.370935
O63   O     O_3   0.573573 0.254256 0.236126 -0.608445
H63   H     H_    0.544914 0.274574 0.229415 0.370565
O64   O     O_3   0.430166 0.294154 0.773079 -0.613884
H64   H     H_    0.462479 0.315609 0.792616 0.360808
Br1   Br    Br    0.187463 0.760319 0.269404 -0.345633
Br2   Br    Br    0.813109 0.732237 0.728573 -0.273590
Br3   Br    Br    0.686262 0.257195 0.270716 -0.335201
Br4   Br    Br    0.315268 0.289026 0.731110 -0.322738
Br5   Br    Br    0.044029 0.715417 0.706091 -0.394971
Br6   Br    Br    0.807372 0.705740 0.265330 -0.447198
Br7   Br    Br    0.700196 0.202638 0.742282 -0.451800
Br8   Br    Br    0.456577 0.214653 0.291831 -0.390674
Br9   Br    Br    0.264903 0.573895 0.986879 -0.428035
Br10  Br    Br    0.925688 0.632906 0.121866 -0.460727
Br11  Br    Br    0.565064 0.139805 0.864775 -0.494393
Br12  Br    Br    0.232456 0.074333 0.013673 -0.432422
O65   O     O_3   0.546114 0.628079 0.004476 -0.654174
H65   H     H_    0.591691 0.630557 0.043365 0.323363
O66   O     O_3   0.450734 0.628175 0.989731 -0.649690
H66   H     H_    0.405238 0.631140 0.951072 0.312158
O67   O     O_3   0.047949 0.128128 0.007955 -0.651126
H67   H     H_    0.093480 0.130912 0.046704 0.311946
O68   O     O_3   0.952533 0.128107 0.993137 -0.656351
H68   H     H_    0.906984 0.130772 0.954303 0.324074

loop_
_geom_bond_atom_site_label_1
_geom_bond_atom_site_label_2
_ccdc_geom_bond_type
C99   C103  A    
C124  O8    A    
C133  C137  A    
C55   C59   A    
C142  C146  A    
C113  H13   S    
O64   H64   S    
C136  C140  A    
C128  O12   A    
Cu1   O1    S    
C118  H22   S    
C135  C139  A    
C4    O20   A    
C86   C110  A    
Cu2   Cu6   S    
C20   C40   A    
C95   C99   A    
C3    O3    A    
O54   H54   S    
C29   C33   A    
C100  C104  A    
C5    C149  A    
C118  Br10  S    
C54   C74   A    
C70   C74   A    
C80   C84   A    
Cu9   O47   S    
Cu10  O48   S    
C126  O14   A    
C107  C124  S    
Cu8   O36   S    
C120  H24   S    
C76   C83   A    
C41   C49   S    
C47   O23   A    
C50   O50   S    
C25   C29   A    
C129  O37   A    
C12   O68   S    
C65   C77   A    
C27   C31   A    
C28   C32   A    
C67   C79   A    
C82   Br2   S    
Cu3   O39   S    
C123  O47   A    
C98   C102  A    
C17   C21   A    
Cu7   O19   S    
C19   C23   A    
Cu12  O12   S    
C68   C72   A    
Cu2   O22   S    
C33   C125  S    
C35   C127  S    
Cu6   O26   S    
C130  O42   A    
C142  H18   S    
C2    O2    A    
C116  H16   S    
C74   C81   A    
C17   C49   S    
C26   H30   S    
C15   H27   S    
C77   O61   S    
C57   C61   A    
C59   C63   A    
C11   O67   S    
C60   C64   A    
C18   C38   A    
C2    C22   S    
C66   C70   A    
C19   C51   S    
C51   O51   S    
C89   O33   A    
C141  H17   S    
C69   C70   A    
C45   O25   A    
C99   Br7   S    
C132  O44   A    
C61   C65   A    
C114  H10   S    
C52   H48   S    
C103  C107  A    
Cu12  O5    S    
C102  H6    S    
C4    O4    A    
Cu1   O29   S    
C30   C34   A    
C43   C51   S    
C92   O36   A    
Cu5   O17   S    
C5    C133  A    
C64   C68   A    
C8    C152  A    
O49   H49   S    
C75   C84   A    
C58   C129  S    
C92   C96   S    
C115  H11   S    
Cu4   O32   S    
C85   C93   A    
C114  H14   S    
Cu9   O9    S    
C47   C140  S    
Cu8   O20   S    
C9    C10   A    
C110  C114  S    
C55   C75   A    
C44   C52   S    
C146  C150  A    
C13   C14   A    
C103  H7    S    
C36   C128  S    
C1    O17   A    
C131  O39   A    
C54   O54   S    
C62   C66   A    
Cu3   Cu7   S    
C57   C130  S    
Cu4   Cu8   S    
C3    O19   A    
Cu2   O38   S    
C116  C120  S    
C6    C150  A    
C147  C151  A    
Cu6   O42   S    
C87   C119  S    
C128  O16   A    
O63   H63   S    
C48   O24   A    
C101  H5    S    
C10   C146  A    
C46   C137  S    
C47   O27   A    
C30   H34   S    
C42   C50   S    
C26   C30   A    
C115  C119  S    
C90   O30   A    
C113  C117  S    
C42   H38   S    
C62   O58   S    
C117  Br9   S    
C93   C97   A    
C112  C116  S    
Cu9   O14   S    
C21   C25   A    
C18   C22   A    
C107  C111  A    
C24   C28   A    
C129  O41   A    
O52   H52   S    
C32   C36   A    
C141  C145  A    
Cu11  O45   S    
C29   H33   S    
C71   C72   A    
Cu4   O24   S    
C10   O66   S    
C96   C100  A    
C45   C138  S    
C28   H32   S    
C105  C122  S    
Cu12  O15   S    
C89   C93   S    
C119  H23   S    
C2    O18   A    
C91   C95   S    
C14   H26   S    
C40   C44   S    
C52   O52   S    
C50   H46   S    
O60   H60   S    
C44   H40   S    
C135  H3    S    
Cu5   O33   S    
C121  O45   A    
Cu3   O31   S    
C58   C62   A    
C88   C96   A    
C8    C136  A    
O56   H56   S    
Cu7   O43   S    
Cu2   O2    S    
C31   H35   S    
Cu9   Cu10  S    
O50   H50   S    
C63   O59   S    
C45   O21   A    
C85   C109  A    
C106  C110  A    
C4    C24   S    
C87   C111  A    
C94   C98   A    
C123  O7    A    
C151  C152  A    
C134  H2    S    
C69   C73   A    
C88   C120  S    
Cu8   O28   S    
C72   C76   A    
C104  H8    S    
C144  H20   S    
O53   H53   S    
C127  O15   A    
C61   O57   S    
C125  O13   A    
C60   C131  S    
C48   O28   A    
C90   C94   S    
C66   C78   A    
C91   O35   A    
C59   C132  S    
C43   H43   S    
O66   H66   S    
C148  C152  A    
C97   Br5   S    
C138  C142  A    
C53   C57   A    
C33   C37   A    
C108  C112  A    
C143  H19   S    
C35   C39   A    
O61   H61   S    
C133  H1    S    
O62   H62   S    
C77   C81   A    
C34   C126  S    
Cu1   O21   S    
C86   C118  S    
Cu3   O3    S    
C5    C14   A    
C7    C151  A    
Cu5   O25   S    
C7    C16   A    
C8    C15   A    
C125  O9    A    
C1    O1    A    
C31   C35   A    
C27   H31   S    
C108  C123  S    
C41   H37   S    
Cu11  O16   S    
C46   O22   A    
C73   C82   A    
C104  C108  A    
C25   H29   S    
C18   C50   S    
C137  C141  A    
C49   O49   S    
C140  C144  A    
Cu4   O40   S    
C84   Br4   S    
C121  O5    A    
Cu8   O44   S    
O58   H58   S    
C32   H36   S    
C117  H21   S    
C149  C150  A    
C79   C83   A    
C11   C147  A    
C105  C109  A    
C65   C69   A    
C90   O34   A    
C9    C145  A    
C42   H42   S    
C67   C71   A    
Cu1   Cu5   S    
C88   C112  A    
C56   C60   A    
C9    O65   S    
C124  O48   A    
C6    C134  A    
O65   H65   S    
C22   C26   A    
Cu9   O8    S    
C49   H45   S    
Cu7   O27   S    
C119  Br11  S    
C120  Br12  S    
C145  C149  A    
C68   C80   A    
O68   H68   S    
Cu2   O30   S    
C1    C21   S    
C56   C76   A    
Cu12  O46   S    
C3    C23   S    
Cu11  Cu12  S    
C144  C148  A    
Cu6   O18   S    
O67   H67   S    
C143  C147  A    
C38   C42   S    
C15   C16   A    
C44   H44   S    
C13   H25   S    
C78   C82   A    
C81   Br1   S    
C86   C94   A    
C83   Br3   S    
C122  O46   A    
C20   C24   A    
C23   C27   A    
C100  Br8   S    
C16   H28   S    
O51   H51   S    
C127  O11   A    
C37   C41   S    
C139  C143  A    
C130  O38   A    
C101  C105  A    
C63   C67   A    
C55   O55   S    
C116  H12   S    
Cu10  O10   S    
C36   C40   A    
C39   C43   S    
C136  H4    S    
O59   H59   S    
Cu1   O37   S    
C87   C95   A    
C85   C117  S    
C7    C135  A    
Cu5   O41   S    
Cu3   O23   S    
C56   O56   S    
O55   H55   S    
C17   C37   A    
Cu4   O4    S    
C109  C113  S    
Cu7   O35   S    
C114  C118  S    
C19   C39   A    
C79   O63   S    
C91   O31   A    
C53   O53   S    
C43   H39   S    
C89   O29   A    
C131  O43   A    
C98   Br6   S    
C78   O62   S    
Cu10  O13   S    
C132  O40   A    
C113  H9    S    
C54   C58   A    
Cu10  O7    S    
C122  O6    A    
C48   C139  S    
C34   C38   A    
C53   C73   A    
C134  C138  A    
C11   C12   A    
C126  O10   A    
C80   O64   S    
Cu11  O11   S    
C12   C148  A    
C20   C52   S    
C6    C13   A    
C71   C75   A    
C92   O32   A    
C64   O60   S    
C106  C121  S    
C102  C106  A    
C46   O26   A    
C41   H41   S    
C97   C101  A    
Cu11  O6    S    
C51   H47   S    
C111  C115  S    
Cu6   O34   S    
O57   H57   S    
C115  H15   S    
