data_mof_unit_18856.cif
_audit_creation_date              2012-12-11T15:54:53-0500
_audit_creation_method            fapswitch 2.2
_symmetry_space_group_name_H-M    P1
_symmetry_Int_Tables_number       1
_space_group_crystal_system       triclinic
_cell_length_a                    17.568804
_cell_length_b                    24.419778
_cell_length_c                    15.119099
_cell_angle_alpha                 90.111754
_cell_angle_beta                  126.726545
_cell_angle_gamma                 90.01471
_cell_volume                      5198.89589201

loop_
_atom_site_label
_atom_site_type_symbol
_atom_type_description
_atom_site_fract_x
_atom_site_fract_y
_atom_site_fract_z
_atom_type_partial_charge
C1    C     C_R   0.955405 0.845304 0.090691 0.925321
C2    C     C_R   0.189432 0.872775 0.095748 -0.234587
C3    C     C_R   0.402899 0.689358 0.998301 -0.269372
C4    C     C_R   0.676202 0.999850 0.733086 0.270112
C5    C     C_R   0.176281 0.499686 0.733607 0.251426
C6    C     C_R   0.954546 0.002019 0.281388 -0.371063
C7    C     C_R   0.455186 0.502172 0.282066 -0.371488
C8    C     C_R   0.244192 0.955988 0.312587 0.801283
C9    C     C_R   0.243928 0.045651 0.311087 0.613624
C10   C     C_R   0.744249 0.455912 0.312501 0.812864
C11   C     C_R   0.743962 0.545579 0.311171 0.614467
C12   C     C_R   0.926260 0.045238 0.688092 0.101166
C13   C     C_R   0.689276 0.626852 0.093743 -0.230702
C14   C     C_R   0.930623 0.955312 0.687291 0.034877
C15   C     C_R   0.426498 0.545360 0.688251 0.093537
C16   C     C_R   0.430069 0.455375 0.686995 0.031185
C17   C     C_2   0.837538 0.101416 0.282582 0.798425
C18   C     C_2   0.742719 0.994504 0.218128 0.551620
C19   C     C_2   0.338874 0.601966 0.283601 0.791004
C20   C     C_2   0.243357 0.495255 0.218302 0.526069
C21   C     C_2   0.781982 0.084326 0.415661 0.584802
C22   C     C_2   0.734949 0.952293 0.396454 0.584594
C23   C     C_2   0.282991 0.584957 0.416334 0.577219
C24   C     C_R   0.689353 0.372529 0.095097 -0.172769
C25   C     C_2   0.234762 0.453128 0.396141 0.592024
C26   C     C_2   0.882282 0.302334 0.881347 0.897970
C27   C     C_2   0.900982 0.705429 0.888247 0.595222
C28   C     C_2   0.377128 0.792454 0.866351 0.748283
C29   C     C_2   0.400527 0.205646 0.887849 0.585488
C30   C     C_2   0.636527 0.301195 0.782861 0.742716
C31   C     C_2   0.683978 0.658404 0.785388 0.892221
C32   C     C_2   0.148920 0.816044 0.779935 0.888750
C33   C     C_2   0.183974 0.158392 0.785370 0.893207
C34   C     C_2   0.286763 0.880248 0.886659 0.758161
C35   C     C_R   0.287007 0.001350 0.380425 -0.044615
C36   C     C_2   0.327591 0.113821 0.934544 0.412225
C37   C     C_2   0.749315 0.377320 0.851124 0.699686
C38   C     C_2   0.827529 0.613716 0.934495 0.406622
C39   C     C_2   0.509797 0.795482 0.115706 0.536227
C40   C     C_2   0.510434 0.205189 0.137454 0.733529
C41   C     C_2   0.016314 0.287026 0.136099 0.704555
C42   C     C_2   0.010603 0.705201 0.137627 0.725781
C43   C     C_2   0.846392 0.172028 0.804169 0.515266
C44   C     C_2   0.842931 0.827236 0.801734 0.559987
C45   C     C_2   0.341799 0.671832 0.801758 0.509523
C46   C     C_R   0.787082 0.501237 0.380461 -0.048660
C47   C     C_2   0.343213 0.327101 0.802058 0.562759
C48   C     C_2   0.403060 0.879776 0.142569 0.868843
C49   C     C_2   0.404962 0.130106 0.169440 0.576060
C50   C     C_2   0.902373 0.381916 0.096934 0.734215
C51   C     C_2   0.905082 0.630047 0.169315 0.581153
C52   C     C_2   0.696247 0.181270 0.900982 0.706601
C53   C     C_2   0.702638 0.823385 0.895884 0.656805
C54   C     C_2   0.204072 0.675449 0.914393 0.556031
C55   C     C_2   0.202604 0.323513 0.896238 0.654095
C56   C     C_2   0.355204 0.048186 0.608417 0.728187
C57   C     C_R   0.901603 0.000927 0.618940 0.017823
C58   C     C_2   0.401421 0.109391 0.520175 0.764467
C59   C     C_2   0.855058 0.548087 0.608410 0.730333
C60   C     C_2   0.901528 0.609254 0.520380 0.790714
C61   C     C_2   0.861000 0.091830 0.652174 0.586761
C62   C     C_2   0.880399 0.902659 0.648728 0.762566
C63   C     C_2   0.361301 0.591980 0.652203 0.601759
C64   C     C_2   0.375480 0.404054 0.647447 0.793748
C65   C     C_2   0.247745 0.151299 0.204486 0.654851
C66   C     C_2   0.248231 0.849081 0.206965 0.641577
C67   C     C_2   0.748333 0.650865 0.204741 0.652421
C68   C     C_R   0.401685 0.501138 0.619065 0.011103
C69   C     C_2   0.748390 0.348399 0.205960 0.655408
C70   C     C_2   0.004651 0.100894 0.446367 0.972714
C71   C     C_2   0.831934 0.910379 0.274818 0.776478
C72   C     C_2   0.505946 0.600913 0.447484 0.973456
C73   C     C_2   0.331865 0.410869 0.274753 0.777338
C74   C     C_R   0.192577 0.863701 0.005826 -0.156347
C75   C     C_R   0.190042 0.137471 0.001641 -0.200600
C76   C     C_R   0.691047 0.362535 0.004207 -0.101868
C77   C     C_R   0.955470 0.155546 0.088714 1.033241
C78   C     C_R   0.690048 0.637467 0.001590 -0.203883
C79   C     C_3   0.911301 0.066804 0.385250 -0.555235
C80   C     C_3   0.832576 0.967741 0.318524 -0.451462
C81   C     C_3   0.412309 0.567084 0.386070 -0.537137
C82   C     C_3   0.332850 0.468230 0.318700 -0.440833
C83   C     C_3   0.882299 0.063704 0.466679 0.281297
C84   C     C_3   0.833264 0.959406 0.424528 0.322341
C85   C     C_3   0.383174 0.564051 0.467374 0.276900
C86   C     C_3   0.333237 0.459923 0.424510 0.322964
C87   C     C_3   0.013882 0.978270 0.470693 1.330154
C88   C     C_R   0.455310 0.345339 0.090756 0.926298
C89   C     C_3   0.514163 0.478231 0.471158 1.334281
C90   C     C_3   0.926107 0.004098 0.359122 -0.203105
C91   C     C_3   0.426693 0.504327 0.359695 -0.201127
C92   C     C_3   0.900883 0.003710 0.517368 -0.097221
C93   C     C_3   0.401196 0.503996 0.517676 -0.084720
C94   C     C_R   0.864163 0.154741 0.907464 -0.254897
C95   C     C_R   0.867841 0.844515 0.909227 -0.237019
C96   C     C_R   0.364380 0.654795 0.907833 -0.241649
C97   C     C_R   0.367755 0.344514 0.909283 -0.237505
C98   C     C_3   0.005629 0.989468 0.563960 -0.436204
C99   C     C_R   0.455677 0.655456 0.089224 1.011246
C100  C     C_3   0.505873 0.489473 0.564376 -0.462385
C101  C     C_3   0.808594 0.276593 0.891233 -0.447593
C102  C     C_3   0.824552 0.719013 0.902573 -0.446407
C103  C     C_3   0.308590 0.775623 0.891856 -0.455683
C104  C     C_3   0.324293 0.219128 0.902515 -0.447221
C105  C     C_3   0.248156 0.824294 0.889369 -0.325841
C106  C     C_3   0.271214 0.167068 0.905005 -0.226011
C107  C     C_3   0.736466 0.319636 0.880966 -0.337445
C108  C     C_3   0.771289 0.667014 0.905002 -0.221655
C109  C     C_3   0.420041 0.777470 0.101425 -0.216171
C110  C     C_R   0.105179 0.881970 0.913964 0.825037
C111  C     C_3   0.417976 0.227385 0.110854 -0.197837
C112  C     C_3   0.917309 0.275699 0.102833 -0.326439
C113  C     C_3   0.918067 0.727371 0.110854 -0.189230
C114  C     C_3   0.768885 0.216315 0.000508 0.451666
C115  C     C_3   0.764068 0.781803 0.987284 0.330990
C116  C     C_3   0.270206 0.717252 0.003378 0.425239
C117  C     C_3   0.263977 0.281844 0.987469 0.327083
C118  C     C_3   0.851755 0.239268 0.996794 -0.135320
C119  C     C_3   0.855497 0.759929 0.999252 -0.068784
C120  C     C_3   0.352749 0.739667 0.997993 -0.040395
C121  C     C_R   0.098999 0.122211 0.909595 0.874694
C122  C     C_3   0.355361 0.259984 0.999320 -0.068304
C123  C     C_3   0.252160 0.821212 0.998866 -0.163374
C124  C     C_3   0.253588 0.178070 0.997172 -0.020716
C125  C     C_3   0.750822 0.320496 0.996794 -0.142702
C126  C     C_3   0.753674 0.678043 0.997168 -0.016701
C127  C     C_3   0.359413 0.823042 0.105268 -0.398865
C128  C     C_3   0.354830 0.183773 0.113911 -0.483063
C129  C     C_3   0.860505 0.327226 0.094762 -0.374556
C130  C     C_3   0.854933 0.683732 0.113897 -0.489010
C131  C     C_3   0.213308 0.764899 0.004444 0.475618
C132  C     C_R   0.603320 0.380724 0.912611 0.760533
C133  C     C_3   0.202489 0.233738 0.976466 0.561227
C134  C     C_3   0.720843 0.264007 0.015987 0.381563
C135  C     C_3   0.702631 0.733727 0.976494 0.555888
C136  C     C_3   0.417468 0.946417 0.548636 1.278045
C137  C     C_3   0.450966 0.005356 0.438339 1.096621
C138  C     C_3   0.917467 0.446291 0.548879 1.281123
C139  C     C_3   0.951173 0.505192 0.438739 1.102893
C140  C     C_R   0.732360 0.954130 0.756679 -0.227452
C141  C     C_R   0.732865 0.045671 0.758845 0.079672
C142  C     C_R   0.232444 0.454037 0.756827 -0.218001
C143  C     C_R   0.598927 0.622301 0.909557 0.869202
C144  C     C_R   0.232917 0.545527 0.759430 0.030588
C145  C     C_3   0.524831 0.945807 0.644012 0.339189
C146  C     C_3   0.556077 0.009032 0.535433 0.495932
C147  C     C_3   0.024830 0.445663 0.644349 0.337578
C148  C     C_3   0.056246 0.508904 0.535937 0.498823
C149  C     C_3   0.415670 0.051610 0.566775 -0.331130
C150  C     C_3   0.915669 0.551477 0.566956 -0.323810
C151  C     C_3   0.389300 0.002058 0.481847 -0.539743
C152  C     C_3   0.889361 0.501922 0.482052 -0.551735
C153  C     C_3   0.571715 0.000437 0.647366 -0.372440
C154  C     C_R   0.189206 0.126933 0.093777 -0.238794
C155  C     C_3   0.071769 0.500288 0.647802 -0.355007
C156  C     C_3   0.523377 0.046821 0.667185 -0.437584
C157  C     C_3   0.023337 0.546663 0.667514 -0.466609
C158  C     C_R   0.983518 0.046601 0.249919 0.777973
C159  C     C_R   0.984477 0.955351 0.253923 0.789592
C160  C     C_R   0.484125 0.546707 0.250501 0.768158
C161  C     C_R   0.484767 0.455427 0.254309 0.788222
C162  C     C_R   0.905591 0.810466 0.000406 -0.211996
C163  C     C_R   0.902376 0.189261 0.997509 -0.205018
C164  C     C_R   0.405452 0.310508 0.000492 -0.204810
F1    F     F_    0.027595 0.829431 0.194006 -0.610890
F2    F     F_    0.018988 0.922175 0.463173 -0.567910
F3    F     F_    0.600696 0.497394 0.500315 -0.667201
F4    F     F_    0.518744 0.422115 0.463329 -0.567098
F5    F     F_    0.807891 0.183117 0.092832 -0.649089
F6    F     F_    0.795659 0.809053 0.084430 -0.696825
F7    F     F_    0.312354 0.689911 0.102966 -0.703806
F8    F     F_    0.295603 0.308992 0.084733 -0.697879
F9    F     F_    0.623185 0.257172 0.954663 -0.729850
F10   F     F_    0.612514 0.733908 0.876819 -0.590728
F11   F     F_    0.115975 0.759555 0.925508 -0.701088
F12   F     F_    0.026526 0.173652 0.191132 -0.616480
F13   F     F_    0.112467 0.233903 0.876672 -0.582457
F14   F     F_    0.365116 0.938875 0.588926 -0.545485
F15   F     F_    0.425782 0.049436 0.368344 -0.632473
F16   F     F_    0.865035 0.438784 0.589074 -0.546104
F17   F     F_    0.926036 0.549231 0.368672 -0.628327
F18   F     F_    0.400595 0.901211 0.483704 -0.585554
F19   F     F_    0.437490 0.959212 0.376805 -0.665794
F20   F     F_    0.900636 0.401066 0.484024 -0.586154
F21   F     F_    0.937836 0.459014 0.377361 -0.645876
F22   F     F_    0.540544 0.936344 0.744225 -0.602687
F23   F     F_    0.527480 0.329464 0.194083 -0.609012
F24   F     F_    0.592093 0.059210 0.533489 -0.542455
F25   F     F_    0.040449 0.436188 0.744506 -0.609612
F26   F     F_    0.092259 0.559098 0.534063 -0.537744
F27   F     F_    0.975585 0.100425 0.259481 -0.631722
F28   F     F_    0.984980 0.902610 0.280603 -0.583588
F29   F     F_    0.477171 0.600575 0.260895 -0.631798
F30   F     F_    0.485174 0.402695 0.280997 -0.582032
F31   F     F_    0.228630 0.909739 0.349154 -0.559128
F32   F     F_    0.225858 0.092151 0.343974 -0.650609
F33   F     F_    0.728856 0.409514 0.348856 -0.559882
F34   F     F_    0.528432 0.673236 0.191045 -0.626691
F35   F     F_    0.725951 0.592058 0.344179 -0.651308
F36   F     F_    0.090699 0.899687 0.821091 -0.726162
F37   F     F_    0.056505 0.132195 0.802547 -0.682152
F38   F     F_    0.581647 0.391999 0.813078 -0.749985
F39   F     F_    0.556312 0.632509 0.802559 -0.681581
F40   F     F_    0.941195 0.100225 0.552703 -0.671468
F41   F     F_    0.874615 0.909029 0.470007 -0.680852
F42   F     F_    0.442373 0.600386 0.553650 -0.673177
F43   F     F_    0.374110 0.409455 0.469854 -0.670716
F44   F     F_    0.100186 0.997726 0.499605 -0.665443
H1    H     H_    0.054599 0.023046 0.618036 0.188520
H2    H     H_    0.189661 0.239551 0.039758 0.103119
H3    H     H_    0.745715 0.262591 0.102942 0.130345
H4    H     H_    0.689958 0.739568 0.039915 0.103685
H5    H     H_    0.448474 0.752303 0.176264 0.241482
H6    H     H_    0.440133 0.255959 0.179702 0.279999
H7    H     H_    0.931858 0.251348 0.173665 0.262168
H8    H     H_    0.940117 0.755972 0.179628 0.278905
H9    H     H_    0.359674 0.809010 0.174563 0.188241
H10   H     H_    0.342940 0.202927 0.170914 0.184786
H11   H     H_    0.869807 0.325841 0.172905 0.222178
H12   H     H_    0.032602 0.952784 0.618254 0.287613
H13   H     H_    0.843064 0.702845 0.170955 0.184217
H14   H     H_    0.557070 0.911189 0.629387 0.103181
H15   H     H_    0.595530 0.976956 0.525459 0.101338
H16   H     H_    0.057110 0.411046 0.629782 0.103121
H17   H     H_    0.095782 0.476854 0.526038 0.098090
H18   H     H_    0.711801 0.911815 0.746688 0.136597
H19   H     H_    0.711843 0.088018 0.747534 0.114688
H20   H     H_    0.211956 0.411689 0.746549 0.134452
H21   H     H_    0.211778 0.587789 0.748715 0.123970
H22   H     H_    0.533914 0.038640 0.746173 0.235495
H23   H     H_    0.555065 0.522942 0.618610 0.184110
H24   H     H_    0.561029 0.086248 0.682921 0.225099
H25   H     H_    0.033745 0.538466 0.746423 0.217410
H26   H     H_    0.060998 0.586088 0.683360 0.237336
H27   H     H_    0.818168 0.141503 0.294369 0.100554
H28   H     H_    0.736729 0.998031 0.142563 0.150400
H29   H     H_    0.319670 0.642023 0.295742 0.106058
H30   H     H_    0.237794 0.498965 0.143033 0.141517
H31   H     H_    0.721427 0.057826 0.374839 0.109567
H32   H     H_    0.685051 0.924700 0.329791 0.119193
H33   H     H_    0.222115 0.558706 0.374474 0.111684
H34   H     H_    0.532535 0.452738 0.618539 0.277952
H35   H     H_    0.184770 0.425556 0.329489 0.113686
H36   H     H_    0.939431 0.327237 0.946237 -0.135995
H37   H     H_    0.971935 0.722348 0.943198 0.102040
H38   H     H_    0.450904 0.780181 0.918656 0.068936
H39   H     H_    0.471558 0.222373 0.943008 0.120665
H40   H     H_    0.581680 0.291178 0.791852 0.132229
H41   H     H_    0.668100 0.618287 0.746598 0.021903
H42   H     H_    0.089242 0.801913 0.776844 0.139596
H43   H     H_    0.168290 0.118278 0.746606 0.025869
H44   H     H_    0.361868 0.888990 0.944106 0.009867
H45   H     H_    0.767308 0.249299 0.818886 0.165723
H46   H     H_    0.401101 0.113389 0.965196 0.078729
H47   H     H_    0.759186 0.412531 0.900778 0.011861
H48   H     H_    0.901169 0.613246 0.965639 0.075200
H49   H     H_    0.566620 0.766138 0.145744 0.129239
H50   H     H_    0.511038 0.169733 0.095112 -0.072537
H51   H     H_    0.039536 0.269650 0.089791 0.030294
H52   H     H_    0.011295 0.669730 0.095370 -0.083584
H53   H     H_    0.777940 0.164794 0.726043 0.082302
H54   H     H_    0.773778 0.836461 0.726312 0.040158
H55   H     H_    0.271438 0.665256 0.725909 0.104377
H56   H     H_    0.773763 0.742821 0.827417 0.218185
H57   H     H_    0.273538 0.335417 0.726622 0.044108
H58   H     H_    0.365010 0.915663 0.093520 -0.031455
H59   H     H_    0.372226 0.091053 0.131549 0.092179
H60   H     H_    0.923130 0.389767 0.043686 -0.053846
H61   H     H_    0.872316 0.591003 0.131388 0.100581
H62   H     H_    0.657474 0.196884 0.817871 -0.115806
H63   H     H_    0.698203 0.865065 0.917599 0.098567
H64   H     H_    0.208940 0.632694 0.936828 0.060231
H65   H     H_    0.198318 0.365182 0.918127 0.093640
H66   H     H_    0.387190 0.040965 0.694869 0.062924
H67   H     H_    0.259870 0.747668 0.822593 0.179669
H68   H     H_    0.349958 0.136822 0.514489 0.091700
H69   H     H_    0.886932 0.540880 0.694837 0.055040
H70   H     H_    0.850100 0.636722 0.514680 0.086979
H71   H     H_    0.887436 0.133185 0.666086 0.197123
H72   H     H_    0.804767 0.900964 0.609292 -0.037648
H73   H     H_    0.387520 0.633256 0.663901 0.203219
H74   H     H_    0.301145 0.404241 0.614476 -0.058579
H75   H     H_    0.320427 0.138425 0.264798 0.094496
H76   H     H_    0.216503 0.820426 0.231057 0.134072
H77   H     H_    0.820866 0.637668 0.264711 0.094946
H78   H     H_    0.273366 0.242963 0.827459 0.218355
H79   H     H_    0.717540 0.318201 0.228566 0.122038
H80   H     H_    0.071792 0.084544 0.514129 0.034503
H81   H     H_    0.878765 0.878179 0.329794 0.220057
H82   H     H_    0.573002 0.584314 0.514849 0.032542
H83   H     H_    0.378124 0.378480 0.329648 0.223469
H84   H     H_    0.221991 0.762459 0.083470 0.104103
N1    N     N_R   0.950530 0.896220 0.057200 -0.138793
N2    N     N_R   0.818150 0.028600 0.792440 -0.084929
N3    N     N_R   0.318150 0.471400 0.792440 -0.085199
N4    N     N_R   0.318150 0.528600 0.792440 -0.075679
N5    N     N_R   0.025710 0.028600 0.207560 -0.157018
N6    N     N_R   0.025710 0.971400 0.207560 -0.166509
N7    N     N_R   0.525710 0.528600 0.207560 -0.156339
N8    N     N_R   0.525710 0.471400 0.207560 -0.168016
N9    N     N_R   0.181850 0.971400 0.207560 -0.184905
N10   N     N_R   0.181850 0.028600 0.207560 -0.166746
N11   N     N_R   0.681850 0.471400 0.207560 -0.183295
N12   N     N_R   0.950530 0.103780 0.057200 -0.120441
N13   N     N_R   0.681850 0.528600 0.207560 -0.163793
N14   N     N_R   0.974290 0.028600 0.792440 -0.109419
N15   N     N_R   0.974290 0.971400 0.792440 -0.079049
N16   N     N_R   0.474290 0.528600 0.792440 -0.111997
N17   N     N_R   0.474290 0.471400 0.792440 -0.087637
N18   N     N_R   0.049470 0.896220 0.942800 -0.111390
N19   N     N_R   0.049470 0.103780 0.942800 -0.134969
N20   N     N_R   0.549470 0.396220 0.942800 -0.104858
N21   N     N_R   0.549470 0.603780 0.942800 -0.129912
N22   N     N_R   0.106670 0.103780 0.057200 -0.085547
N23   N     N_R   0.450530 0.396220 0.057200 -0.141033
N24   N     N_R   0.106670 0.896220 0.057200 -0.105871
N25   N     N_R   0.606670 0.603780 0.057200 -0.080885
N26   N     N_R   0.606670 0.396220 0.057200 -0.112326
N27   N     N_R   0.450530 0.603780 0.057200 -0.128310
N28   N     N_R   0.893330 0.103780 0.942800 -0.120498
N29   N     N_R   0.893330 0.896220 0.942800 -0.120559
N30   N     N_R   0.393330 0.603780 0.942800 -0.133679
N31   N     N_R   0.393330 0.396220 0.942800 -0.121880
N32   N     N_R   0.818150 0.971400 0.792440 -0.087296
Ni1   Ni    Ni4+2 0.065600 0.934400 0.131190 0.331121
Ni2   Ni    Ni4+2 0.065600 0.065600 0.131190 0.346396
Ni3   Ni    Ni4+2 0.565600 0.434400 0.131190 0.332272
Ni4   Ni    Ni4+2 0.565600 0.565600 0.131190 0.342294
Ni5   Ni    Ni4+2 0.934400 0.065600 0.868810 0.233053
Ni6   Ni    Ni4+2 0.934400 0.934400 0.868810 0.218546
Ni7   Ni    Ni4+2 0.434400 0.565600 0.868810 0.229882
Ni8   Ni    Ni4+2 0.434400 0.434400 0.868810 0.217391
O1    O     O_2   0.803909 0.087857 0.188143 -0.524769
O2    O     O_2   0.881874 0.677608 0.810114 -0.553987
O3    O     O_2   0.348071 0.816577 0.780857 -0.425051
O4    O     O_2   0.381210 0.178054 0.809370 -0.555712
O5    O     O_2   0.615574 0.298105 0.689949 -0.440612
O6    O     O_2   0.629526 0.695651 0.729378 -0.409157
O7    O     O_2   0.135857 0.823223 0.691769 -0.432887
O8    O     O_2   0.129380 0.195580 0.729306 -0.408717
O9    O     O_2   0.236128 0.915339 0.818612 -0.457542
O10   O     O_2   0.290768 0.069758 0.926441 -0.563795
O11   O     O_2   0.743135 0.385599 0.767319 -0.434281
O12   O     O_2   0.675170 0.009447 0.215368 -0.610807
O13   O     O_2   0.790518 0.569671 0.926037 -0.577802
O14   O     O_2   0.519618 0.841355 0.091906 -0.578134
O15   O     O_2   0.586523 0.225524 0.211049 -0.457488
O16   O     O_2   0.073391 0.313127 0.219758 -0.520152
O17   O     O_2   0.086649 0.725555 0.211283 -0.463742
O18   O     O_2   0.909469 0.194260 0.806011 -0.474486
O19   O     O_2   0.901402 0.803969 0.796338 -0.511207
O20   O     O_2   0.402859 0.693108 0.798471 -0.516111
O21   O     O_2   0.402425 0.304631 0.796938 -0.522785
O22   O     O_2   0.480036 0.886153 0.231913 -0.484608
O23   O     O_2   0.305399 0.588708 0.189043 -0.576045
O24   O     O_2   0.480498 0.130185 0.261647 -0.422902
O25   O     O_2   0.914663 0.417920 0.160482 -0.465860
O26   O     O_2   0.980640 0.630094 0.261502 -0.422144
O27   O     O_2   0.680543 0.134242 0.913341 -0.530424
O28   O     O_2   0.658678 0.811404 0.798400 -0.514655
O29   O     O_2   0.146607 0.688379 0.817768 -0.599360
O30   O     O_2   0.158550 0.311619 0.798701 -0.512393
O31   O     O_2   0.269016 0.053300 0.545109 -0.469759
O32   O     O_2   0.450109 0.127501 0.493986 -0.456033
O33   O     O_2   0.768879 0.553215 0.544981 -0.472454
O34   O     O_2   0.175609 0.510163 0.215161 -0.617580
O35   O     O_2   0.950276 0.627323 0.494244 -0.450477
O36   O     O_2   0.775903 0.084223 0.602159 -0.523934
O37   O     O_2   0.922528 0.860864 0.657990 -0.452829
O38   O     O_2   0.276357 0.584444 0.603568 -0.522234
O39   O     O_2   0.412233 0.361363 0.648965 -0.431357
O40   O     O_2   0.213926 0.185898 0.230026 -0.468862
O41   O     O_2   0.330014 0.863977 0.274969 -0.456065
O42   O     O_2   0.715160 0.685561 0.230917 -0.487781
O43   O     O_2   0.829160 0.364464 0.275223 -0.434637
O44   O     O_2   0.004189 0.149812 0.428457 -0.468428
O45   O     O_2   0.767845 0.133030 0.419176 -0.445201
O46   O     O_2   0.777571 0.898170 0.176992 -0.550785
O47   O     O_2   0.505846 0.649886 0.430253 -0.468504
O48   O     O_2   0.277930 0.398906 0.176760 -0.565348
O49   O     O_2   0.711395 0.974386 0.449171 -0.586440
O50   O     O_2   0.269325 0.633637 0.420786 -0.446560
O51   O     O_2   0.211130 0.475490 0.448553 -0.587302
O52   O     O_2   0.873051 0.299520 0.794756 -0.399407

loop_
_geom_bond_atom_site_label_1
_geom_bond_atom_site_label_2
_ccdc_geom_bond_type
C101  C107  S    
C38   H48   S    
C141  H19   S    
N20   Ni8   S    
C98   H12   S    
N15   Ni6   S    
C117  C133  S    
C97   N31   A    
C17   O1    D    
N11   N13   A    
N18   N24   A    
N9    N10   A    
C30   H40   S    
C124  C133  S    
C23   O50   D    
C20   O34   D    
C18   H28   S    
C139  C152  S    
C105  C123  S    
C112  H7    S    
C89   F3    S    
C79   C90   S    
C109  C127  S    
C52   H62   S    
C21   C83   S    
C53   H63   S    
C41   C112  S    
C54   C116  S    
C24   C69   S    
C12   N14   A    
C159  N6    A    
C112  C129  S    
C138  F20   S    
C47   O21   D    
C73   O48   D    
C49   H59   S    
C74   C123  S    
C25   O51   D    
C76   C125  S    
C140  N32   A    
C58   O32   D    
C40   O15   D    
C33   O8    D    
C36   C106  S    
C144  H21   S    
C95   N29   A    
C40   H50   S    
C24   C76   A    
C5    C155  S    
C82   C91   S    
C116  F7    S    
C8    C35   A    
C101  H45   S    
C158  N5    A    
C150  C152  S    
C137  F15   S    
C97   C164  A    
N14   N15   A    
N3    Ni8   S    
C153  C156  S    
C99   N27   A    
C93   C100  S    
C31   O6    D    
N25   Ni4   S    
C1    C162  A    
C125  C129  S    
C56   H66   S    
C94   N28   A    
N17   Ni8   S    
C128  H10   S    
C100  H34   S    
C55   C117  S    
C14   C57   A    
C16   N17   A    
C70   C79   S    
C159  F28   S    
C130  H13   S    
C33   C106  S    
C83   F40   S    
C66   O41   D    
C86   F43   S    
C74   C110  A    
C140  H18   S    
C121  F37   S    
C6    C90   S    
C48   C127  S    
C117  F8    S    
C141  N2    A    
C144  N4    A    
C20   H30   S    
C88   N23   A    
C55   O30   D    
C156  H22   S    
C39   C109  S    
C62   O37   D    
C106  C124  S    
C11   C46   A    
C108  C126  S    
C94   C163  A    
C147  H16   S    
C53   C115  S    
C109  C120  S    
C104  H78   S    
N2    Ni5   S    
C143  F39   S    
N7    Ni4   S    
C150  C157  S    
N1    Ni1   S    
C30   C107  S    
C14   N15   A    
C26   O52   D    
C15   N16   A    
C7    C161  A    
C101  C118  S    
C86   C93   S    
C27   H37   S    
C72   O47   D    
C104  C122  S    
C14   C62   S    
C43   C94   S    
C122  C164  S    
C31   H41   S    
N8    Ni3   S    
C72   H82   S    
C42   H52   S    
N18   Ni6   S    
C85   C93   S    
C54   H64   S    
C148  C155  S    
C23   H33   S    
C47   H57   S    
C30   O5    D    
C44   O19   D    
C111  C122  S    
C115  F6    S    
C6    C158  A    
C148  F26   S    
C98   H1    S    
C58   H68   S    
C139  C148  S    
C113  C130  S    
C110  F36   S    
C75   C124  S    
C107  C125  S    
N14   Ni5   S    
C60   C150  S    
C88   C164  A    
C45   O20   D    
N13   Ni4   S    
N6    Ni1   S    
C36   H46   S    
C116  C120  S    
C29   C104  S    
C81   C91   S    
C117  C122  S    
C50   C129  S    
C64   H74   S    
C156  H24   S    
C123  C127  S    
C96   N30   A    
C114  C134  S    
C103  C105  S    
C28   H38   S    
C38   O13   D    
N11   Ni3   S    
C12   C57   A    
C21   H31   S    
C77   F12   S    
C115  C119  S    
C32   C105  S    
N20   N26   A    
C10   F33   S    
C147  C155  S    
C49   C128  S    
C13   C78   A    
C134  H3    S    
C63   O38   D    
C100  H23   S    
N12   Ni2   S    
C2    C66   S    
C139  F17   S    
N21   N25   A    
C137  F19   S    
C52   C114  S    
C27   C102  S    
C132  F38   S    
C47   C97   S    
C1    N1    A    
C103  H67   S    
C9    N10   A    
N3    N4    A    
C76   C132  A    
C5    C142  A    
C115  C135  S    
C147  F25   S    
C99   F34   S    
C4    C153  S    
C2    N24   A    
C87   F44   S    
N10   Ni2   S    
C102  C119  S    
C3    C99   A    
C136  F18   S    
C111  C128  S    
C19   O23   D    
N31   Ni8   S    
C84   C92   S    
C113  H8    S    
C36   O10   D    
C19   C81   S    
C161  N8    A    
C69   O43   D    
C81   C85   S    
N23   Ni3   S    
C160  F29   S    
C125  C134  S    
C114  F5    S    
C56   O31   D    
C11   N13   A    
C155  C157  S    
C103  C120  S    
C80   C84   S    
N16   Ni7   S    
C104  C106  S    
C146  F24   S    
C57   C92   S    
C160  N7    A    
C37   C107  S    
C20   C82   S    
C19   H29   S    
C44   H54   S    
C65   O40   D    
C157  H26   S    
C45   H55   S    
C126  C130  S    
C31   C108  S    
C41   H51   S    
C113  C119  S    
C37   O11   D    
C88   F23   S    
N1    N29   A    
N28   Ni5   S    
C48   O22   D    
C72   C81   S    
C124  C128  S    
C87   C98   S    
C60   H70   S    
C49   O24   D    
C61   H71   S    
C35   C151  S    
C119  C162  S    
C59   O33   D    
C77   N12   A    
C22   H32   S    
C25   H35   S    
C21   O45   D    
C67   O42   D    
C50   H60   S    
C118  C163  S    
C89   C100  S    
N9    Ni1   S    
C135  F10   S    
C41   O16   D    
C13   N25   A    
C50   O25   D    
C4    C141  A    
C43   H53   S    
N22   Ni2   S    
C5    C144  A    
C145  H14   S    
C138  C152  S    
C142  N3    A    
C82   C86   S    
N29   Ni6   S    
N7    N8    A    
C52   O27   D    
C135  H4    S    
C42   O17   D    
C137  C146  S    
C71   O46   D    
C48   H58   S    
C121  N19   A    
C7    C91   S    
C73   H83   S    
C51   O26   D    
C142  H20   S    
C69   H79   S    
C126  C135  S    
C70   H80   S    
C59   H69   S    
C53   O28   D    
C78   C126  S    
C73   C82   S    
C10   N11   A    
C136  C151  S    
C127  H9    S    
C59   C150  S    
C39   O14   D    
C123  C131  S    
C34   C105  S    
C148  H17   S    
C70   O44   D    
C7    C160  A    
N21   Ni7   S    
C149  C151  S    
C129  H11   S    
C64   O39   D    
C158  F27   S    
C79   C83   S    
C12   C61   S    
C154  N22   A    
C28   C103  S    
C133  F13   S    
C146  C153  S    
C131  F11   S    
N26   Ni3   S    
C38   C108  S    
C11   F35   S    
N19   Ni5   S    
C87   C90   S    
C9    C35   A    
C18   O12   D    
C34   O9    D    
C77   C163  A    
C46   C152  S    
C134  F9    S    
C136  F14   S    
N5    N6    A    
C111  H6    S    
C138  F16   S    
C6    C159  A    
C9    F32   S    
C92   C98   S    
C89   F4    S    
C83   C92   S    
C110  N18   A    
C131  H84   S    
C8    F31   S    
C149  C156  S    
C109  H5    S    
C26   C101  S    
C26   H36   S    
N12   N28   A    
C87   F2    S    
C15   C68   A    
N32   Ni6   S    
C32   H42   S    
C17   C79   S    
C33   H43   S    
C32   O7    D    
C24   N26   A    
C39   H49   S    
C54   O29   D    
N23   N31   A    
C84   F41   S    
C37   H47   S    
C10   C46   A    
C102  C108  S    
C3    C96   A    
C16   C68   A    
C136  C145  S    
C2    C74   A    
C58   C149  S    
C145  C153  S    
N27   N30   A    
C60   O35   D    
C133  H2    S    
C29   H39   S    
C29   O4    D    
C62   H72   S    
C71   C80   S    
C51   C130  S    
C85   F42   S    
C40   C111  S    
C17   H27   S    
C55   H65   S    
C95   C162  A    
C61   O36   D    
C22   C84   S    
C65   C154  S    
C4    C140  A    
C42   C113  S    
C1    F1    S    
C138  C147  S    
C27   O2    D    
C65   H75   S    
C132  N20   A    
C66   H76   S    
C143  N21   A    
C114  C118  S    
C43   O18   D    
N2    N32   A    
C51   H61   S    
C102  H56   S    
C89   C91   S    
N16   N17   A    
C63   H73   S    
C13   C67   S    
C28   O3    D    
C75   C121  A    
C71   H81   S    
C8    N9    A    
C68   C93   S    
N4    Ni7   S    
C145  F22   S    
C67   H77   S    
C44   C95   S    
C78   C143  A    
C112  C118  S    
C146  H15   S    
C75   C154  A    
C157  H25   S    
C116  C131  S    
N24   Ni1   S    
N30   Ni7   S    
C25   C86   S    
C161  F30   S    
C80   C90   S    
C3    C120  S    
N27   Ni4   S    
C18   C80   S    
C23   C85   S    
N19   N22   A    
C15   C63   S    
C137  C151  S    
C22   O49   D    
C34   H44   S    
C16   C64   S    
C56   C149  S    
C139  F21   S    
C45   C96   S    
N5    Ni2   S    
