data_mof_unit_66779.cif
_audit_creation_date              2012-12-11T14:22:47-0500
_audit_creation_method            fapswitch 2.2
_symmetry_space_group_name_H-M    P1
_symmetry_Int_Tables_number       1
_space_group_crystal_system       triclinic
_cell_length_a                    8.413006
_cell_length_b                    14.637134
_cell_length_c                    15.021248
_cell_angle_alpha                 93.540442
_cell_angle_beta                  98.477565
_cell_angle_gamma                 91.145964
_cell_volume                      1825.25450682

loop_
_atom_site_label
_atom_site_type_symbol
_atom_type_description
_atom_site_fract_x
_atom_site_fract_y
_atom_site_fract_z
_atom_type_partial_charge
Ba1   Ba    Ba6+2 0.142880 0.544780 0.454020 1.720285
Ba2   Ba    Ba6+2 0.667290 0.455210 0.545900 1.709572
C1    C     C_3   0.251382 0.772906 0.103458 -0.240152
C2    C     C_3   0.304776 0.744878 0.198958 0.350891
C3    C     C_3   0.461729 0.745588 0.693827 0.143480
C4    C     C_3   0.527963 0.839534 0.733837 0.100169
C5    C     C_3   0.007739 0.210829 0.798077 0.182365
C6    C     C_3   0.975465 0.115003 0.831559 -0.309312
C7    C     C_3   0.469823 0.230717 0.814244 0.378101
C8    C     C_3   0.450609 0.171292 0.896962 0.073223
C9    C     C_R   0.007750 0.948651 0.557414 0.298436
C10   C     C_R   0.827535 0.805859 0.501941 0.070092
C11   C     C_R   0.686667 0.772137 0.447229 -0.187953
C12   C     C_3   0.802406 0.795212 0.223200 0.695285
C13   C     C_R   0.569071 0.830535 0.412300 0.031719
C14   C     C_R   0.605523 0.923545 0.414792 -0.092926
C15   C     C_R   0.757004 0.961374 0.456664 0.001979
C16   C     C_R   0.866121 0.904212 0.507813 0.011874
C17   C     C_R   0.940698 0.099162 0.496235 -0.107974
C18   C     C_R   0.049420 0.041929 0.546469 -0.013584
C19   C     C_R   0.982996 0.196949 0.500287 0.041778
C20   C     C_R   0.130961 0.230047 0.548625 -0.301192
C21   C     C_R   0.244580 0.170793 0.586277 -0.002071
C22   C     C_R   0.203470 0.078384 0.584215 -0.003501
C23   C     C_3   0.694953 0.851110 0.156911 0.200982
C24   C     C_R   0.798120 0.055065 0.446490 0.004502
C25   C     C_R   0.240767 0.457120 0.769203 -0.337276
C26   C     C_R   0.151920 0.423249 0.831395 0.001086
C27   C     C_R   0.211862 0.431360 0.924936 0.212188
C28   C     C_R   0.359995 0.482777 0.956689 0.029865
C29   C     C_R   0.452728 0.504184 0.888977 -0.099351
C30   C     C_R   0.390167 0.498132 0.797749 -0.015671
C31   C     C_R   0.571441 0.565724 0.083734 0.177662
C32   C     C_R   0.647943 0.567970 0.174574 0.012649
C33   C     C_R   0.417126 0.488807 0.215819 0.082072
C34   C     C_3   0.798590 0.324379 0.265003 0.184958
C35   C     C_R   0.342514 0.487381 0.126542 -0.060555
C36   C     C_R   0.425244 0.512068 0.055899 0.056632
C37   C     C_R   0.570240 0.528721 0.239442 -0.289882
C38   C     C_3   0.908920 0.315592 0.192639 -0.195824
C39   C     C_3   0.051948 0.653102 0.717513 0.252221
C40   C     C_3   0.113693 0.680297 0.816826 -0.310643
C41   C     C_3   0.281006 0.263812 0.357735 0.296202
C42   C     C_3   0.213393 0.165356 0.334157 0.178778
H1    H     H_    0.225469 0.686517 0.210442 0.082353
H2    H     H_    0.873476 0.255387 0.144318 0.133650
H3    H     H_    0.905790 0.378355 0.154628 0.150571
H4    H     H_    0.032151 0.303722 0.223399 0.161467
H5    H     H_    0.154602 0.631743 0.683573 0.008751
H6    H     H_    0.964879 0.594249 0.712090 0.054631
H7    H     H_    0.201182 0.630486 0.844867 0.075481
H8    H     H_    0.177459 0.748110 0.822967 0.134484
H9    H     H_    0.193027 0.302736 0.392023 -0.073113
H10   H     H_    0.395127 0.262411 0.404980 0.075880
H11   H     H_    0.121257 0.787168 0.093647 0.205890
H12   H     H_    0.080590 0.165003 0.323218 0.038043
H13   H     H_    0.251831 0.122036 0.391104 0.031534
H14   H     H_    0.431088 0.722413 0.204675 -0.118779
H15   H     H_    0.273187 0.716663 0.054014 0.088660
H16   H     H_    0.331302 0.749672 0.671896 0.121627
H17   H     H_    0.650902 0.832445 0.771049 0.149760
H18   H     H_    0.450481 0.867379 0.782169 0.183082
H19   H     H_    0.318593 0.835623 0.090782 0.146364
H20   H     H_    0.643187 0.908264 0.194383 0.035181
H21   H     H_    0.014668 0.205132 0.724464 0.026693
H22   H     H_    0.123692 0.237036 0.835041 0.054985
H23   H     H_    0.349831 0.256608 0.789335 -0.238206
H24   H     H_    0.322141 0.160678 0.895829 0.100851
H25   H     H_    0.661506 0.699093 0.438066 0.071671
H26   H     H_    0.511820 0.965988 0.384262 0.138147
H27   H     H_    0.295003 0.035416 0.613640 0.209458
H28   H     H_    0.162972 0.302285 0.551875 0.063770
H29   H     H_    0.218324 0.468903 0.115719 0.152703
H30   H     H_    0.725907 0.765836 0.269157 -0.270607
H31   H     H_    0.578079 0.521940 0.904318 0.187394
H32   H     H_    0.629856 0.528296 0.308341 0.057009
H33   H     H_    0.190280 0.455465 0.698515 0.064249
H34   H     H_    0.593336 0.807970 0.121846 0.054643
H35   H     H_    0.810629 0.394117 0.299319 0.031148
O1    O     O_2   0.113690 0.728200 0.532750 -0.405235
O2    O     O_3   0.309567 0.304572 0.279319 -0.597589
O3    O     O_3   0.885470 0.728862 0.176873 -0.547070
O4    O     O_2   0.696600 0.271740 0.467230 -0.435916
O5    O     O_3   0.938380 0.387880 0.459490 -0.493962
O6    O     O_3   0.484630 0.331100 0.627330 -0.516708
O7    O     O_3   0.834677 0.254351 0.323146 -0.687269
O8    O     O_3   0.389110 0.548970 0.605210 -0.457172
O9    O     O_3   0.904740 0.378630 0.670330 -0.497227
O10   O     O_2   0.829393 0.448948 0.823611 -0.412079
O11   O     O_3   0.889055 0.272449 0.816565 -0.574509
O12   O     O_3   0.871900 0.612110 0.540440 -0.501032
O13   O     O_3   0.421180 0.451020 0.394720 -0.499050
O14   O     O_2   0.662730 0.548230 0.717350 -0.463612
O15   O     O_3   0.487822 0.683472 0.761779 -0.648389
O16   O     O_2   0.567789 0.167457 0.574967 -0.440154
O17   O     O_3   0.525506 0.177286 0.743510 -0.556311
O18   O     O_3   0.325660 0.668890 0.372600 -0.454398
O19   O     O_2   0.246548 0.833565 0.428934 -0.383359
O20   O     O_3   0.978188 0.729058 0.678607 -0.602016
O21   O     O_3   0.291345 0.819443 0.260811 -0.547367
O22   O     O_2   0.147570 0.451710 0.282630 -0.492844
O23   O     O_3   0.905540 0.621350 0.329600 -0.483030
O24   O     O_2   0.979343 0.559595 0.172717 -0.458560
P1    P     P_3+3 0.947560 0.714050 0.560480 1.052844
P2    P     P_3+3 0.325150 0.423860 0.297970 1.009617
P3    P     P_3+3 0.852782 0.618506 0.212466 1.053197
P4    P     P_3+3 0.862730 0.285940 0.439440 0.977022
P5    P     P_3+3 0.946053 0.381069 0.787007 1.039084
P6    P     P_3+3 0.361377 0.787010 0.369657 1.092396
P7    P     P_3+3 0.479382 0.568129 0.720074 0.969800
P8    P     P_3+3 0.451768 0.212971 0.634203 1.004470
C43   C     C_2   0.978566 0.684960 0.871466 0.565431
H36   H     H_    0.881983 0.731962 0.855583 0.078147
O25   O     O_2   0.976901 0.636139 0.934309 -0.519495
Br1   Br    Br    0.275624 0.107362 0.224783 -0.363470
C44   C     C_2   0.542735 0.719285 0.615301 0.554385
H37   H     H_    0.670408 0.712622 0.625007 -0.062591
O26   O     O_2   0.462200 0.700039 0.542497 -0.566553
Br2   Br    Br    0.540458 0.925574 0.641060 -0.575032
C45   C     C_2   0.835775 0.067292 0.773083 0.557292
H38   H     H_    0.773655 0.098497 0.714751 0.100581
O27   O     O_2   0.798216 0.989331 0.787721 -0.513448
C46   C     C_2   0.113944 0.052782 0.823783 0.544009
H39   H     H_    0.129804 0.993063 0.863360 0.124469
O28   O     O_2   0.205549 0.066139 0.770040 -0.570355
C47   C     C_2   0.943020 0.125835 0.928330 0.647216
H40   H     H_    0.839332 0.163163 0.943383 0.056904
O29   O     O_2   0.032112 0.095030 0.990425 -0.491093
C48   C     C_2   0.575584 0.314956 0.836726 0.466603
H41   H     H_    0.584375 0.360096 0.783760 0.058104
O30   O     O_2   0.651377 0.334944 0.911262 -0.580734
C49   C     C_2   0.502801 0.210344 0.991637 0.595630
H42   H     H_    0.629283 0.219934 0.018324 0.062194
O31   O     O_2   0.402912 0.225104 0.041668 -0.466933
Br3   Br    Br    0.956947 0.879870 0.293948 -0.539929
Br4   Br    Br    0.532901 0.048887 0.890430 -0.466052
Br5   Br    Br    0.128983 0.896017 0.658160 -0.567136
C50   C     C_2   0.710296 0.095294 0.367285 0.534172
H43   H     H_    0.760730 0.092734 0.304787 0.051941
O32   O     O_2   0.577145 0.125554 0.369467 -0.575568
Br6   Br    Br    0.641827 0.659074 0.011434 -0.560020
Br7   Br    Br    0.100682 0.353555 0.996830 -0.535308
Br8   Br    Br    0.809581 0.901771 0.066899 -0.386885
C51   C     C_2   0.632365 0.305370 0.217365 0.434403
H44   H     H_    0.558614 0.251820 0.238452 0.140491
O33   O     O_2   0.583375 0.345292 0.150477 -0.595545

loop_
_geom_bond_atom_site_label_1
_geom_bond_atom_site_label_2
_ccdc_geom_bond_type
Ba1   O8    S    
C38   H3    S    
C9    C16   A    
C47   H40   S    
C39   C40   S    
C13   P6    S    
Ba2   O5    S    
O7    P4    S    
O12   P1    S    
C43   O25   D    
C3    O15   S    
C46   H39   S    
O8    P7    S    
Ba1   O5    S    
C38   H2    S    
C35   C36   A    
C30   P7    S    
O1    P1    D    
C15   C24   A    
C12   H30   S    
C4    H17   S    
C26   C27   A    
C17   C19   A    
C8    Br4   S    
C10   P1    S    
C28   C29   A    
O9    P5    S    
C46   O28   D    
C12   Br3   S    
C13   C14   A    
Ba2   P4    S    
O5    P4    S    
C44   H37   S    
C28   C36   S    
Ba2   O6    S    
Ba1   Ba2   S    
C20   H28   S    
C17   C24   A    
C40   C43   S    
C1    H11   S    
C41   H9    S    
C18   C22   A    
C42   Br1   S    
O4    P4    D    
C49   H42   S    
C21   C22   A    
C39   O20   S    
Ba2   O9    S    
C7    C8    S    
C24   C50   S    
O14   P7    D    
O20   P1    S    
O21   P6    S    
Ba1   O12   S    
O19   P6    D    
C19   C20   A    
Ba2   O4    S    
C23   Br8   S    
C39   H5    S    
C43   H36   S    
C45   O27   D    
C31   C32   A    
C2    H1    S    
O22   P2    D    
O17   P8    S    
O2    P2    S    
C9    C18   A    
C32   C37   A    
C32   P3    S    
C34   C38   S    
C14   H26   S    
C51   O33   D    
Ba1   O18   S    
C14   C15   A    
C34   O7    S    
C5    O11   S    
O15   P7    S    
C23   H34   S    
C23   H20   S    
C39   H6    S    
C33   C37   A    
C41   C42   S    
C7    H23   S    
C27   C28   A    
C33   P2    S    
C5    H21   S    
O18   P6    S    
C42   H12   S    
C41   H10   S    
C29   H31   S    
C29   C30   A    
C7    O17   S    
C42   H13   S    
C15   C16   A    
Ba2   O8    S    
C37   H32   S    
Ba2   O13   S    
Ba1   P1    S    
C19   P4    S    
C50   O32   D    
C6    C47   S    
Ba1   O13   S    
C8    H24   S    
C11   C13   A    
C3    C44   S    
C41   O2    S    
C7    C48   S    
C12   O3    S    
C2    H14   S    
C1    C2    S    
Ba1   O22   S    
C4    Br2   S    
C45   H38   S    
C6    C45   S    
C48   H41   S    
C38   H4    S    
C35   H29   S    
C47   O29   D    
C3    H16   S    
C33   C35   A    
C25   C30   A    
Ba2   O14   S    
C51   H44   S    
C25   H33   S    
C34   H35   S    
C6    C46   S    
C1    H19   S    
C21   P8    S    
C40   H7    S    
C31   C36   A    
Ba1   P2    S    
C31   Br6   S    
C4    H18   S    
C17   C18   A    
C2    O21   S    
C34   C51   S    
O11   P5    S    
O16   P8    D    
C5    H22   S    
C3    C4    S    
C11   H25   S    
C26   P5    S    
C27   Br7   S    
O10   P5    D    
C44   O26   D    
O23   P3    S    
O24   P3    D    
O3    P3    S    
C12   C23   S    
C9    Br5   S    
Ba2   O12   S    
C8    C49   S    
C5    C6    S    
C50   H43   S    
O6    P8    S    
O13   P2    S    
C10   C11   A    
C49   O31   D    
C10   C16   A    
C25   C26   A    
Ba1   O1    S    
C20   C21   A    
Ba1   O23   S    
C22   H27   S    
C40   H8    S    
C48   O30   D    
C1    H15   S    
