data_mof_unit_22511.cif
_audit_creation_date              2013-03-05T15:51:23-0500
_audit_creation_method            fapswitch 2.2
_symmetry_space_group_name_H-M    P1
_symmetry_Int_Tables_number       1
_space_group_crystal_system       triclinic
_cell_length_a                    22.603898
_cell_length_b                    30.361887
_cell_length_c                    19.066479
_cell_angle_alpha                 89.444758
_cell_angle_beta                  126.870497
_cell_angle_gamma                 90.088483
_cell_volume                      10467.4910235

loop_
_atom_site_label
_atom_site_type_symbol
_atom_site_description
_atom_site_fract_x
_atom_site_fract_y
_atom_site_fract_z
_atom_type_partial_charge
C1    C     C_R   0.926799 0.600750 0.072885 -0.113513
C2    C     C_R   0.073418 0.396648 0.929234 -0.124131
C3    C     C_R   0.072408 0.601342 0.926135 -0.115620
C4    C     C_R   0.952346 0.380378 0.073395 -0.094294
C5    C     C_R   0.453180 0.121069 0.070197 -0.099017
C6    C     C_R   0.546617 0.879930 0.927922 -0.106630
C7    C     C_R   0.572771 0.100776 0.926253 -0.109999
C8    C     C_R   0.453819 0.880017 0.073862 -0.095138
H1    H     H_    0.945200 0.601502 0.139446 0.145920
H2    H     H_    0.053497 0.390138 0.863477 0.131295
H3    H     H_    0.054642 0.601437 0.859928 0.152649
H4    H     H_    0.990607 0.366582 0.138002 0.116215
H5    H     H_    0.486045 0.133436 0.135895 0.126515
H6    H     H_    0.507537 0.866106 0.864119 0.116642
H7    H     H_    0.554375 0.101272 0.859646 0.153370
H8    H     H_    0.492351 0.866500 0.138670 0.110890
N1    N     N_R   0.963040 0.582050 0.045950 -0.045726
N2    N     N_R   0.036960 0.417950 0.954050 -0.041641
N3    N     N_R   0.036960 0.582050 0.954050 -0.046065
N4    N     N_R   0.963040 0.417950 0.045950 -0.039683
N5    N     N_R   0.463040 0.082050 0.045950 -0.039038
N6    N     N_R   0.536960 0.917950 0.954050 -0.036451
N7    N     N_R   0.536960 0.082050 0.954050 -0.046669
N8    N     N_R   0.463040 0.917950 0.045950 -0.037312
C9    C     C_R   0.878676 0.380550 0.927346 -0.131737
C10   C     C_R   0.142796 0.605461 0.072148 -0.148114
C11   C     C_R   0.143694 0.395341 0.075596 -0.139561
C12   C     C_R   0.854725 0.603167 0.926022 -0.139440
C13   C     C_R   0.381674 0.879367 0.928311 -0.161606
C14   C     C_R   0.644445 0.103601 0.072982 -0.144383
C15   C     C_R   0.620754 0.879972 0.073731 -0.133945
C16   C     C_R   0.382857 0.120631 0.924494 -0.166116
H9    H     H_    0.846491 0.368662 0.860802 0.098972
H10   H     H_    0.186692 0.614167 0.138613 0.100091
H11   H     H_    0.187160 0.387233 0.142833 0.099519
H12   H     H_    0.808599 0.608760 0.858147 0.106844
H13   H     H_    0.351490 0.866692 0.862480 0.102537
H14   H     H_    0.690098 0.109795 0.140429 0.102466
H15   H     H_    0.652965 0.867892 0.140645 0.096052
H16   H     H_    0.354146 0.132381 0.857683 0.106400
N9    N     N_R   0.917940 0.418000 0.954160 -0.041104
N10   N     N_R   0.082060 0.582000 0.045840 -0.037971
N11   N     N_R   0.082060 0.418000 0.045840 -0.041321
N12   N     N_R   0.917940 0.582000 0.954160 -0.040558
N13   N     N_R   0.417940 0.918000 0.954160 -0.039914
N14   N     N_R   0.582060 0.082000 0.045840 -0.040975
N15   N     N_R   0.582060 0.918000 0.045840 -0.040916
N16   N     N_R   0.417940 0.082000 0.954160 -0.038791
C17   C     C_R   0.798624 0.536915 0.759659 -0.137373
C18   C     C_R   0.209475 0.462865 0.227502 -0.134904
C19   C     C_R   0.210040 0.536254 0.226830 -0.130422
C20   C     C_R   0.794447 0.463856 0.762845 -0.122338
C21   C     C_R   0.291343 0.036789 0.806784 -0.113722
C22   C     C_R   0.707846 0.962466 0.231606 -0.119011
C23   C     C_R   0.706586 0.035825 0.236094 -0.134755
C24   C     C_R   0.291115 0.963675 0.806967 -0.121420
H17   H     H_    0.793052 0.570030 0.735141 0.123909
H18   H     H_    0.226105 0.429261 0.249230 0.104704
H19   H     H_    0.227452 0.569776 0.246629 0.103156
H20   H     H_    0.781465 0.429716 0.745112 0.117857
H21   H     H_    0.276294 0.070953 0.797724 0.122676
H22   H     H_    0.721100 0.928162 0.249871 0.108773
H23   H     H_    0.717648 0.068773 0.262091 0.105614
H24   H     H_    0.275731 0.929633 0.798237 0.124416
N17   N     N_R   0.858490 0.522630 0.835610 -0.040143
N18   N     N_R   0.141510 0.477370 0.164390 -0.041356
N19   N     N_R   0.141510 0.522630 0.164390 -0.037544
N20   N     N_R   0.858490 0.477370 0.835610 -0.040968
N21   N     N_R   0.358490 0.022630 0.835610 -0.042522
N22   N     N_R   0.641510 0.977370 0.164390 -0.043658
N23   N     N_R   0.641510 0.022630 0.164390 -0.041093
N24   N     N_R   0.358490 0.977370 0.835610 -0.046575
C25   C     C_R   0.040631 0.463845 0.242451 0.272092
C26   C     C_R   0.956843 0.537720 0.758202 0.226334
C27   C     C_R   0.961665 0.465057 0.758101 0.254766
C28   C     C_R   0.045540 0.536355 0.243175 0.209729
C29   C     C_R   0.537645 0.963846 0.240975 0.272324
C30   C     C_R   0.452035 0.037566 0.756359 0.218062
C31   C     C_R   0.457882 0.965256 0.756449 0.273693
C32   C     C_R   0.539817 0.036663 0.240530 0.233240
N25   N     N_R   0.022480 0.477420 0.164500 -0.067740
N26   N     N_R   0.977520 0.522580 0.835500 -0.071741
N27   N     N_R   0.977520 0.477420 0.835500 -0.068090
N28   N     N_R   0.022480 0.522580 0.164500 -0.071269
N29   N     N_R   0.522480 0.977420 0.164500 -0.069019
N30   N     N_R   0.477520 0.022580 0.835500 -0.071552
N31   N     N_R   0.477520 0.977420 0.835500 -0.067065
N32   N     N_R   0.522480 0.022580 0.164500 -0.070150
C33   C     C_R   0.859568 0.615633 0.999912 0.081651
C34   C     C_R   0.141423 0.383687 0.004358 0.071827
C35   C     C_R   0.138416 0.617312 0.998050 0.078288
C36   C     C_R   0.898438 0.356731 0.001352 0.068990
C37   C     C_R   0.404399 0.145912 0.995361 0.082814
C38   C     C_R   0.600508 0.855993 0.000495 0.071214
C39   C     C_R   0.639539 0.115783 0.998630 0.081009
C40   C     C_R   0.401568 0.855716 0.002315 0.076706
C41   C     C_R   0.755828 0.501062 0.712203 0.090343
C42   C     C_R   0.253707 0.499138 0.263260 0.081740
C43   C     C_R   0.248150 0.000417 0.793698 0.062224
C44   C     C_R   0.750194 0.998725 0.278814 0.095965
C45   C     C_R   0.056406 0.500338 0.293115 -0.009358
C46   C     C_R   0.948356 0.502696 0.709191 -0.010700
C47   C     C_R   0.549824 0.000472 0.290023 -0.026945
C48   C     C_R   0.440281 0.002586 0.705539 -0.012123
Ni1   Ni    Ni4+2 0.051820 0.551870 0.104030 0.215879
Ni2   Ni    Ni4+2 0.948180 0.448130 0.895970 0.210055
Ni3   Ni    Ni4+2 0.948180 0.551870 0.895970 0.211253
Ni4   Ni    Ni4+2 0.051820 0.448130 0.104030 0.213600
Ni5   Ni    Ni4+2 0.551820 0.051870 0.104030 0.211333
Ni6   Ni    Ni4+2 0.448180 0.948130 0.895970 0.212554
Ni7   Ni    Ni4+2 0.448180 0.051870 0.895970 0.211899
Ni8   Ni    Ni4+2 0.551820 0.948130 0.104030 0.209718
C49   C     C_R   0.030774 0.516900 0.673446 -0.148953
C50   C     C_R   0.969445 0.505679 0.324285 -0.127816
C51   C     C_R   0.518362 0.021192 0.665878 -0.131791
C52   C     C_R   0.460391 0.001668 0.318433 -0.111661
C53   C     C_R   0.958478 0.507812 0.642222 0.042250
C54   C     C_R   0.043477 0.503318 0.357660 0.024361
C55   C     C_R   0.448570 0.007566 0.637281 0.036166
C56   C     C_R   0.534695 0.002779 0.352786 0.028764
C57   C     C_R   0.898596 0.513554 0.553602 0.273911
C58   C     C_R   0.100674 0.513321 0.444686 0.294955
C59   C     C_R   0.388643 0.005720 0.548383 0.270315
C60   C     C_R   0.589728 0.014260 0.439587 0.293670
C61   C     C_R   0.914254 0.524216 0.494115 -0.104579
C62   C     C_R   0.081401 0.527069 0.498904 -0.114123
C63   C     C_R   0.401973 0.016052 0.486627 -0.105136
C64   C     C_R   0.567855 0.028491 0.490608 -0.106598
C65   C     C_R   0.989347 0.525985 0.525831 -0.053054
C66   C     C_R   0.006504 0.523817 0.467197 -0.055379
C67   C     C_R   0.476133 0.023360 0.517399 -0.049056
C68   C     C_R   0.493739 0.021385 0.459222 -0.055690
C69   C     C_R   0.047760 0.526779 0.616456 -0.082509
C70   C     C_R   0.949359 0.515282 0.378147 -0.089262
C71   C     C_R   0.533905 0.029388 0.607369 -0.088701
C72   C     C_R   0.438678 0.009012 0.371580 -0.092418
C73   C     C_R   0.858189 0.530344 0.403275 0.384749
C74   C     C_R   0.133870 0.543832 0.583783 0.373530
C75   C     C_R   0.345068 0.016860 0.395228 0.378284
C76   C     C_R   0.617663 0.048682 0.572608 0.368901
C77   C     C_R   0.874116 0.518660 0.345057 0.370839
C78   C     C_R   0.120647 0.537963 0.646716 0.378186
C79   C     C_R   0.363498 0.006418 0.338792 0.370366
C80   C     C_R   0.605004 0.043763 0.635951 0.375053
H25   H     H_    0.072904 0.516468 0.743514 0.201385
H26   H     H_    0.928271 0.501259 0.254648 0.199557
H27   H     H_    0.560067 0.025081 0.735461 0.201044
H28   H     H_    0.420290 0.995787 0.249077 0.198024
C81   C     C_R   0.862829 0.235569 0.952132 0.259832
C82   C     C_R   0.325831 0.653484 0.066860 0.295601
C83   C     C_R   0.288027 0.300274 0.072101 0.283416
C84   C     C_R   0.674459 0.652660 0.938416 0.290517
C85   C     C_R   0.369358 0.734015 0.957910 0.258884
C86   C     C_R   0.825113 0.152481 0.062983 0.280606
C87   C     C_R   0.637556 0.734242 0.050480 0.252267
C88   C     C_R   0.285429 0.245476 0.925059 0.301402
C89   C     C_R   0.879294 0.279764 0.949864 -0.259312
C90   C     C_R   0.269909 0.631695 0.063988 -0.253396
C91   C     C_R   0.236024 0.326071 0.069504 -0.250141
C92   C     C_R   0.728878 0.629960 0.939408 -0.234731
C93   C     C_R   0.386531 0.778059 0.955418 -0.261560
C94   C     C_R   0.770245 0.129490 0.060561 -0.243358
C95   C     C_R   0.620935 0.778379 0.052991 -0.265269
C96   C     C_R   0.311461 0.204057 0.925247 -0.253595
H29   H     H_    0.888478 0.290338 0.902652 0.147620
H30   H     H_    0.285102 0.609831 0.117612 0.146179
H31   H     H_    0.219587 0.317201 0.110751 0.143494
H32   H     H_    0.712283 0.606209 0.888605 0.149638
H33   H     H_    0.399278 0.787912 0.911048 0.148297
H34   H     H_    0.786335 0.105475 0.111692 0.153446
H35   H     H_    0.611986 0.788312 0.100434 0.147786
H36   H     H_    0.272736 0.179687 0.878934 0.148402
C97   C     C_R   0.882287 0.310488 0.006484 0.041421
C98   C     C_R   0.195015 0.639423 0.995081 0.050497
C99   C     C_R   0.200972 0.361162 0.009730 0.042082
C100  C     C_R   0.804206 0.638813 0.003363 0.046382
C101  C     C_R   0.385693 0.809586 0.008204 0.040068
C102  C     C_R   0.695067 0.138529 0.995007 0.047642
C103  C     C_R   0.617319 0.809837 0.996051 0.039305
C104  C     C_R   0.385413 0.192369 0.989494 0.038355
C105  C     C_R   0.872645 0.296345 0.069964 0.274738
C106  C     C_R   0.175981 0.667768 0.924552 0.320017
C107  C     C_R   0.224150 0.373997 0.958220 0.239596
C108  C     C_R   0.825602 0.669300 0.070748 0.296188
C109  C     C_R   0.371553 0.796546 0.068256 0.260869
C110  C     C_R   0.674255 0.169173 0.926981 0.323970
C111  C     C_R   0.626306 0.796475 0.931979 0.290970
C112  C     C_R   0.436904 0.224519 0.047439 0.308315
C113  C     C_R   0.859097 0.252020 0.074064 -0.230505
C114  C     C_R   0.232285 0.687742 0.926100 -0.168455
C115  C     C_R   0.275979 0.347844 0.960351 -0.232172
C116  C     C_R   0.771235 0.689591 0.072263 -0.188899
C117  C     C_R   0.357042 0.752472 0.072533 -0.228422
C118  C     C_R   0.729242 0.189951 0.927233 -0.171384
C119  C     C_R   0.639731 0.752276 0.927512 -0.233517
C120  C     C_R   0.410392 0.265747 0.048815 -0.248911
H37   H     H_    0.847306 0.241545 0.119077 0.150500
H38   H     H_    0.217861 0.711556 0.875209 0.151858
H39   H     H_    0.290026 0.354928 0.916121 0.151222
H40   H     H_    0.787353 0.714559 0.121036 0.152733
H41   H     H_    0.341866 0.742826 0.114745 0.150343
H42   H     H_    0.713626 0.215189 0.878144 0.151454
H43   H     H_    0.650789 0.742461 0.881790 0.151707
H44   H     H_    0.447802 0.289448 0.098246 0.156498
C121  C     C_R   0.850477 0.222066 0.013309 0.046948
C122  C     C_R   0.306210 0.683306 0.998918 0.028897
C123  C     C_R   0.304727 0.310107 0.013366 0.055961
C124  C     C_R   0.696310 0.683795 0.004223 0.044434
C125  C     C_R   0.352293 0.721616 0.015361 0.044048
C126  C     C_R   0.803841 0.184151 0.997105 0.027056
C127  C     C_R   0.649333 0.721580 0.988707 0.039735
C128  C     C_R   0.334847 0.275308 0.991174 0.042527
C129  C     C_R   0.437599 0.507434 0.306790 -0.195643
C130  C     C_R   0.608553 0.475522 0.472162 -0.162969
C131  C     C_R   0.583241 0.546419 0.505002 -0.189405
C132  C     C_R   0.454498 0.490724 0.442791 -0.205012
C133  C     C_R   0.942872 0.027640 0.473146 -0.200482
C134  C     C_R   0.055030 0.962240 0.668324 -0.202823
C135  C     C_R   0.056321 0.041737 0.667665 -0.209298
C136  C     C_R   0.892095 0.975916 0.521261 -0.183478
H45   H     H_    0.461352 0.514924 0.272780 0.146420
H46   H     H_    0.589980 0.448167 0.427389 0.148304
H47   H     H_    0.544663 0.573502 0.485057 0.147488
H48   H     H_    0.491495 0.485575 0.513309 0.155006
H49   H     H_    0.988863 0.047590 0.488018 0.141107
H50   H     H_    0.025172 0.931546 0.642375 0.144273
H51   H     H_    0.026740 0.072784 0.641820 0.149024
H52   H     H_    0.898334 0.956662 0.573538 0.144019
C137  C     C_R   0.361279 0.504674 0.261308 0.232489
C138  C     C_R   0.674311 0.472022 0.556747 0.260759
C139  C     C_R   0.643004 0.541792 0.592584 0.258580
C140  C     C_R   0.378952 0.489539 0.399915 0.243329
C141  C     C_R   0.878687 0.025593 0.387085 0.261576
C142  C     C_R   0.129394 0.961403 0.740682 0.259630
C143  C     C_R   0.130494 0.041242 0.740456 0.262884
C144  C     C_R   0.827057 0.973161 0.435955 0.271532
C145  C     C_R   0.332358 0.497946 0.309219 0.035308
C146  C     C_R   0.690211 0.504235 0.619972 0.019118
C147  C     C_R   0.819811 0.998415 0.367971 0.016325
C148  C     C_R   0.170514 0.000976 0.765365 0.053643
C149  C     C_R   0.483278 0.501590 0.397131 0.041268
C150  C     C_R   0.561234 0.510904 0.449230 0.034669
C151  C     C_R   0.949699 0.002922 0.539906 0.046215
C152  C     C_R   0.020551 0.002311 0.627198 0.059411
C153  C     C_3   0.869765 0.327965 0.128564 -0.943845
H53   H     H_    0.926544 0.336792 0.185193 0.239562
H54   H     H_    0.838037 0.358098 0.091412 0.266285
H55   H     H_    0.841864 0.313116 0.155090 0.250452
C154  C     C_3   0.097594 0.681916 0.852295 -0.979581
H56   H     H_    0.071652 0.658029 0.797858 0.268155
H57   H     H_    0.064474 0.685503 0.877362 0.245354
H58   H     H_    0.096176 0.714628 0.824668 0.250070
C155  C     C_3   0.194891 0.414733 0.901005 -0.868827
H59   H     H_    0.138234 0.409008 0.840765 0.229749
H60   H     H_    0.194812 0.443019 0.937458 0.258062
H61   H     H_    0.230081 0.423716 0.880440 0.277359
C156  C     C_3   0.904074 0.685205 0.135743 -0.985188
H62   H     H_    0.934059 0.663511 0.194719 0.259328
H63   H     H_    0.933568 0.686823 0.105731 0.251088
H64   H     H_    0.905150 0.719129 0.157825 0.253856
C157  C     C_3   0.365051 0.829165 0.122687 -0.916170
H65   H     H_    0.420717 0.839823 0.179033 0.237472
H66   H     H_    0.331536 0.858161 0.082087 0.265335
H67   H     H_    0.337389 0.814514 0.149666 0.250194
C158  C     C_3   0.595556 0.184617 0.859267 -0.977236
H68   H     H_    0.566841 0.162103 0.802516 0.269997
H69   H     H_    0.565197 0.187097 0.888084 0.243995
H70   H     H_    0.593822 0.218049 0.833845 0.249314
C159  C     C_3   0.628203 0.828673 0.872482 -0.978240
H71   H     H_    0.571096 0.835929 0.814009 0.243815
H72   H     H_    0.656598 0.859541 0.907539 0.264210
H73   H     H_    0.659061 0.814949 0.849164 0.252906
C160  C     C_3   0.519097 0.216309 0.108391 -1.017092
H74   H     H_    0.536269 0.208459 0.175224 0.256592
H75   H     H_    0.535935 0.189259 0.084957 0.251948
H76   H     H_    0.549129 0.246172 0.111746 0.260850
C161  C     C_3   0.311751 0.508368 0.162500 -0.945873
H77   H     H_    0.279853 0.477465 0.133934 0.255558
H78   H     H_    0.272532 0.536219 0.140364 0.244895
H79   H     H_    0.343930 0.513872 0.136483 0.253663
C162  C     C_3   0.720205 0.431319 0.577021 -1.036687
H80   H     H_    0.779649 0.438203 0.624564 0.253686
H81   H     H_    0.703568 0.404962 0.602614 0.255902
H82   H     H_    0.712118 0.418889 0.517177 0.265541
C163  C     C_3   0.646651 0.574108 0.655173 -1.025802
H83   H     H_    0.669145 0.558534 0.719598 0.257005
H84   H     H_    0.679942 0.603207 0.663381 0.250590
H85   H     H_    0.590505 0.586089 0.629542 0.254370
C164  C     C_3   0.351163 0.480610 0.453630 -0.977396
H86   H     H_    0.290036 0.481075 0.414413 0.252464
H87   H     H_    0.370988 0.447710 0.485673 0.254984
H88   H     H_    0.373044 0.505959 0.505191 0.259753
C165  C     C_3   0.875564 0.051103 0.316472 -0.988345
H89   H     H_    0.859772 0.028896 0.261858 0.259673
H90   H     H_    0.834922 0.078442 0.291137 0.239577
H91   H     H_    0.929919 0.065793 0.341600 0.253034
C166  C     C_3   0.160451 0.918901 0.791781 -0.994262
H92   H     H_    0.166872 0.894472 0.753793 0.244739
H93   H     H_    0.213809 0.924085 0.857152 0.259901
H94   H     H_    0.121848 0.905168 0.804124 0.263994
C167  C     C_3   0.162233 0.082995 0.792171 -1.004437
H95   H     H_    0.215382 0.076803 0.857584 0.262127
H96   H     H_    0.169274 0.107885 0.754687 0.238555
H97   H     H_    0.123724 0.096743 0.804439 0.268682
C168  C     C_3   0.767161 0.943121 0.420303 -1.028510
H98   H     H_    0.712441 0.959547 0.377254 0.266007
H99   H     H_    0.767149 0.912156 0.389990 0.250665
H100  H     H_    0.776220 0.933915 0.482617 0.259542
C169  C     C_3   0.061887 0.417904 0.277952 -1.007967
H101  H     H_    0.098734 0.417864 0.350708 0.253831
H102  H     H_    0.011512 0.399288 0.256437 0.255987
H103  H     H_    0.092187 0.401987 0.255843 0.242057
C170  C     C_3   0.924144 0.582494 0.721266 -0.967271
H104  H     H_    0.956806 0.599935 0.703623 0.263274
H105  H     H_    0.866334 0.579117 0.661406 0.263193
H106  H     H_    0.923038 0.602194 0.769189 0.238811
C171  C     C_3   0.938709 0.419912 0.719883 -1.038705
H107  H     H_    0.888931 0.421639 0.650779 0.259393
H108  H     H_    0.983201 0.404743 0.719652 0.252966
H109  H     H_    0.925858 0.399111 0.757326 0.252146
C172  C     C_3   0.077338 0.580993 0.279166 -0.922783
H110  H     H_    0.045852 0.597405 0.299211 0.262931
H111  H     H_    0.136051 0.577638 0.337058 0.264548
H112  H     H_    0.075698 0.601684 0.229734 0.234424
C173  C     C_3   0.558870 0.918045 0.277276 -1.011563
H113  H     H_    0.593958 0.918242 0.349935 0.256663
H114  H     H_    0.508335 0.899188 0.254138 0.258665
H115  H     H_    0.591101 0.902261 0.257659 0.242062
C174  C     C_3   0.419733 0.082619 0.721602 -0.957125
H116  H     H_    0.451104 0.100072 0.702144 0.259877
H117  H     H_    0.361104 0.079748 0.663300 0.265332
H118  H     H_    0.421236 0.102049 0.771643 0.238080
C175  C     C_3   0.448130 0.919092 0.725213 -1.018973
H119  H     H_    0.421737 0.918390 0.653952 0.260314
H120  H     H_    0.503177 0.903394 0.759150 0.258016
H121  H     H_    0.412366 0.900790 0.737150 0.243475
C176  C     C_3   0.569762 0.081426 0.276633 -0.918120
H122  H     H_    0.526486 0.101848 0.271168 0.259825
H123  H     H_    0.618052 0.079016 0.346416 0.277860
H124  H     H_    0.589531 0.097182 0.241479 0.223999
C177  C     C_3   0.820841 0.503809 0.523196 -0.845153
H125  H     H_    0.789839 0.534720 0.510346 0.291282
H126  H     H_    0.791785 0.482691 0.464285 0.267177
H127  H     H_    0.820439 0.485793 0.573228 0.217829
C178  C     C_3   0.179962 0.503888 0.480027 -0.849837
H128  H     H_    0.213622 0.494008 0.550189 0.269210
H129  H     H_    0.183048 0.475777 0.445572 0.211383
H130  H     H_    0.204574 0.532952 0.471035 0.279798
C179  C     C_3   0.315030 0.988049 0.521557 -0.838284
H131  H     H_    0.291161 0.965480 0.465263 0.268464
H132  H     H_    0.320257 0.968414 0.574304 0.217150
H133  H     H_    0.276494 0.015522 0.505536 0.289661
C180  C     C_3   0.669474 0.003794 0.479425 -0.864562
H134  H     H_    0.705054 0.003493 0.551925 0.281295
H135  H     H_    0.672584 0.969765 0.461818 0.214576
H136  H     H_    0.691842 0.026948 0.455463 0.266769
S1    S     S_3+6 0.783569 0.567439 0.366931 0.009017
O1    O     O_2   0.805757 0.599070 0.439061 -0.308859
O2    O     O_2   0.765340 0.593424 0.288641 -0.221229
O3    O     O_3   0.707839 0.539792 0.339096 -0.503179
H137  H     H_    0.671426 0.562880 0.325802 0.368641
S2    S     S_3+6 0.197236 0.584632 0.598546 0.012183
O4    O     O_2   0.169260 0.604822 0.511312 -0.310410
O5    O     O_2   0.204056 0.620482 0.656834 -0.219967
O6    O     O_3   0.281034 0.562102 0.643991 -0.500063
H138  H     H_    0.311649 0.586549 0.647272 0.371012
S3    S     S_3+6 0.261674 0.046565 0.352800 0.015332
O7    O     O_2   0.275259 0.079950 0.418703 -0.305622
O8    O     O_2   0.236872 0.070478 0.269803 -0.208215
O9    O     O_3   0.194144 0.012274 0.331025 -0.498887
H139  H     H_    0.151433 0.031683 0.311118 0.372775
S4    S     S_3+6 0.676516 0.091247 0.581904 0.014216
O10   O     O_2   0.647260 0.108281 0.492177 -0.312280
O11   O     O_2   0.677913 0.128703 0.633888 -0.221698
O12   O     O_3   0.763239 0.072420 0.631741 -0.495717
H140  H     H_    0.790709 0.097729 0.631283 0.372437
S5    S     S_3+6 0.800655 0.506513 0.233496 0.002117
O13   O     O_2   0.796859 0.542043 0.175410 -0.279816
O14   O     O_2   0.815621 0.463004 0.209751 -0.315049
O15   O     O_3   0.718620 0.503080 0.216171 -0.441796
H141  H     H_    0.681798 0.499846 0.151940 0.374160
S6    S     S_3+6 0.193666 0.543975 0.761247 -0.005897
O16   O     O_2   0.174511 0.581433 0.795456 -0.299608
O17   O     O_2   0.200547 0.502368 0.808920 -0.338787
O18   O     O_3   0.276501 0.553491 0.783285 -0.430492
H142  H     H_    0.309328 0.561417 0.846096 0.368842
S7    S     S_3+6 0.293834 0.987345 0.230624 0.006817
O19   O     O_2   0.279202 0.022293 0.165500 -0.263995
O20   O     O_2   0.320409 0.946122 0.214180 -0.318337
O21   O     O_3   0.214661 0.975499 0.216402 -0.440677
H143  H     H_    0.179025 0.968204 0.153518 0.376809
S8    S     S_3+6 0.677510 0.053321 0.749615 -0.000533
O22   O     O_2   0.654495 0.090512 0.780103 -0.309741
O23   O     O_2   0.688970 0.012448 0.801676 -0.308134
O24   O     O_3   0.759002 0.065686 0.770191 -0.428232
H144  H     H_    0.790815 0.075540 0.831886 0.369738
C181  C     C_3   0.855447 0.204425 0.886331 -0.896281
H145  H     H_    0.845863 0.169995 0.897223 0.261101
H146  H     H_    0.808500 0.214989 0.819102 0.258662
H147  H     H_    0.907073 0.204801 0.891528 0.246448
C182  C     C_3   0.404928 0.646285 0.145212 -0.974147
H148  H     H_    0.444302 0.663594 0.137966 0.258225
H149  H     H_    0.412818 0.658348 0.205089 0.246536
H150  H     H_    0.418291 0.610555 0.153364 0.256688
C183  C     C_3   0.320365 0.260478 0.132229 -0.938152
H151  H     H_    0.303938 0.229932 0.093189 0.256989
H152  H     H_    0.381593 0.262821 0.176474 0.249817
H153  H     H_    0.301059 0.257905 0.173682 0.251935
C184  C     C_3   0.594402 0.644543 0.864660 -0.962138
H154  H     H_    0.556641 0.662830 0.873144 0.256196
H155  H     H_    0.582855 0.654838 0.801474 0.244731
H156  H     H_    0.582286 0.608893 0.862098 0.263110
C185  C     C_3   0.366997 0.701808 0.896759 -0.905274
H157  H     H_    0.356168 0.667674 0.907539 0.264228
H158  H     H_    0.322858 0.711666 0.827802 0.261005
H159  H     H_    0.421033 0.701777 0.907492 0.243833
C186  C     C_3   0.904865 0.144186 0.138405 -0.949151
H160  H     H_    0.943176 0.162816 0.131071 0.259980
H161  H     H_    0.914832 0.153932 0.200659 0.243934
H162  H     H_    0.917758 0.108590 0.142034 0.261643
C187  C     C_3   0.645107 0.702168 0.116134 -0.892218
H163  H     H_    0.655007 0.667993 0.105150 0.271750
H164  H     H_    0.691910 0.712052 0.183411 0.255881
H165  H     H_    0.593390 0.702249 0.110772 0.243332
C188  C     C_3   0.204013 0.255736 0.859624 -0.972823
H166  H     H_    0.178987 0.261364 0.894170 0.255754
H167  H     H_    0.196458 0.285674 0.821103 0.251217
H168  H     H_    0.173634 0.228390 0.812844 0.248167

loop_
_geom_bond_atom_site_label_1
_geom_bond_atom_site_label_2
_geom_bond_distance
_ccdc_geom_bond_type
S1    O1    1.503874 D    
C92   C100  1.404206 A    
C188  H166  1.110258 S    
C14   N14   1.347025 A    
S7    O21   1.680235 S    
C21   N21   1.336762 A    
C31   N31   1.346323 A    
C176  H122  1.109284 S    
C129  C137  1.393138 A    
C167  H95   1.110063 S    
C21   C43   1.394523 A    
C162  H82   1.111561 S    
C90   H30   1.081743 S    
S6    O16   1.503688 D    
C63   C75   1.414692 A    
C106  C154  1.511149 S    
C181  H146  1.110329 S    
C105  C153  1.510818 S    
C175  H121  1.109533 S    
C119  H43   1.085354 S    
C160  H76   1.110928 S    
C117  H41   1.085177 S    
S4    O10   1.502603 D    
C14   H14   1.079620 S    
C44   C147  1.468240 S    
C73   S1    1.783753 S    
C2    C34   1.384978 A    
S5    O15   1.680322 S    
C130  H46   1.085078 S    
C114  C122  1.396783 A    
C24   N24   1.339725 A    
C23   C44   1.387820 A    
C3    N3    1.331435 A    
C120  H44   1.084446 S    
C5    H5    1.074013 S    
N5    N16   1.400433 A    
C25   C45   1.376264 A    
N6    N15   1.400430 A    
N25   Ni4   1.870631 S    
C8    H8    1.074095 S    
N7    N14   1.400397 A    
C49   C69   1.382752 A    
C153  H53   1.107445 S    
C32   N32   1.329509 A    
C66   C70   1.412130 A    
N20   Ni2   1.846254 S    
C25   N25   1.343152 A    
C180  H135  1.104731 S    
C37   C104  1.458566 S    
C144  C168  1.506844 S    
C32   C47   1.368786 A    
C84   C184  1.504838 S    
S8    O23   1.503650 D    
C133  C141  1.395047 A    
N19   Ni1   1.846254 S    
C11   H11   1.073554 S    
C175  H119  1.109152 S    
C12   N12   1.348640 A    
C85   C93   1.400173 A    
C171  H109  1.110175 S    
C132  H48   1.085628 S    
C22   N22   1.334320 A    
N17   N20   1.374176 A    
N28   Ni1   1.858997 S    
C178  H130  1.107955 S    
C50   H26   1.080393 S    
N22   Ni8   1.853953 S    
C65   C69   1.411556 A    
C43   C148  1.494645 S    
C110  C158  1.511967 S    
S1    O3    1.682408 S    
C159  H72   1.110203 S    
C188  H168  1.110878 S    
C29   C47   1.377406 A    
C93   C101  1.403989 A    
S7    O19   1.503274 D    
C88   C188  1.509743 S    
C176  H124  1.109199 S    
C79   S7    1.786487 S    
C99   C107  1.414304 A    
C167  H97   1.110863 S    
C113  H37   1.085224 S    
C100  C108  1.420367 A    
C142  C166  1.504959 S    
C31   C175  1.491833 S    
C186  H160  1.109797 S    
C107  C155  1.505925 S    
O12   H140  0.990474 S    
C30   C174  1.499420 S    
C55   C59   1.399054 A    
C77   S5    1.786779 S    
S4    O12   1.682264 S    
C130  C150  1.386531 A    
C141  C147  1.416074 A    
C163  H84   1.109354 S    
C183  H151  1.110283 S    
C70   C77   1.418746 A    
C137  C161  1.510096 S    
C91   H31   1.084091 S    
S3    O9    1.682059 S    
N11   Ni4   1.861905 S    
C116  H40   1.085583 S    
C42   C145  1.435261 S    
C74   S2    1.784040 S    
C3    H3    1.070674 S    
C17   C41   1.380197 A    
C102  C110  1.419485 A    
C61   C65   1.420668 A    
C5    N5    1.342389 A    
C179  H133  1.107202 S    
C86   C126  1.409528 A    
C172  H110  1.110002 S    
C153  H55   1.110984 S    
C106  C114  1.393274 A    
C33   C100  1.472435 S    
C83   C123  1.409326 A    
C184  H154  1.109912 S    
O6    H138  0.990498 S    
C134  H50   1.084013 S    
C23   N23   1.337493 A    
O15   H141  0.990492 S    
N4    Ni4   1.854809 S    
C118  H42   1.085474 S    
C179  H131  1.109441 S    
C120  C128  1.396885 A    
C131  C150  1.388070 A    
C143  C148  1.419553 A    
N8    Ni8   1.854809 S    
N29   Ni8   1.870631 S    
C98   C106  1.420746 A    
O9    H139  0.990475 S    
N31   Ni6   1.858994 S    
C69   C78   1.422658 A    
N14   Ni5   1.850268 S    
C11   C34   1.377800 A    
C45   C54   1.428953 S    
C72   C79   1.417933 A    
C155  H59   1.107970 S    
C170  H105  1.110326 S    
C6    H6    1.074972 S    
S2    O4    1.503771 D    
C84   C124  1.410589 A    
C17   H17   1.079782 S    
C149  C150  1.440557 S    
C54   C58   1.396858 A    
C173  H114  1.106984 S    
C20   H20   1.077796 S    
C75   C79   1.406006 A    
C168  H99   1.108270 S    
C23   H23   1.081221 S    
C24   H24   1.072234 S    
C12   C33   1.401842 A    
C58   C178  1.515508 S    
C134  C152  1.397696 A    
N3    N10   1.400397 A    
C48   C55   1.428432 S    
C93   H33   1.084215 S    
C92   H32   1.084264 S    
C16   C37   1.371645 A    
C29   N29   1.342547 A    
C161  H77   1.110592 S    
C166  H93   1.110055 S    
C129  H45   1.084001 S    
C117  C125  1.398770 A    
O3    H137  0.990495 S    
C186  H161  1.110365 S    
C90   C98   1.404733 A    
C63   C67   1.422871 A    
C177  H126  1.109732 S    
C85   C185  1.505255 S    
C136  C151  1.393201 A    
C18   C42   1.367650 A    
C30   C48   1.359262 A    
C135  C143  1.394548 A    
C82   C122  1.408447 A    
C183  H153  1.110772 S    
C89   H29   1.083943 S    
C131  H47   1.086012 S    
C115  C123  1.395856 A    
C87   C95   1.401289 A    
C52   C56   1.389686 A    
C83   C91   1.389184 A    
N21   N24   1.374176 A    
N2    Ni2   1.847250 S    
C57   C61   1.410925 A    
C165  H89   1.110462 S    
C118  C126  1.396347 A    
C59   C63   1.412075 A    
C68   C72   1.413305 A    
C172  H112  1.109528 S    
C164  H86   1.108366 S    
C50   C70   1.382586 A    
C142  C148  1.418324 A    
C184  H156  1.110406 S    
C158  H69   1.109908 S    
C111  C159  1.510349 S    
C46   C53   1.432991 S    
C49   C53   1.391197 A    
C168  H98   1.108156 S    
C187  H165  1.110687 S    
C51   C55   1.388290 A    
C95   C103  1.404007 A    
C140  C145  1.404083 A    
C96   H36   1.084693 S    
C4    H4    1.074010 S    
C75   S3    1.783899 S    
C182  H150  1.110702 S    
C25   C169  1.492688 S    
C10   N10   1.349556 A    
C65   C66   1.387930 A    
N29   N32   1.371140 A    
C154  H58   1.111161 S    
C110  C118  1.390448 A    
S7    O20   1.503880 D    
C13   C40   1.388788 A    
N5    Ni5   1.847252 S    
C162  H81   1.109796 S    
C15   C38   1.393261 A    
N7    Ni7   1.854807 S    
C1    N1    1.330077 A    
C144  C147  1.421704 A    
C60   C64   1.401231 A    
C156  H64   1.111215 S    
N30   Ni7   1.870627 S    
C64   C76   1.411346 A    
C181  H145  1.109903 S    
C6    C38   1.373792 A    
C19   N19   1.335114 A    
C51   C71   1.376388 A    
C121  C126  1.464326 S    
C7    N7    1.329256 A    
C7    H7    1.073272 S    
C160  H75   1.109588 S    
S4    O11   1.503616 D    
C38   C103  1.469001 S    
C94   C102  1.403995 A    
C19   H19   1.077592 S    
C185  H158  1.110312 S    
C161  H79   1.110896 S    
C24   C43   1.398092 A    
N17   Ni3   1.853953 S    
C133  H49   1.084269 S    
N3    Ni3   1.854807 S    
C185  H157  1.109813 S    
C188  H167  1.109893 S    
C47   C56   1.430599 S    
C28   N28   1.330401 A    
C180  H134  1.106081 S    
C187  H163  1.109846 S    
C139  C146  1.426589 A    
C26   N26   1.327685 A    
C165  H91   1.110891 S    
N12   Ni3   1.861910 S    
C103  C111  1.416288 A    
C28   C172  1.499137 S    
C62   C66   1.419085 A    
C151  C152  1.461547 S    
C6    N6    1.330696 A    
C51   H27   1.079176 S    
C132  C149  1.401184 A    
C164  H88   1.110613 S    
C101  C109  1.414166 A    
C135  C152  1.395790 A    
C136  H52   1.084162 S    
C3    C35   1.377303 A    
C174  H116  1.109961 S    
C49   H25   1.079277 S    
C171  H108  1.109205 S    
C104  C112  1.415075 A    
C27   C171  1.497473 S    
C105  C113  1.391572 A    
C113  C121  1.398566 A    
C32   C176  1.495104 S    
N6    Ni6   1.847250 S    
C78   S6    1.791018 S    
C1    C33   1.379168 A    
C108  C116  1.391328 A    
N22   N23   1.374176 A    
C40   C101  1.465200 S    
C178  H129  1.109482 S    
C95   H35   1.084067 S    
C96   C104  1.398890 A    
C82   C182  1.505259 S    
C26   C46   1.358059 A    
C19   C42   1.375557 A    
C175  H120  1.106254 S    
C97   C105  1.415275 A    
S1    O2    1.503512 D    
C15   N15   1.346828 A    
C159  H71   1.107647 S    
C16   N16   1.332755 A    
C87   C187  1.504966 S    
C176  H123  1.105743 S    
C86   C94   1.398851 A    
C182  H148  1.109989 S    
C167  H96   1.110370 S    
N9    Ni2   1.850270 S    
C18   H18   1.077060 S    
C1    H1    1.072933 S    
C74   C78   1.409580 A    
C181  H147  1.110379 S    
C81   C121  1.409884 A    
C140  C164  1.510969 S    
C52   H28   1.080688 S    
N30   N31   1.371140 A    
C22   H22   1.079143 S    
S6    O18   1.680023 S    
C61   C73   1.414562 A    
C10   C35   1.399154 A    
C169  H101  1.109739 S    
C34   C99   1.458105 S    
C35   C98   1.474527 S    
C107  C115  1.396363 A    
C88   C128  1.409424 A    
C14   C39   1.400027 A    
C157  H67   1.110886 S    
C39   C102  1.468877 S    
C94   H34   1.084379 S    
C154  H56   1.109056 S    
S3    O8    1.503334 D    
C185  H159  1.110744 S    
C153  H54   1.110393 S    
C9    N9    1.343729 A    
C67   C68   1.386894 A    
C130  C138  1.393593 A    
C180  H136  1.108355 S    
C114  H38   1.085417 S    
O18   H142  0.990652 S    
C73   C77   1.405415 A    
C82   C90   1.397694 A    
N13   Ni6   1.850270 S    
C76   C80   1.404940 A    
N18   Ni4   1.853953 S    
S8    O22   1.503705 D    
O24   H144  0.990666 S    
O21   H143  0.990499 S    
C52   C72   1.385270 A    
N27   Ni2   1.858994 S    
C155  H61   1.110096 S    
C129  C149  1.387430 A    
C60   C180  1.510365 S    
N1    N12   1.400433 A    
N2    N11   1.400430 A    
C85   C125  1.410320 A    
C59   C179  1.516384 S    
C27   N27   1.350103 A    
C170  H104  1.109938 S    
C157  H65   1.106997 S    
S2    O5    1.503647 D    
C124  C127  1.466752 S    
C141  C165  1.511093 S    
C173  H113  1.109017 S    
N10   Ni1   1.850268 S    
C11   N11   1.335288 A    
C12   H12   1.080651 S    
N26   N27   1.371140 A    
C112  C160  1.506413 S    
C159  H73   1.111059 S    
C13   N13   1.346902 A    
C139  C163  1.515908 S    
C143  C167  1.505493 S    
C135  H51   1.084465 S    
C81   C89   1.399135 A    
C89   C97   1.404208 A    
C4    C36   1.376564 A    
S2    O6    1.682122 S    
C84   C92   1.401037 A    
C2    N2    1.340443 A    
C166  H92   1.110269 S    
S3    O7    1.503776 D    
C8    C40   1.372458 A    
C26   C170  1.500086 S    
N4    N9    1.400400 A    
C83   C183  1.509574 S    
C177  H125  1.106120 S    
C41   C146  1.472678 S    
C138  C162  1.505451 S    
C163  H83   1.109488 S    
C17   N17   1.324541 A    
C131  C139  1.386419 A    
N8    N13   1.400400 A    
C169  H103  1.109819 S    
C115  H39   1.084357 S    
C156  H62   1.109094 S    
C163  H85   1.111540 S    
C67   C71   1.413729 A    
C183  H152  1.109933 S    
N15   Ni8   1.861905 S    
C20   C41   1.393151 A    
C53   C57   1.402857 A    
C86   C186  1.504875 S    
C8    N8    1.331764 A    
C10   H10   1.075678 S    
C172  H111  1.109225 S    
C27   C46   1.381979 A    
C186  H162  1.110449 S    
C9    C36   1.392270 A    
C158  H68   1.108857 S    
C20   N20   1.337112 A    
C30   N30   1.326729 A    
C179  H132  1.107607 S    
C91   C99   1.399030 A    
C116  C124  1.396128 A    
C22   C44   1.385805 A    
C21   H21   1.071732 S    
S8    O24   1.679723 S    
C64   C68   1.417625 A    
C182  H149  1.110337 S    
N24   Ni6   1.846254 S    
C154  H57   1.109690 S    
S5    O14   1.503750 D    
C80   S8    1.793151 S    
C134  C142  1.395008 A    
C157  H66   1.110550 S    
C170  H106  1.109653 S    
C166  H94   1.110875 S    
C76   S4    1.785342 S    
C162  H80   1.100921 S    
C156  H63   1.109711 S    
C58   C62   1.407827 A    
C173  H115  1.109890 S    
C133  C151  1.397644 A    
C119  C127  1.397374 A    
N1    Ni1   1.847252 S    
C155  H60   1.110718 S    
C168  H100  1.110605 S    
C160  H74   1.109987 S    
C174  H117  1.110508 S    
C81   C181  1.505749 S    
N26   Ni3   1.870627 S    
C18   N18   1.332480 A    
C112  C120  1.395905 A    
S5    O13   1.503580 D    
C50   C54   1.389959 A    
C71   C80   1.421893 A    
C161  H78   1.107020 S    
C123  C128  1.454476 S    
C13   H13   1.081637 S    
C174  H118  1.109709 S    
C31   C48   1.379027 A    
C138  C146  1.428552 A    
C184  H155  1.110334 S    
N32   Ni5   1.858997 S    
C2    H2    1.068086 S    
N25   N28   1.371140 A    
C177  H127  1.099801 S    
C28   C45   1.364869 A    
C62   C74   1.412617 A    
S6    O17   1.501657 D    
C111  C119  1.390959 A    
C29   C173  1.492618 S    
C136  C144  1.395196 A    
C109  C117  1.390516 A    
C57   C177  1.513829 S    
C5    C37   1.383620 A    
C4    N4    1.331517 A    
C36   C97   1.467235 S    
C7    C39   1.378580 A    
C108  C156  1.512065 S    
C87   C127  1.411113 A    
C165  H90   1.108333 S    
N21   Ni7   1.853953 S    
C122  C125  1.465505 S    
C109  C157  1.510928 S    
C169  H102  1.107396 S    
N23   Ni5   1.846254 S    
C164  H87   1.110355 S    
C15   H15   1.081383 S    
N18   N19   1.374176 A    
C16   H16   1.082135 S    
C171  H107  1.106609 S    
C158  H70   1.111131 S    
N16   Ni7   1.861910 S    
C88   C96   1.388304 A    
C187  H164  1.110267 S    
C9    H9    1.081529 S    
C132  C140  1.382319 A    
C178  H128  1.109050 S    
C137  C145  1.419907 A    
C56   C60   1.395433 A    
