data_mof_unit_17602.cif
_audit_creation_date              2012-12-10T16:57:43-0500
_audit_creation_method            fapswitch 2.2
_symmetry_space_group_name_H-M    P1
_symmetry_Int_Tables_number       1
_space_group_crystal_system       triclinic
_cell_length_a                    7.827707
_cell_length_b                    8.561996
_cell_length_c                    19.155339
_cell_angle_alpha                 92.2364
_cell_angle_beta                  84.440789
_cell_angle_gamma                 93.575579
_cell_volume                      1274.57744326

loop_
_atom_site_label
_atom_site_type_symbol
_atom_type_description
_atom_site_fract_x
_atom_site_fract_y
_atom_site_fract_z
_atom_type_partial_charge
C1    C     C_R   0.545495 0.794510 0.498274 0.957582
C2    C     C_R   0.656620 0.476177 0.174560 0.415707
C3    C     C_R   0.479765 0.437226 0.853468 -0.020032
C4    C     C_R   0.498966 0.462892 0.144397 -0.018894
C5    C     C_R   0.639148 0.456000 0.813676 -0.172818
C6    C     C_R   0.343495 0.466494 0.187157 -0.177155
C7    C     C_R   0.646357 0.477177 0.742080 -0.147295
C8    C     C_R   0.343634 0.480770 0.259320 -0.145829
C9    C     C_R   0.493855 0.479778 0.709720 -0.106156
C10   C     C_R   0.499653 0.491191 0.289649 -0.105248
C11   C     C_R   0.491647 0.450428 0.068957 0.328664
C12   C     C_R   0.454505 0.205489 0.501732 0.954328
C13   C     C_R   0.477318 0.432854 0.929110 0.332617
C14   C     C_2   0.569462 0.958008 0.497251 -0.344854
C15   C     C_2   0.430537 0.041998 0.502777 -0.343591
C16   C     C_R   0.499253 0.497321 0.634361 0.883911
C17   C     C_R   0.499979 0.499019 0.365574 0.880828
C18   C     C_R   0.334309 0.457276 0.749249 -0.212591
C19   C     C_R   0.655700 0.489566 0.247051 -0.213277
C20   C     C_R   0.326242 0.435116 0.820808 0.415495
Cl1   Cl    Cl    0.121912 0.398725 0.866545 -0.569965
Cl2   Cl    Cl    0.857813 0.485745 0.124311 -0.568545
Cl3   Cl    Cl    0.039282 0.317715 0.424295 -0.511700
Cl4   Cl    Cl    0.960507 0.681615 0.576021 -0.503904
H1    H     H_    0.215278 0.454691 0.724565 0.198976
H2    H     H_    0.777398 0.499673 0.269908 0.198555
H3    H     H_    0.758092 0.459015 0.838358 0.223441
H4    H     H_    0.221382 0.456627 0.164688 0.221700
H5    H     H_    0.770795 0.492944 0.712352 0.203884
H6    H     H_    0.221615 0.481692 0.291199 0.206690
H7    H     H_    0.700827 0.008708 0.491945 0.215368
H8    H     H_    0.299171 0.991300 0.508086 0.215295
N1    N     N_R   0.598968 0.358647 0.958510 -0.116194
N2    N     N_R   0.369254 0.523362 0.039526 -0.116962
N3    N     N_R   0.605192 0.366422 0.027543 -0.071512
N4    N     N_R   0.362879 0.515439 0.970615 -0.073129
N5    N     N_2   0.950330 0.457950 0.481240 0.133402
N6    N     N_2   0.049670 0.542050 0.518760 0.133688
O1    O     O_R   0.389250 0.738570 0.504600 -0.600363
O2    O     O_R   0.610750 0.261430 0.495400 -0.601077
O3    O     O_R   0.678400 0.711620 0.492580 -0.579537
O4    O     O_R   0.321600 0.288380 0.507420 -0.580254
O5    O     O_R   0.355380 0.513500 0.607880 -0.610341
O6    O     O_R   0.644620 0.486500 0.392120 -0.610370
O7    O     O_R   0.644530 0.486550 0.595850 -0.589054
O8    O     O_R   0.355470 0.513450 0.404150 -0.590948
Zn1   Zn    Zn3+2 0.306930 0.517990 0.508030 1.090587
Zn2   Zn    Zn3+2 0.693070 0.482010 0.491970 1.090873

loop_
_geom_bond_atom_site_label_1
_geom_bond_atom_site_label_2
_ccdc_geom_bond_type
C16   O7    A    
C2    Cl2   S    
C2    C4    A    
C13   N1    A    
N5    N6    D    
C7    H5    S    
C5    C7    A    
C14   H7    S    
N2    N4    A    
C3    C13   S    
C12   C15   S    
C10   C19   A    
C8    H6    S    
C11   N3    A    
C17   O6    A    
C3    C20   A    
C5    H3    S    
C17   O8    A    
C4    C11   S    
C16   O5    A    
N6    Zn1   S    
C18   H1    S    
C6    C8    A    
C1    O3    A    
N1    N3    A    
C9    C16   S    
C18   C20   A    
O4    Zn1   S    
C14   C15   D    
C8    C10   A    
C1    O1    A    
C10   C17   S    
Cl4   N6    S    
C9    C18   A    
C15   H8    S    
C20   Cl1   S    
C13   N4    A    
C4    C6    A    
O7    Zn2   S    
C7    C9    A    
C19   H2    S    
O2    Zn2   S    
O8    Zn1   S    
C12   O4    A    
C1    C14   S    
C3    C5    A    
C2    C19   A    
Cl3   N5    S    
O1    Zn1   S    
O5    Zn1   S    
O3    Zn2   S    
C11   N2    A    
C6    H4    S    
O6    Zn2   S    
N5    Zn2   S    
C12   O2    A    
