data_mof_unit_34296.cif
_audit_creation_date              2012-12-10T20:40:01-0500
_audit_creation_method            fapswitch 2.2
_symmetry_space_group_name_H-M    P1
_symmetry_Int_Tables_number       1
_space_group_crystal_system       triclinic
_cell_length_a                    23.372623
_cell_length_b                    10.742133
_cell_length_c                    9.908464
_cell_angle_alpha                 89.01758
_cell_angle_beta                  91.385029
_cell_angle_gamma                 90.528053
_cell_volume                      2486.54733011

loop_
_atom_site_label
_atom_site_type_symbol
_atom_type_description
_atom_site_fract_x
_atom_site_fract_y
_atom_site_fract_z
_atom_type_partial_charge
C1    C     C_R   0.501190 0.260074 0.500977 0.932502
C2    C     C_R   0.117568 0.528456 0.381978 0.518075
C3    C     C_R   0.241031 0.596446 0.566315 -0.069748
C4    C     C_R   0.389596 0.497924 0.498807 0.886692
C5    C     C_R   0.300210 0.591041 0.566584 -0.173400
C6    C     C_R   0.327507 0.497098 0.496898 -0.122333
C7    C     C_R   0.295145 0.404129 0.429692 -0.108002
C8    C     C_R   0.235424 0.410637 0.430748 -0.049620
C9    C     C_R   0.208623 0.506448 0.498275 0.248734
C10   C     C_R   0.760186 0.398875 0.463839 -0.067599
C11   C     C_R   0.700885 0.400136 0.461380 -0.169348
C12   C     C_R   0.973331 0.473400 0.748918 -0.149724
C13   C     C_R   0.672061 0.505347 0.504315 -0.100397
C14   C     C_R   0.702550 0.611855 0.548579 -0.048525
C15   C     C_R   0.762343 0.608561 0.551708 -0.045444
C16   C     C_R   0.501684 0.739528 0.499156 0.902465
C17   C     C_R   0.790747 0.502850 0.509202 0.250352
C18   C     C_R   0.503593 0.059406 0.622489 0.191113
C19   C     C_R   0.507672 0.128242 0.502576 -0.075035
C20   C     C_R   0.521690 0.066957 0.383417 -0.183338
C21   C     C_R   0.521848 0.937767 0.381622 -0.186886
C22   C     C_R   0.508813 0.870761 0.499599 -0.056816
C23   C     C_R   0.032880 0.474560 0.747392 -0.147465
C24   C     C_R   0.504661 0.933054 0.620519 0.064794
C25   C     C_3   0.467605 0.916400 0.741045 -0.354754
C26   C     C_3   0.465904 0.059905 0.744539 -0.105586
C27   C     C_R   0.450195 0.485117 0.067994 0.108717
C28   C     C_R   0.610258 0.501438 0.501323 0.832244
C29   C     C_R   0.547545 0.532492 0.075230 -0.098146
C30   C     C_R   0.547268 0.537164 0.931546 0.012973
C31   C     C_R   0.450003 0.488044 0.926223 0.150582
C32   C     C_3   0.407010 0.386144 0.916326 -0.466645
C33   C     C_3   0.408343 0.378728 0.070207 -0.235873
C34   C     C_R   0.061371 0.492102 0.625277 -0.015459
C35   C     C_R   0.878074 0.520494 0.387483 0.516358
C36   C     C_R   0.881521 0.487693 0.627024 0.521420
C37   C     C_R   0.941299 0.489306 0.628290 -0.020012
C38   C     C_R   0.969506 0.507220 0.505242 -0.018348
C39   C     C_R   0.937751 0.523065 0.383559 -0.018305
C40   C     C_2   0.672846 0.727743 0.585271 0.452052
C41   C     C_2   0.411231 0.850224 0.712171 0.453841
C42   C     C_2   0.406588 0.113989 0.724124 0.457933
C43   C     C_2   0.496333 0.108543 0.868975 0.294023
C44   C     C_2   0.596141 0.597961 0.866355 0.471074
C45   C     C_R   0.029609 0.509065 0.503827 -0.019269
C46   C     C_2   0.433652 0.258857 0.122950 0.448807
C47   C     C_2   0.322641 0.297003 0.365435 0.512965
C48   C     C_R   0.057800 0.527406 0.380889 -0.015392
C49   C     C_R   0.025768 0.543670 0.260282 -0.150090
C50   C     C_R   0.966229 0.541293 0.261575 -0.147156
C51   C     C_R   0.121058 0.492017 0.620966 0.517362
H1    H     H_    0.952547 0.459689 0.844648 0.193496
H2    H     H_    0.046545 0.557746 0.164597 0.192983
H3    H     H_    0.942664 0.553732 0.166889 0.197537
H4    H     H_    0.220251 0.670186 0.619317 0.163059
H5    H     H_    0.324824 0.660765 0.620559 0.182561
H6    H     H_    0.209244 0.340212 0.381538 0.185101
H7    H     H_    0.782507 0.317525 0.430341 0.154343
H8    H     H_    0.627091 0.736861 0.568216 0.013438
H9    H     H_    0.393608 0.788299 0.788477 0.050274
H10   H     H_    0.376214 0.104776 0.804931 0.077018
H11   H     H_    0.483962 0.073630 0.967451 0.081457
H12   H     H_    0.677346 0.318889 0.426657 0.155018
H13   H     H_    0.585468 0.559979 0.132376 0.191620
H14   H     H_    0.588804 0.659083 0.780033 0.077057
H15   H     H_    0.367041 0.403609 0.115609 0.189413
H16   H     H_    0.479700 0.248015 0.130462 0.091349
H17   H     H_    0.368440 0.283708 0.375224 0.117688
H18   H     H_    0.787287 0.688670 0.584023 0.179448
H19   H     H_    0.529844 0.117779 0.290563 0.168433
H20   H     H_    0.529327 0.891316 0.287562 0.168937
H21   H     H_    0.491864 0.872112 0.826942 0.123244
H22   H     H_    0.056443 0.461596 0.842002 0.196418
H23   H     H_    0.365488 0.419419 0.872901 0.214052
H24   H     H_    0.424832 0.305256 0.865901 0.207277
N1    N     N_R   0.851553 0.503034 0.507868 -0.361512
N2    N     N_R   0.147699 0.510004 0.500615 -0.357458
N3    N     N_R   0.499610 0.499140 0.142800 -0.140769
N4    N     N_R   0.499610 0.499180 0.857150 -0.133597
O1    O     O_R   0.500010 0.316790 0.614690 -0.561168
O2    O     O_R   0.583850 0.500060 0.614640 -0.625675
O3    O     O_R   0.583840 0.500020 0.385300 -0.620808
O4    O     O_2   0.846638 0.536072 0.272444 -0.520571
O5    O     O_2   0.699272 0.815271 0.634243 -0.536416
O6    O     O_2   0.384787 0.866914 0.605591 -0.540656
O7    O     O_2   0.391759 0.166182 0.618862 -0.578263
O8    O     O_2   0.534669 0.186166 0.861065 -0.528365
O9    O     O_2   0.644772 0.585081 0.911950 -0.533902
O10   O     O_2   0.402655 0.170688 0.151099 -0.545980
O11   O     O_2   0.294281 0.221031 0.301694 -0.502267
O12   O     O_2   0.853412 0.470555 0.743391 -0.514703
O13   O     O_2   0.152326 0.472540 0.735594 -0.537172
O14   O     O_2   0.145502 0.548070 0.265749 -0.533774
O15   O     O_R   0.500000 0.316760 0.385350 -0.652316
O16   O     O_R   0.416160 0.499980 0.614700 -0.606522
O17   O     O_R   0.416150 0.499940 0.385360 -0.628655
O18   O     O_R   0.500000 0.683240 0.614650 -0.663453
O19   O     O_R   0.499990 0.683210 0.385310 -0.615872
Zn1   Zn    Zn3+2 0.500000 0.500020 0.653130 0.984875
Zn2   Zn    Zn3+2 0.500000 0.499980 0.346870 0.957420

loop_
_geom_bond_atom_site_label_1
_geom_bond_atom_site_label_2
_ccdc_geom_bond_type
C40   O5    D    
C5    H5    S    
C19   C20   A    
C18   C26   S    
C27   N3    A    
C20   H19   S    
C32   H24   S    
C7    C8    A    
C46   O10   D    
C27   C33   S    
C12   C23   A    
C34   C51   A    
C37   C38   A    
C21   H20   S    
C18   C24   A    
N4    Zn1   S    
C36   C37   A    
C10   H7    S    
C11   H12   S    
C32   H23   S    
C38   C39   A    
C8    H6    S    
O16   Zn1   S    
C16   O18   A    
C10   C17   A    
C18   C19   A    
C12   C37   A    
C38   C45   A    
C36   N1    A    
O18   Zn1   S    
C21   C22   A    
C4    O17   A    
C3    H4    S    
C29   N3    A    
C8    C9    A    
C33   H15   S    
C17   N1    S    
C13   C28   S    
C42   O7    D    
C29   H13   S    
C40   H8    S    
C13   C14   A    
C33   C46   S    
C30   C44   S    
C44   H14   S    
C23   H22   S    
C12   H1    S    
C26   C43   S    
C15   H18   S    
C35   N1    A    
C1    C19   S    
C28   O3    A    
C24   C25   S    
C4    C6    S    
C25   C41   S    
C25   H21   S    
C35   O4    S    
C1    O15   A    
O2    Zn1   S    
C2    C48   A    
C25   C26   S    
C27   C31   A    
C7    C47   S    
C35   C39   A    
C51   N2    A    
C29   C30   A    
C3    C9    A    
C51   O13   S    
C4    O16   A    
C31   C32   S    
O15   Zn2   S    
C23   C34   A    
C34   C45   A    
C9    N2    S    
C42   H10   S    
C30   N4    A    
C36   O12   S    
C48   C49   A    
O19   Zn2   S    
O1    Zn1   S    
N3    Zn2   S    
C47   O11   D    
C22   C24   A    
C47   H17   S    
C26   C42   S    
C45   C48   A    
C15   C17   A    
C16   C22   S    
C28   O2    A    
O3    Zn2   S    
C2    O14   S    
C41   H9    S    
C3    C5    A    
C31   N4    A    
C6    C7    A    
C41   O6    D    
C43   O8    D    
C32   C33   S    
C46   H16   S    
C50   H3    S    
C2    N2    A    
C11   C13   A    
C16   O19   A    
C5    C6    A    
C49   H2    S    
O17   Zn2   S    
C10   C11   A    
C14   C40   S    
C39   C50   A    
C20   C21   A    
C49   C50   A    
C1    O1    A    
C14   C15   A    
C44   O9    D    
C43   H11   S    
