data_mof_unit_18417.cif
_audit_creation_date              2012-12-10T19:11:33-0500
_audit_creation_method            fapswitch 2.2
_symmetry_space_group_name_H-M    P1
_symmetry_Int_Tables_number       1
_space_group_crystal_system       triclinic
_cell_length_a                    10.631353
_cell_length_b                    9.736507
_cell_length_c                    10.494823
_cell_angle_alpha                 89.993782
_cell_angle_beta                  89.491373
_cell_angle_gamma                 89.934857
_cell_volume                      1086.29915592

loop_
_atom_site_label
_atom_site_type_symbol
_atom_type_description
_atom_site_fract_x
_atom_site_fract_y
_atom_site_fract_z
_atom_type_partial_charge
C1    C     C_R   0.257769 0.499791 0.501353 0.826462
C2    C     C_3   0.498891 0.501478 0.122117 0.036400
C3    C     C_3   0.071203 0.580958 0.618459 -0.403954
C4    C     C_3   0.071816 0.349155 0.510797 -0.402156
C5    C     C_3   0.926705 0.579293 0.619256 -0.412454
C6    C     C_3   0.929125 0.349139 0.508449 -0.403046
C7    C     C_3   0.073667 0.565277 0.377437 -0.413194
C8    C     C_3   0.121485 0.498909 0.502078 0.205531
C9    C     C_3   0.879013 0.498874 0.501769 0.196381
C10   C     C_3   0.929383 0.567388 0.378323 -0.408212
C11   C     C_3   0.370178 0.081291 0.508510 -0.323675
C12   C     C_3   0.370183 0.918974 0.508650 -0.322787
C13   C     C_3   0.554820 0.081935 0.376400 0.162466
C14   C     C_3   0.554613 0.917741 0.376229 0.161633
C15   C     C_3   0.571067 0.080752 0.606403 -0.275713
C16   C     C_3   0.571164 0.919111 0.606341 -0.276337
C17   C     C_R   0.499198 0.500266 0.257176 0.864652
C18   C     C_R   0.742547 0.499707 0.500784 0.836962
C19   C     C_R   0.500673 0.499925 0.742633 0.855248
C20   C     C_3   0.471763 0.628191 0.040605 -0.146648
C21   C     C_3   0.412382 0.411558 0.042255 -0.180634
C22   C     C_3   0.385411 0.538047 0.957982 -0.189422
C23   C     C_3   0.500513 0.499791 0.877519 0.047915
C24   C     C_3   0.586847 0.590010 0.957244 -0.179716
C25   C     C_3   0.527609 0.373314 0.959051 -0.151992
C26   C     C_3   0.613946 0.463740 0.041429 -0.202233
H1    H     H_    0.292675 0.568189 0.918876 0.113626
H2    H     H_    0.896716 0.675655 0.373006 0.186561
H3    H     H_    0.893506 0.512605 0.292909 0.146810
H4    H     H_    0.311469 0.119231 0.428634 0.143163
H5    H     H_    0.311282 0.880943 0.429003 0.144618
H6    H     H_    0.324378 0.119633 0.597399 0.168877
H7    H     H_    0.324586 0.880904 0.597715 0.168160
H8    H     H_    0.491875 0.114642 0.297588 0.096352
H9    H     H_    0.491511 0.885114 0.297486 0.098705
H10   H     H_    0.668923 0.120190 0.606591 0.138546
H11   H     H_    0.669051 0.879619 0.606501 0.136530
H12   H     H_    0.528659 0.117544 0.697472 0.157854
H13   H     H_    0.528930 0.882275 0.697458 0.162650
H14   H     H_    0.448721 0.731964 0.077996 0.125096
H15   H     H_    0.341493 0.339107 0.081742 0.117916
H16   H     H_    0.657829 0.662498 0.917966 0.123284
H17   H     H_    0.550640 0.269430 0.921878 0.122391
H18   H     H_    0.707762 0.436188 0.079113 0.119899
H19   H     H_    0.104626 0.689220 0.614302 0.168011
H20   H     H_    0.107927 0.286804 0.429266 0.166279
H21   H     H_    0.106686 0.535166 0.708498 0.145793
H22   H     H_    0.104382 0.299624 0.600364 0.165182
H23   H     H_    0.891551 0.530392 0.708611 0.150368
H24   H     H_    0.892268 0.296192 0.595145 0.161945
H25   H     H_    0.891047 0.686856 0.617897 0.165126
H26   H     H_    0.898087 0.290341 0.423703 0.180040
H27   H     H_    0.109579 0.672219 0.367906 0.166511
H28   H     H_    0.108470 0.506119 0.293412 0.151132
N1    N     N_3   0.499750 0.138610 0.497240 -0.054437
N2    N     N_3   0.499750 0.861390 0.497240 -0.054933
O1    O     O_R   0.314910 0.616040 0.499970 -0.635774
O2    O     O_R   0.314910 0.383960 0.499970 -0.638043
O3    O     O_R   0.500080 0.616020 0.313900 -0.615600
O4    O     O_R   0.500080 0.383980 0.313900 -0.607976
O5    O     O_R   0.685320 0.616040 0.499930 -0.614356
O6    O     O_R   0.685320 0.383960 0.499930 -0.610519
O7    O     O_R   0.500150 0.616060 0.686000 -0.630731
O8    O     O_R   0.500150 0.383940 0.686000 -0.634031
Zn1   Zn    Zn3+2 0.500150 0.654960 0.499940 0.912764
Zn2   Zn    Zn3+2 0.500150 0.345040 0.499940 0.914856
N3    N     N_2   0.678834 0.141353 0.352797 -0.244183
H29   H     H_    0.751191 0.110290 0.410576 0.200752
C27   C     C_3   0.715933 0.173227 0.223015 -0.810677
H30   H     H_    0.781791 0.261445 0.223877 0.221794
H31   H     H_    0.633927 0.201208 0.163858 0.243873
H32   H     H_    0.765502 0.085193 0.178940 0.232066
N4    N     N_2   0.678582 0.858405 0.351214 -0.251977
H33   H     H_    0.751671 0.879251 0.411915 0.201625
C28   C     C_3   0.712460 0.818734 0.222220 -0.806817
H34   H     H_    0.811852 0.846929 0.202177 0.209003
H35   H     H_    0.651808 0.869794 0.150681 0.223231
H36   H     H_    0.704431 0.705884 0.212022 0.257190

loop_
_geom_bond_atom_site_label_1
_geom_bond_atom_site_label_2
_ccdc_geom_bond_type
C7    C10   S    
C14   N2    S    
O7    Zn1   S    
C1    C8    S    
C24   H16   S    
N4    H33   S    
C4    C8    S    
C25   H17   S    
C6    C9    S    
C26   H18   S    
C7    C8    S    
C4    H20   S    
C24   C26   S    
C13   N3    S    
C20   H14   S    
C15   C16   S    
C27   H31   S    
O2    Zn2   S    
C20   C24   S    
C11   H4    S    
C19   O7    A    
C23   C24   S    
C9    C10   S    
C16   H11   S    
O4    Zn2   S    
C21   C22   S    
C2    C17   S    
N4    C28   S    
C5    H23   S    
O6    Zn2   S    
C2    C20   S    
N3    H29   S    
C14   N4    S    
C4    C6    S    
C3    C8    S    
C14   H9    S    
C18   O6    A    
C16   H13   S    
C25   C26   S    
C3    H19   S    
N3    C27   S    
O8    Zn2   S    
C27   H32   S    
C19   C23   S    
C28   H34   S    
C16   N2    S    
C15   H12   S    
C5    C9    S    
C1    O1    A    
C19   O8    A    
C2    C21   S    
C2    C26   S    
C6    H24   S    
C28   H35   S    
C12   N2    S    
C17   O3    A    
C21   H15   S    
C20   C22   S    
C11   H6    S    
C22   H1    S    
C12   H5    S    
C7    H27   S    
C15   H10   S    
N1    Zn2   S    
C11   N1    S    
C4    H22   S    
C10   H2    S    
C21   C25   S    
O1    Zn1   S    
C3    C5    S    
C11   C12   S    
C18   O5    A    
C13   H8    S    
C1    O2    A    
O3    Zn1   S    
C10   H3    S    
C3    H21   S    
C23   C25   S    
C27   H30   S    
C28   H36   S    
C17   O4    A    
O5    Zn1   S    
C9    C18   S    
C22   C23   S    
C5    H25   S    
C7    H28   S    
C6    H26   S    
C12   H7    S    
C13   C14   S    
N2    Zn1   S    
C15   N1    S    
C13   N1    S    
