data_mof_unit_37876.cif
_audit_creation_date              2012-12-10T17:41:01-0500
_audit_creation_method            fapswitch 2.2
_symmetry_space_group_name_H-M    P1
_symmetry_Int_Tables_number       1
_space_group_crystal_system       triclinic
_cell_length_a                    14.991768
_cell_length_b                    13.708824
_cell_length_c                    11.709433
_cell_angle_alpha                 89.999961
_cell_angle_beta                  90.199599
_cell_angle_gamma                 90.000071
_cell_volume                      2406.50231778

loop_
_atom_site_label
_atom_site_type_symbol
_atom_type_description
_atom_site_fract_x
_atom_site_fract_y
_atom_site_fract_z
_atom_type_partial_charge
C1    C     C_R   0.328877 0.499995 0.499237 0.802635
C2    C     C_R   0.671123 0.499995 0.500763 0.802636
C3    C     C_R   0.905464 0.499322 0.396907 0.102608
C4    C     C_R   0.094536 0.499326 0.603093 0.102609
C5    C     C_R   0.956021 0.500779 0.711086 0.087346
C6    C     C_R   0.043979 0.500773 0.288914 0.087342
C7    C     C_R   0.049325 0.499282 0.707150 -0.250648
C8    C     C_R   0.950675 0.499275 0.292850 -0.250645
C9    C     C_R   0.443140 0.793384 0.570356 0.017695
C10   C     C_R   0.556860 0.206612 0.429645 0.018333
C11   C     C_R   0.556860 0.793384 0.429644 0.017695
C12   C     C_R   0.443140 0.206612 0.570355 0.018333
C13   C     C_R   0.558223 0.896418 0.427979 -0.007107
C14   C     C_R   0.441778 0.103576 0.572020 -0.007062
C15   C     C_R   0.441777 0.896417 0.572020 -0.007108
C16   C     C_R   0.558222 0.103576 0.427980 -0.007062
C17   C     C_R   0.500000 0.948195 0.500000 0.087652
C18   C     C_R   0.500000 0.051799 0.500000 0.087567
C19   C     C_R   0.616168 0.948702 0.356313 -0.198407
C20   C     C_R   0.383832 0.051290 0.643686 -0.198095
C21   C     C_R   0.383832 0.948701 0.643687 -0.198407
C22   C     C_R   0.616168 0.051290 0.356314 -0.198095
C23   C     C_R   0.500009 0.500005 0.283830 0.817149
C24   C     C_R   0.499991 0.500005 0.716170 0.817150
C25   C     C_1   0.500003 0.500030 0.162240 -0.190112
C26   C     C_1   0.499997 0.500030 0.837760 -0.190113
C27   C     C_1   0.500000 0.500059 0.059840 -0.007403
C28   C     C_1   0.500000 0.500059 0.940160 -0.007405
C29   C     C_R   0.812620 0.499293 0.397846 -0.240863
C30   C     C_R   0.187380 0.499298 0.602154 -0.240863
C31   C     C_R   0.767358 0.499964 0.501251 -0.044284
C32   C     C_R   0.232642 0.499964 0.498749 -0.044284
C33   C     C_R   0.813337 0.500529 0.604984 -0.254146
C34   C     C_R   0.186663 0.500524 0.395016 -0.254143
C35   C     C_R   0.907031 0.500536 0.607020 0.093768
C36   C     C_R   0.092969 0.500533 0.392980 0.093768
C37   C     C_R   0.953169 0.499861 0.501070 0.022813
C38   C     C_R   0.046831 0.499861 0.498930 0.022813
Cu1   Cu    Cu3+1 0.500000 0.597420 0.500000 0.942784
Cu2   Cu    Cu3+1 0.500000 0.402580 0.500000 0.943428
H1    H     H_    0.775231 0.498942 0.318301 0.122072
H2    H     H_    0.224769 0.498951 0.681699 0.122071
H3    H     H_    0.774729 0.500847 0.682804 0.133268
H4    H     H_    0.225270 0.500838 0.317196 0.133264
H5    H     H_    0.087306 0.499069 0.786074 0.138205
H6    H     H_    0.912694 0.499059 0.213926 0.138199
H7    H     H_    0.398781 0.752570 0.625286 0.129987
H8    H     H_    0.601219 0.247425 0.374715 0.129754
H9    H     H_    0.601219 0.752570 0.374714 0.129987
H10   H     H_    0.398781 0.247424 0.625285 0.129754
H11   H     H_    0.661503 0.910277 0.300243 0.138187
H12   H     H_    0.338496 0.089712 0.699755 0.138396
H13   H     H_    0.338496 0.910277 0.699757 0.138187
H14   H     H_    0.661503 0.089713 0.300244 0.138396
N1    N     N_R   0.500000 0.743810 0.500000 -0.183455
N2    N     N_R   0.500000 0.256190 0.500000 -0.183433
O1    O     O_R   0.370260 0.582280 0.500020 -0.581204
O2    O     O_R   0.629740 0.417720 0.499980 -0.580209
O3    O     O_R   0.629740 0.582280 0.499980 -0.581204
O4    O     O_R   0.370260 0.417720 0.500020 -0.580209
O5    O     O_R   0.500010 0.582270 0.337200 -0.576859
O6    O     O_R   0.499990 0.417730 0.662800 -0.577395
O7    O     O_R   0.499990 0.582270 0.662800 -0.576860
O8    O     O_R   0.500010 0.417730 0.337200 -0.577395
C39   C     C_3   0.912229 0.504211 0.827611 -0.413658
C40   C     C_3   0.881800 0.608187 0.856355 -0.330722
C41   C     C_3   0.841901 0.613364 0.975855 -0.860417
H15   H     H_    0.784311 0.562775 0.983188 0.255433
H16   H     H_    0.893127 0.593964 0.040640 0.248717
H17   H     H_    0.818477 0.688759 0.993078 0.245623
H18   H     H_    0.939881 0.658525 0.852240 0.223075
H19   H     H_    0.831134 0.633497 0.793613 0.222563
H20   H     H_    0.855715 0.452004 0.831835 0.192693
H21   H     H_    0.960224 0.479958 0.894537 0.191002
C42   C     C_3   0.087770 0.504205 0.172389 -0.413648
C43   C     C_3   0.118200 0.608181 0.143644 -0.330699
C44   C     C_3   0.158075 0.613361 0.024131 -0.860427
H22   H     H_    0.215650 0.562757 0.016768 0.255433
H23   H     H_    0.106829 0.593985 0.959361 0.248716
H24   H     H_    0.181514 0.688753 0.006914 0.245623
H25   H     H_    0.060123 0.658523 0.147781 0.223077
H26   H     H_    0.168879 0.633484 0.206373 0.222551
H27   H     H_    0.144285 0.451998 0.168165 0.192684
H28   H     H_    0.039775 0.479950 0.105463 0.191006

loop_
_geom_bond_atom_site_label_1
_geom_bond_atom_site_label_2
_ccdc_geom_bond_type
C21   H13   S    
Cu2   O4    S    
C14   C18   A    
Cu2   O6    S    
C6    C42   S    
C22   H14   S    
C44   H22   S    
C7    H5    S    
C35   C37   A    
C24   C26   S    
C42   H28   S    
Cu1   O1    S    
C39   H20   S    
C3    C29   A    
C40   H19   S    
Cu2   N2    S    
C16   C22   A    
C31   C33   A    
C9    N1    A    
C10   N2    A    
C40   C41   S    
C4    C7    A    
C44   H23   S    
Cu1   O5    S    
Cu1   N1    S    
Cu2   O2    S    
C13   C19   A    
C41   H15   S    
C33   H3    S    
C14   C20   A    
C19   C22   A    
C34   H4    S    
C43   C44   S    
C5    C39   S    
C3    C8    A    
C1    O4    A    
C43   H26   S    
Cu1   Cu2   S    
C5    C7    A    
C2    O3    A    
C6    C8    A    
C1    C32   S    
C39   H21   S    
C2    C31   S    
C41   H16   S    
C32   C34   A    
C42   C43   S    
C37   C38   A    
C11   H9    S    
C1    O1    A    
C40   H18   S    
C15   C21   A    
Cu1   O3    S    
C17   C18   A    
C12   N2    A    
C16   C18   A    
C23   O8    A    
C12   C14   A    
C9    H7    S    
C24   O7    A    
C10   H8    S    
C11   N1    A    
C44   H24   S    
C15   C17   A    
C24   O6    A    
C29   H1    S    
C4    C38   A    
C43   H25   S    
C12   H10   S    
C2    O2    A    
C25   C27   T    
Cu1   O7    S    
C26   C28   T    
Cu2   O8    S    
C13   C17   A    
C41   H17   S    
C36   C38   A    
C9    C15   A    
C20   H12   S    
C10   C16   A    
C30   C32   A    
C11   C13   A    
C42   H27   S    
C5    C35   A    
C33   C35   A    
C6    C36   A    
C34   C36   A    
C23   C25   S    
C8    H6    S    
C19   H11   S    
C23   O5    A    
C20   C21   A    
C3    C37   A    
C29   C31   A    
C39   C40   S    
C27   C28   S    
C30   H2    S    
C4    C30   A    
