data_mof_unit_19011.cif
_audit_creation_date              2012-12-10T18:04:02-0500
_audit_creation_method            fapswitch 2.2
_symmetry_space_group_name_H-M    P1
_symmetry_Int_Tables_number       1
_space_group_crystal_system       triclinic
_cell_length_a                    10.884342
_cell_length_b                    9.587904
_cell_length_c                    10.823233
_cell_angle_alpha                 90.068699
_cell_angle_beta                  92.591503
_cell_angle_gamma                 89.8074
_cell_volume                      1128.32909198

loop_
_atom_site_label
_atom_site_type_symbol
_atom_type_description
_atom_site_fract_x
_atom_site_fract_y
_atom_site_fract_z
_atom_type_partial_charge
C1    C     C_R   0.262421 0.500867 0.505108 0.805773
C2    C     C_R   0.737347 0.500348 0.494138 0.794666
C3    C     C_R   0.416643 0.072119 0.425716 0.319300
C4    C     C_R   0.584237 0.071841 0.573261 0.316263
C5    C     C_R   0.420152 0.923298 0.423209 0.407267
C6    C     C_R   0.581480 0.922973 0.575018 0.418403
C7    C     C_R   0.498678 0.500088 0.262500 0.798194
C8    C     C_R   0.499583 0.500042 0.737474 0.794400
C9    C     C_R   0.517651 0.622941 0.064992 0.111126
C10   C     C_R   0.520832 0.621523 0.937745 0.063455
C11   C     C_R   0.490590 0.501316 0.128964 -0.109640
C12   C     C_R   0.492482 0.500666 0.870475 -0.085847
C13   C     C_R   0.450955 0.382700 0.062114 -0.208031
C14   C     C_R   0.451417 0.382596 0.933204 -0.206657
C15   C     C_3   0.632285 0.713468 0.938081 -0.035694
C16   C     C_3   0.628205 0.715566 0.079019 -0.080209
C17   C     C_R   0.063972 0.377761 0.504882 -0.218586
C18   C     C_R   0.936752 0.377373 0.501392 -0.220077
C19   C     C_R   0.871284 0.502887 0.488741 -0.082882
C20   C     C_R   0.128109 0.504252 0.508903 -0.080972
C21   C     C_R   0.935701 0.630291 0.478611 0.174585
C22   C     C_R   0.061919 0.632078 0.509488 0.170615
Cu1   Cu    Cu3+1 0.500000 0.640660 0.500000 1.009236
Cu2   Cu    Cu3+1 0.500000 0.359340 0.500000 0.947631
H1    H     H_    0.423268 0.289053 0.109179 0.173344
H2    H     H_    0.423491 0.289119 0.883290 0.169666
H3    H     H_    0.612027 0.815722 0.893132 0.201852
H4    H     H_    0.707585 0.663721 0.128872 0.167264
H5    H     H_    0.111994 0.278587 0.507582 0.194885
H6    H     H_    0.889789 0.278216 0.506139 0.196777
N1    N     N_R   0.500000 0.852070 0.500000 -0.239210
N2    N     N_R   0.500000 0.147940 0.500000 -0.276081
O1    O     O_R   0.319640 0.618740 0.499990 -0.534647
O2    O     O_R   0.680360 0.618740 0.500010 -0.536993
O3    O     O_R   0.319620 0.381170 0.499990 -0.593812
O4    O     O_R   0.680380 0.381170 0.500010 -0.590991
O5    O     O_R   0.499990 0.618810 0.319660 -0.532487
O6    O     O_R   0.500010 0.618810 0.680340 -0.538803
O7    O     O_R   0.499960 0.381240 0.319650 -0.613400
O8    O     O_R   0.500040 0.381240 0.680350 -0.614057
C23   C     C_3   0.747801 0.641705 0.891848 -0.836143
H7    H     H_    0.829283 0.708067 0.913788 0.239083
H8    H     H_    0.762582 0.538057 0.936105 0.231409
H9    H     H_    0.739127 0.627073 0.790156 0.267439
C24   C     C_3   0.598627 0.859525 0.131542 -0.828678
H10   H     H_    0.674865 0.932380 0.113700 0.232739
H11   H     H_    0.511703 0.902410 0.088828 0.241094
H12   H     H_    0.589934 0.852240 0.232970 0.258981
C25   C     C_3   0.875416 0.761397 0.425351 -0.810509
H13   H     H_    0.806709 0.735182 0.350009 0.225511
H14   H     H_    0.832129 0.821926 0.499004 0.271357
H15   H     H_    0.943562 0.829351 0.381726 0.226249
C26   C     C_3   0.119940 0.768472 0.552302 -0.799005
H16   H     H_    0.186528 0.751004 0.631582 0.230484
H17   H     H_    0.164641 0.819871 0.474830 0.276207
H18   H     H_    0.050360 0.841614 0.587576 0.222779
O9    O     O_3   0.324698 0.134814 0.353785 -0.768397
H19   H     H_    0.345594 0.231932 0.339376 0.383508
O10   O     O_3   0.676168 0.134423 0.644936 -0.767975
H20   H     H_    0.654559 0.231360 0.660229 0.387328
O11   O     O_3   0.345304 0.846573 0.342422 -0.696255
H21   H     H_    0.299648 0.908951 0.283765 0.345898
O12   O     O_3   0.660247 0.845737 0.651660 -0.712685
H22   H     H_    0.714092 0.907638 0.703082 0.343954

loop_
_geom_bond_atom_site_label_1
_geom_bond_atom_site_label_2
_ccdc_geom_bond_type
C16   C24   S    
C16   H4    S    
Cu1   O1    S    
Cu1   Cu2   S    
Cu2   N2    S    
C18   H6    S    
C13   C14   A    
Cu1   O6    S    
C17   H5    S    
C23   H7    S    
C23   H8    S    
C15   H3    S    
O11   H21   S    
Cu1   O5    S    
C8    C12   S    
Cu1   O2    S    
C2    O2    A    
C25   H14   S    
C21   C25   S    
C6    N1    A    
C7    O5    A    
C1    O1    A    
O10   H20   S    
Cu2   O4    S    
C24   H10   S    
C14   H2    S    
C26   H18   S    
C7    C11   S    
C9    C11   A    
C13   H1    S    
O9    H19   S    
C4    N2    A    
C10   C12   A    
C8    O6    A    
C3    O9    S    
C4    O10   S    
C21   C22   A    
C19   C21   A    
C9    C16   S    
C12   C14   A    
C17   C18   A    
C22   C26   S    
C10   C15   S    
C26   H17   S    
C3    N2    A    
C23   H9    S    
C24   H12   S    
Cu2   O3    S    
C15   C23   S    
C5    O11   S    
O12   H22   S    
C11   C13   A    
Cu2   O7    S    
C1    O3    A    
C6    O12   S    
C18   C19   A    
C9    C10   A    
C24   H11   S    
C2    O4    A    
C25   H13   S    
C7    O7    A    
C1    C20   S    
C5    N1    A    
C8    O8    A    
Cu2   O8    S    
C2    C19   S    
C26   H16   S    
C4    C6    A    
C17   C20   A    
C15   C16   S    
C25   H15   S    
C20   C22   A    
C3    C5    A    
Cu1   N1    S    
