data_mof_unit_51616.cif
_audit_creation_date              2013-03-05T16:06:55-0500
_audit_creation_method            fapswitch 2.2
_symmetry_space_group_name_H-M    P1
_symmetry_Int_Tables_number       1
_space_group_crystal_system       triclinic
_cell_length_a                    10.964702
_cell_length_b                    9.650059
_cell_length_c                    10.955688
_cell_angle_alpha                 89.234942
_cell_angle_beta                  93.775942
_cell_angle_gamma                 89.998454
_cell_volume                      1156.60155697

loop_
_atom_site_label
_atom_site_type_symbol
_atom_site_description
_atom_site_fract_x
_atom_site_fract_y
_atom_site_fract_z
_atom_type_partial_charge
O1    O     O_R   0.319640 0.618740 0.499990 -0.615599
O2    O     O_R   0.680360 0.618740 0.500010 -0.582752
O3    O     O_R   0.319620 0.381170 0.499990 -0.491357
O4    O     O_R   0.680380 0.381170 0.500010 -0.478474
C1    C     C_R   0.263057 0.498552 0.509120 0.833412
C2    C     C_R   0.737110 0.500036 0.489927 0.850479
O5    O     O_R   0.499990 0.618810 0.319660 -0.631004
O6    O     O_R   0.500010 0.618810 0.680340 -0.603453
O7    O     O_R   0.499960 0.381240 0.319650 -0.482558
O8    O     O_R   0.500040 0.381240 0.680350 -0.476814
C3    C     C_R   0.501256 0.499921 0.262284 0.839218
C4    C     C_R   0.488677 0.498305 0.736277 0.820470
Cu1   Cu    Cu3+1 0.500000 0.640660 0.500000 0.937704
Cu2   Cu    Cu3+1 0.500000 0.359340 0.500000 1.147044
C5    C     C_R   0.455703 0.613331 0.058820 0.002275
C6    C     C_R   0.439440 0.610434 0.932275 -0.004566
C7    C     C_R   0.491950 0.495651 0.127777 -0.229527
C8    C     C_R   0.467163 0.491613 0.868030 -0.273077
C9    C     C_R   0.502893 0.369085 0.064126 0.353032
C10   C     C_R   0.479977 0.366169 0.936445 0.374084
C11   C     C_3   0.479343 0.756504 0.916168 -0.046366
C12   C     C_3   0.506636 0.758131 0.054643 -0.010693
H1    H     H_    0.561237 0.761836 0.864183 0.178247
H2    H     H_    0.452383 0.832259 0.103925 0.160786
C13   C     C_R   0.062696 0.367727 0.500882 0.352094
C14   C     C_R   0.935670 0.371029 0.478865 0.345818
C15   C     C_R   0.872078 0.498767 0.481613 -0.231220
C16   C     C_R   0.128856 0.492796 0.518264 -0.204956
C17   C     C_R   0.941449 0.623093 0.492254 0.041714
C18   C     C_R   0.063399 0.614646 0.537205 0.068460
C19   C     C_R   0.422525 0.076549 0.421195 0.501700
C20   C     C_R   0.579112 0.076149 0.577245 0.414258
C21   C     C_R   0.419665 0.928647 0.422310 0.112180
C22   C     C_R   0.583307 0.927071 0.578036 0.079843
N1    N     N_R   0.500000 0.852070 0.500000 -0.213897
N2    N     N_R   0.500000 0.147940 0.500000 -0.230776
Cl1   Cl    Cl    0.563369 0.215418 0.136012 -0.518161
Cl2   Cl    Cl    0.463692 0.202623 0.867987 -0.556641
C23   C     C_3   0.376744 0.850078 0.857672 -0.333891
C24   C     C_3   0.281911 0.902381 0.942775 -0.748818
H3    H     H_    0.246372 0.815847 0.998002 0.225221
H4    H     H_    0.322146 0.983146 0.004362 0.295064
H5    H     H_    0.204357 0.950431 0.887199 0.261555
H6    H     H_    0.419388 0.939807 0.813624 0.256869
H7    H     H_    0.329422 0.792876 0.781903 0.213660
C25   C     C_3   0.643988 0.773071 0.091342 -0.365352
C26   C     C_3   0.727104 0.656917 0.048112 -0.836091
H8    H     H_    0.724461 0.564632 0.109155 0.257773
H9    H     H_    0.700967 0.622583 0.954330 0.247203
H10   H     H_    0.822899 0.694248 0.049415 0.250148
H11   H     H_    0.675423 0.873827 0.054393 0.246361
H12   H     H_    0.653108 0.779733 0.192272 0.227223
Cl3   Cl    Cl    0.131277 0.203078 0.528442 -0.539076
Cl4   Cl    Cl    0.862533 0.214109 0.432608 -0.508628
C27   C     C_3   0.897896 0.761195 0.435999 -0.365201
C28   C     C_3   0.884120 0.748502 0.298361 -0.816650
H13   H     H_    0.971152 0.717497 0.260348 0.246759
H14   H     H_    0.816233 0.666586 0.276799 0.259722
H15   H     H_    0.853907 0.849078 0.256254 0.274667
H16   H     H_    0.811539 0.799379 0.469016 0.252322
H17   H     H_    0.964227 0.845609 0.456545 0.232550
C29   C     C_3   0.106696 0.712629 0.638093 -0.402203
C30   C     C_3   0.109489 0.637023 0.761885 -0.809856
H18   H     H_    0.022380 0.580454 0.772192 0.262962
H19   H     H_    0.186778 0.562358 0.770779 0.255741
H20   H     H_    0.120163 0.712536 0.836846 0.248146
H21   H     H_    0.197434 0.755915 0.622526 0.229679
H22   H     H_    0.044018 0.802302 0.643715 0.218447
Cl5   Cl    Cl    0.325483 0.170239 0.314220 -0.528064
Cl6   Cl    Cl    0.679195 0.174238 0.677404 -0.525975
C31   C     C_3   0.324722 0.861391 0.335122 -0.344158
C32   C     C_3   0.194675 0.884587 0.372279 -0.723215
H23   H     H_    0.144284 0.785927 0.362765 0.224520
H24   H     H_    0.193199 0.919262 0.468224 0.274936
H25   H     H_    0.146153 0.962561 0.311441 0.298681
H26   H     H_    0.332034 0.904276 0.241718 0.195406
H27   H     H_    0.336763 0.750718 0.325248 0.250397
C33   C     C_3   0.683459 0.874907 0.676653 -0.259025
C34   C     C_3   0.747648 0.738163 0.716137 -0.781065
H28   H     H_    0.693817 0.646176 0.731657 0.263194
H29   H     H_    0.821265 0.712316 0.658359 0.242012
H30   H     H_    0.798229 0.756484 0.805706 0.209179
H31   H     H_    0.766216 0.934029 0.653840 0.226592
H32   H     H_    0.655677 0.918522 0.763879 0.209348

loop_
_geom_bond_atom_site_label_1
_geom_bond_atom_site_label_2
_geom_bond_distance
_ccdc_geom_bond_type
C27   C28   1.512150 S    
C30   H19   1.110867 S    
C6    C11   1.487631 S    
C15   C17   1.422557 A    
C9    C10   1.405500 A    
C26   H9    1.103572 S    
C13   C16   1.416741 A    
O5    C3    1.316051 A    
C14   C15   1.417845 A    
C17   C18   1.396189 A    
C29   H21   1.101776 S    
O1    C1    1.321067 A    
C20   N2    1.355062 A    
C13   Cl3   1.771540 S    
Cu1   N1    2.040119 S    
Cu2   N2    2.040022 S    
C31   H26   1.106498 S    
C5    C6    1.386765 A    
C25   H12   1.106415 S    
C28   H13   1.108721 S    
C22   N1    1.415214 A    
O2    Cu1   1.988860 S    
C9    Cl1   1.777329 S    
C7    C9    1.423445 A    
C33   H31   1.112402 S    
C5    C12   1.506050 S    
C2    C15   1.488723 S    
C19   C21   1.427518 A    
Cu1   Cu2   2.714755 S    
C23   H7    1.103866 S    
C24   H4    1.110042 S    
C30   H20   1.105662 S    
C27   H16   1.100843 S    
O2    C2    1.312999 A    
C32   H25   1.110572 S    
C14   Cl4   1.777637 S    
C26   H10   1.109692 S    
C24   H5    1.110446 S    
C11   H1    1.095396 S    
C32   H24   1.108497 S    
O8    Cu2   1.989903 S    
C23   C24   1.531503 S    
C34   H29   1.089020 S    
C33   C34   1.538958 S    
C20   Cl6   1.781445 S    
C17   C27   1.524204 S    
C13   C14   1.398093 A    
C25   H11   1.111715 S    
C34   H28   1.083737 S    
C20   C22   1.439235 A    
O7    Cu2   1.984293 S    
C29   C30   1.529940 S    
C1    C16   1.482448 S    
C10   Cl2   1.760454 S    
C26   H8    1.108074 S    
C11   C23   1.543106 S    
C19   Cl5   1.769338 S    
O6    C4    1.316926 A    
O7    C3    1.299540 A    
O3    Cu2   1.988987 S    
O8    C4    1.302176 A    
O4    C2    1.311707 A    
C24   H3    1.110327 S    
C12   C25   1.540243 S    
C18   C29   1.516554 S    
C12   H2    1.099853 S    
O1    Cu1   1.988873 S    
C31   H27   1.083847 S    
C5    C7    1.398515 A    
C25   C26   1.543454 S    
C3    C7    1.471554 S    
C32   H23   1.103484 S    
O3    C1    1.299579 A    
C34   H30   1.111191 S    
C23   H6    1.104469 S    
C28   H15   1.110156 S    
C29   H22   1.109904 S    
C16   C18   1.402459 A    
C31   C32   1.525767 S    
C22   C33   1.567090 S    
C27   H17   1.107505 S    
C21   N1    1.389548 A    
C28   H14   1.103003 S    
C8    C10   1.417329 A    
O4    Cu2   1.988998 S    
C21   C31   1.517565 S    
C30   H18   1.111571 S    
O6    Cu1   1.984160 S    
C33   H32   1.110063 S    
O5    Cu1   1.989759 S    
C6    C8    1.397240 A    
C4    C8    1.478416 S    
C19   N2    1.364173 A    
C11   C12   1.527162 S    
