data_mof_unit_13885.cif
_audit_creation_date              2013-03-05T15:58:17-0500
_audit_creation_method            fapswitch 2.2
_symmetry_space_group_name_H-M    P1
_symmetry_Int_Tables_number       1
_space_group_crystal_system       triclinic
_cell_length_a                    14.831513
_cell_length_b                    14.854371
_cell_length_c                    15.167225
_cell_angle_alpha                 110.358866
_cell_angle_beta                  109.273349
_cell_angle_gamma                 108.600096
_cell_volume                      2577.59000469

loop_
_atom_site_label
_atom_site_type_symbol
_atom_site_description
_atom_site_fract_x
_atom_site_fract_y
_atom_site_fract_z
_atom_type_partial_charge
C1    C     C_R   0.974585 0.248373 0.061741 -0.114640
C2    C     C_R   0.094425 0.806989 0.009701 -0.144740
H1    H     H_    0.938714 0.234386 0.109966 0.095107
H2    H     H_    0.153617 0.834748 0.985386 0.103058
N1    N     N_R   0.947560 0.293820 0.002910 -0.044350
N2    N     N_R   0.052440 0.706180 0.997090 -0.049855
C3    C     C_R   0.315923 0.760124 0.225262 -0.119309
C4    C     C_R   0.705422 0.193574 0.794753 -0.134153
H3    H     H_    0.381281 0.776314 0.206161 0.094228
H4    H     H_    0.658659 0.166921 0.830891 0.089566
N3    N     N_R   0.208960 0.706170 0.152110 -0.038759
N4    N     N_R   0.791040 0.293830 0.847890 -0.044646
C5    C     C_R   0.211933 0.410371 0.904094 0.692162
C6    C     C_R   0.774344 0.590939 0.022912 0.725983
N5    N     N_R   0.154330 0.443160 0.946140 -0.108873
N6    N     N_R   0.845670 0.556840 0.053860 -0.100507
C7    C     C_R   0.998875 0.590970 0.300276 -0.118533
C8    C     C_R   0.942982 0.409326 0.686129 -0.042281
H5    H     H_    0.022538 0.674991 0.354252 0.113494
H6    H     H_    0.898964 0.324965 0.620455 0.104067
N7    N     N_R   0.002190 0.556820 0.208880 -0.048209
N8    N     N_R   0.997810 0.443180 0.791120 -0.048201
C9    C     C_R   0.301381 0.592827 0.996779 -0.263652
C10   C     C_R   0.684362 0.407547 0.932153 -0.171539
H7    H     H_    0.355281 0.677878 0.025249 0.139746
H8    H     H_    0.620863 0.322225 0.881775 0.122936
N9    N     N_R   0.210550 0.556810 0.002910 -0.068861
N10   N     N_R   0.789450 0.443190 0.997090 -0.065521
C11   C     C_R   0.914179 0.407555 0.211405 -0.134478
C12   C     C_R   0.025414 0.593750 0.782012 -0.130875
H9    H     H_    0.863758 0.322382 0.184323 0.107880
H10   H     H_    0.051186 0.678870 0.806213 0.120234
N11   N     N_R   0.945970 0.443180 0.152110 -0.040122
N12   N     N_R   0.054030 0.556820 0.847890 -0.043544
C13   C     C_R   0.220202 0.751625 0.312659 -0.127404
C14   C     C_R   0.793861 0.195667 0.701960 -0.141125
H11   H     H_    0.193906 0.750611 0.369983 0.122022
H12   H     H_    0.826538 0.174666 0.649625 0.140132
N13   N     N_R   0.151530 0.706170 0.208880 -0.050994
N14   N     N_R   0.848470 0.293830 0.791120 -0.048489
C15   C     C_R   0.070085 0.252369 0.974251 -0.139416
C16   C     C_R   0.004998 0.804911 0.101013 -0.013773
H13   H     H_    0.126510 0.248145 0.945646 0.171769
H14   H     H_    0.988278 0.828925 0.166025 0.164127
N15   N     N_R   0.004980 0.293810 0.946140 -0.040380
N16   N     N_R   0.995020 0.706190 0.053860 -0.062439
C17   C     C_R   0.054404 0.223807 0.048421 0.039953
C18   C     C_R   0.066911 0.871824 0.076256 0.014076
C19   C     C_R   0.325062 0.789976 0.327620 0.053860
C20   C     C_R   0.705260 0.128114 0.703263 0.064245
C21   C     C_R   0.302186 0.502392 0.932841 -0.089574
C22   C     C_R   0.672953 0.499595 0.947042 -0.121517
C23   C     C_R   0.946158 0.499089 0.304611 0.084537
C24   C     C_R   0.961853 0.503981 0.679486 0.035672
H15   H     H_    0.321694 0.130425 0.798484 0.101707
H16   H     H_    0.763914 0.855332 0.266315 0.105785
C25   C     C_R   0.176301 0.044487 0.090962 -0.216550
C26   C     C_R   0.067041 0.142357 0.164884 -0.211190
C27   C     C_R   0.182629 0.052457 0.813546 -0.090860
C28   C     C_R   0.935253 0.946235 0.318555 -0.105398
H17   H     H_    0.133446 0.987211 0.730074 0.093921
H18   H     H_    0.962835 0.940421 0.390714 0.116616
Ni1   Ni    Ni4+2 0.869690 0.369690 0.000000 0.212004
Ni2   Ni    Ni4+2 0.130310 0.630310 0.000000 0.204706
Ni3   Ni    Ni4+2 0.001390 0.369680 0.869810 0.262387
Ni4   Ni    Ni4+2 0.998610 0.630320 0.130190 0.236343
C29   C     C_R   0.140466 0.054098 0.883258 -0.180105
C30   C     C_R   0.011782 0.001257 0.295333 -0.194362
H19   H     H_    0.434377 0.276618 0.992527 0.130647
H20   H     H_    0.700347 0.866229 0.099218 0.083824
H21   H     H_    0.551500 0.069817 0.997854 0.121887
H22   H     H_    0.445306 0.872711 0.934235 0.115527
C31   C     C_R   0.619516 0.244195 0.097673 -0.239781
C32   C     C_R   0.338198 0.707178 0.799367 -0.229106
H23   H     H_    0.577103 0.251511 0.029768 0.143497
H24   H     H_    0.401020 0.683890 0.818447 0.155983
C33   C     C_R   0.688744 0.337363 0.202437 0.372329
C34   C     C_R   0.232612 0.629907 0.709861 0.388979
C35   C     C_R   0.753027 0.326420 0.286748 -0.059202
C36   C     C_R   0.151999 0.663308 0.687002 -0.046121
C37   C     C_R   0.736731 0.220966 0.266818 -0.196211
C38   C     C_R   0.180814 0.773380 0.751691 -0.241362
H25   H     H_    0.785171 0.210881 0.330143 0.135715
H26   H     H_    0.120760 0.800494 0.734238 0.127978
C39   C     C_R   0.662601 0.128595 0.163709 -0.104334
C40   C     C_R   0.285643 0.848175 0.840896 -0.086465
H27   H     H_    0.652116 0.048203 0.148844 0.104360
H28   H     H_    0.306150 0.932087 0.891288 0.126394
C41   C     C_R   0.605796 0.140624 0.078780 -0.159270
C42   C     C_R   0.364005 0.814876 0.865001 -0.168852
C43   C     C_R   0.854924 0.430919 0.486871 -0.220081
C44   C     C_R   0.030496 0.585318 0.496098 -0.237318
H29   H     H_    0.788190 0.370380 0.484590 0.124295
H30   H     H_    0.101248 0.641663 0.499606 0.123598
C45   C     C_R   0.950562 0.511403 0.585307 0.106535
C46   C     C_R   0.937229 0.502982 0.397070 0.100551
C47   C     C_R   0.040677 0.588350 0.590064 0.097074
C48   C     C_R   0.847939 0.423372 0.390819 0.127453
H31   H     H_    0.059434 0.988994 0.852793 0.117012
H32   H     H_    0.098306 0.038213 0.349588 0.123209
H33   H     H_    0.440043 0.443554 0.041297 0.137384
H34   H     H_    0.528417 0.567226 0.805656 0.150180
H35   H     H_    0.361936 0.279946 0.117273 0.133513
H36   H     H_    0.834574 0.953149 0.051659 0.105437
C49   C     C_R   0.204278 0.136923 0.992908 0.098939
C50   C     C_R   0.975965 0.999449 0.196662 0.098113
C51   C     C_R   0.352094 0.215436 0.961675 -0.124762
C52   C     C_R   0.787115 0.903067 0.153425 -0.031648
H37   H     H_    0.102600 0.977356 0.560626 0.099215
H38   H     H_    0.019632 0.108173 0.565896 0.137222
C53   C     C_R   0.236170 0.025411 0.529251 -0.125664
C54   C     C_R   0.919350 0.024020 0.617150 -0.098555
H39   H     H_    0.225234 0.089735 0.517637 0.116071
H40   H     H_    0.986873 0.030168 0.679519 0.131829
C55   C     C_R   0.318658 0.004881 0.518790 -0.137976
C56   C     C_R   0.814649 0.976713 0.604224 -0.152130
H41   H     H_    0.369878 0.052346 0.496845 0.117648
H42   H     H_    0.802875 0.948815 0.658735 0.119032
C57   C     C_R   0.336340 0.924784 0.538675 0.103585
C58   C     C_R   0.727257 0.972692 0.526146 0.130742
C59   C     C_R   0.272856 0.867900 0.572313 -0.182285
C60   C     C_R   0.744675 0.010806 0.457190 -0.212991
H43   H     H_    0.287563 0.808017 0.590711 0.132874
H44   H     H_    0.678734 0.010073 0.397767 0.120010
C61   C     C_R   0.186413 0.884496 0.576555 -0.134391
C62   C     C_R   0.850304 0.060993 0.472816 -0.152378
H45   H     H_    0.133399 0.836585 0.596394 0.120476
H46   H     H_    0.864769 0.096223 0.423981 0.136350
C63   C     C_R   0.168254 0.963280 0.555293 -0.099721
C64   C     C_R   0.937687 0.068169 0.553137 -0.049892
C65   C     C_R   0.525621 0.974003 0.626889 -0.218198
C66   C     C_R   0.525031 0.867220 0.435731 -0.229756
H47   H     H_    0.522851 0.014305 0.699724 0.122928
H48   H     H_    0.525800 0.821616 0.362866 0.128107
C67   C     C_R   0.622728 0.011254 0.623459 0.047355
C68   C     C_R   0.425853 0.853654 0.433010 0.067226
C69   C     C_R   0.624554 0.948366 0.529945 0.031723
C70   C     C_R   0.426958 0.907577 0.531525 0.023591
C71   C     C_R   0.288548 0.132973 0.852488 -0.021628
C72   C     C_R   0.823009 0.897406 0.247856 -0.009318
C73   C     C_R   0.055411 0.046043 0.165288 0.021551
C74   C     C_R   0.166592 0.124709 0.067996 0.026735
H49   H     H_    0.224677 0.011105 0.066704 0.125960
H50   H     H_    0.030493 0.184070 0.201944 0.133316
C75   C     C_R   0.310496 0.217778 0.032120 -0.153208
C76   C     C_R   0.863255 0.952722 0.127025 -0.103175
C77   C     C_R   0.104408 0.990588 0.118781 0.058517
C78   C     C_R   0.103041 0.169164 0.098249 0.064248
C79   C     C_3   0.464820 0.399467 0.886821 -0.168283
C80   C     C_3   0.499297 0.606544 0.956973 -0.219336
C81   C     C_3   0.398472 0.436252 0.819284 -0.051925
C82   C     C_3   0.564677 0.569441 0.023995 -0.017960
H51   H     H_    0.327523 0.381624 0.735706 0.179772
H52   H     H_    0.633016 0.624237 0.109018 0.171764
H53   H     H_    0.451386 0.314277 0.855808 0.112613
H54   H     H_    0.511881 0.691540 0.986258 0.114775
C83   C     C_3   0.394308 0.504442 0.918747 0.172401
C84   C     C_3   0.570463 0.500994 0.925442 0.185601
C85   C     C_3   0.459506 0.467981 0.985760 -0.124297
C86   C     C_3   0.506551 0.538463 0.857874 -0.137772
N17   N     N_R   0.695429 0.441804 0.221230 0.222231
O1    O     O_R   0.663327 0.458774 0.140689 -0.466307
O2    O     O_R   0.722148 0.516015 0.316465 -0.417251
N18   N     N_R   0.210945 0.520732 0.642164 0.226459
O3    O     O_R   0.290725 0.504772 0.636671 -0.436702
O4    O     O_R   0.113895 0.435704 0.591121 -0.422262
F1    F     F_    0.173334 0.306363 0.825545 -0.734017
F2    F     F_    0.795316 0.696361 0.068781 -0.753545

loop_
_geom_bond_atom_site_label_1
_geom_bond_atom_site_label_2
_geom_bond_distance
_ccdc_geom_bond_type
C10   C22   1.380996 A    
C34   N18   1.441761 S    
C80   C83   1.531900 S    
C7    C23   1.376247 A    
N7    Ni4   1.876464 S    
C31   H23   1.077993 S    
C35   C48   1.485054 S    
C2    H2    1.079524 S    
C54   H40   1.078098 S    
N17   O1    1.299754 A    
H19   C51   1.074157 S    
C3    N3    1.341009 A    
C12   C24   1.368403 A    
C32   H24   1.081127 S    
C25   C74   1.388251 A    
C1    N1    1.329760 A    
C81   C83   1.530951 S    
N18   O3    1.301350 A    
C13   H11   1.066525 S    
C36   C47   1.487672 S    
C10   H8    1.080187 S    
N16   Ni4   1.875820 S    
C65   C67   1.394377 A    
C20   C67   1.476881 S    
C79   C81   1.543772 S    
C51   C75   1.395150 A    
C26   C78   1.402044 A    
C5    F1    1.356046 S    
N7    N11   1.379486 A    
C62   C64   1.397992 A    
N5    Ni3   1.866745 S    
C18   C77   1.477567 S    
C11   N11   1.327811 A    
C44   C46   1.391495 A    
H15   C71   1.081731 S    
N1    Ni1   1.853977 S    
C28   H18   1.079522 S    
C16   N16   1.321283 A    
N2    Ni2   1.853976 S    
C27   C29   1.392080 A    
C5    C21   1.372280 A    
C9    C21   1.362583 A    
C53   C63   1.394877 A    
C6    C22   1.377037 A    
C55   H41   1.083287 S    
C46   C48   1.414667 A    
C13   C19   1.380815 A    
C62   H46   1.082367 S    
C6    N6    1.332453 A    
C9    N9    1.329377 A    
C4    N4    1.327689 A    
C79   C84   1.531204 S    
C8    H6    1.081226 S    
N6    N10   1.379607 A    
C29   H31   1.083601 S    
C60   C62   1.397563 A    
C39   H27   1.082646 S    
C82   C85   1.528354 S    
C83   C85   1.526371 S    
C80   H54   1.109477 S    
C23   C46   1.434769 S    
C84   C86   1.533206 S    
C15   H13   1.070875 S    
C81   H51   1.109799 S    
C2    N2    1.339384 A    
C16   H14   1.064965 S    
C30   C50   1.400262 A    
C44   H30   1.084614 S    
N17   O2    1.301610 A    
C58   C60   1.406487 A    
C44   C47   1.365631 A    
C52   C76   1.397240 A    
C33   C35   1.417492 A    
C33   N17   1.439961 S    
N8    N12   1.379485 A    
C82   C84   1.535693 S    
N11   Ni1   1.879090 S    
C27   H17   1.076959 S    
C12   N12   1.315067 A    
C73   C77   1.421319 A    
H36   C76   1.083250 S    
C14   N14   1.327586 A    
C3    C19   1.403197 A    
C22   C84   1.454146 S    
C36   C38   1.407077 A    
N3    Ni2   1.878598 S    
C40   C42   1.393253 A    
H34   C86   1.109786 S    
C49   C74   1.463441 S    
C52   C72   1.396731 A    
N4    Ni1   1.878599 S    
C25   H49   1.081824 S    
C29   C49   1.403464 A    
C2    C18   1.399733 A    
C66   C69   1.395622 A    
C38   C40   1.394890 A    
N1    N15   1.396685 A    
C21   C83   1.443681 S    
C7    N7    1.323997 A    
C56   C58   1.405023 A    
C1    H1    1.073939 S    
N4    N14   1.396810 A    
C13   N13   1.316946 A    
C30   H32   1.079118 S    
N8    Ni3   1.876465 S    
C59   C61   1.397738 A    
C74   C78   1.416620 A    
C43   H29   1.085110 S    
H22   C42   1.081809 S    
N5    N9    1.379608 A    
H21   C41   1.081767 S    
C27   C71   1.394464 A    
C66   C68   1.403950 A    
C49   C75   1.398389 A    
C3    H3    1.080087 S    
N12   Ni2   1.879091 S    
C15   C17   1.393369 A    
C34   C36   1.421379 A    
C53   H39   1.080471 S    
C16   C18   1.370117 A    
C15   N15   1.335336 A    
N3    N13   1.396809 A    
C79   C85   1.536395 S    
C28   C30   1.397428 A    
C24   C45   1.429707 S    
C57   C59   1.403701 A    
C80   C86   1.553058 S    
C28   C72   1.399071 A    
C66   H48   1.082933 S    
C68   C70   1.420286 A    
C19   C68   1.467314 S    
C82   H52   1.110550 S    
C38   H26   1.083047 S    
N14   Ni3   1.866847 S    
C25   C77   1.394089 A    
N15   Ni3   1.875820 S    
N13   Ni4   1.866850 S    
C80   C82   1.535394 S    
N6    Ni4   1.866743 S    
C60   H44   1.083228 S    
C14   H12   1.067896 S    
C4    C20   1.388720 A    
C54   C56   1.396673 A    
C14   C20   1.387051 A    
H35   C75   1.083103 S    
C50   C73   1.474097 S    
C35   C37   1.408672 A    
C67   C69   1.415865 A    
C17   C78   1.480133 S    
C39   C41   1.393131 A    
N2    N16   1.396686 A    
C8    N8    1.333070 A    
C57   C70   1.476310 S    
C1    C17   1.399144 A    
C10   N10   1.333041 A    
C65   H47   1.079796 S    
C37   H25   1.083662 S    
C45   C47   1.415074 A    
C55   C57   1.404224 A    
C50   C76   1.405678 A    
C81   C86   1.557903 S    
C32   C42   1.395193 A    
C5    N5    1.335227 A    
C79   H53   1.106980 S    
C31   C41   1.394805 A    
C11   H9    1.077372 S    
C65   C70   1.376825 A    
H20   C52   1.082015 S    
C12   H10   1.075019 S    
C26   C73   1.387812 A    
C11   C23   1.371384 A    
H16   C72   1.082366 S    
N18   O4    1.300288 A    
C7    H5    1.082151 S    
C56   H42   1.083213 S    
H38   C64   1.082436 S    
C40   H28   1.082663 S    
C26   H50   1.080173 S    
C9    H7    1.081622 S    
C43   C48   1.387436 A    
C51   C71   1.397490 A    
C59   H43   1.083047 S    
N9    Ni2   1.854181 S    
C8    C24   1.389805 A    
C43   C45   1.395920 A    
N10   Ni1   1.854178 S    
C61   C63   1.397294 A    
H33   C85   1.109454 S    
C4    H4    1.079347 S    
C32   C34   1.406594 A    
C61   H45   1.078650 S    
C31   C33   1.407405 A    
C53   C55   1.395501 A    
C58   C69   1.474939 S    
C54   C64   1.396524 A    
H37   C63   1.081005 S    
C6    F2    1.349601 S    
C37   C39   1.395259 A    
