data_mof_unit_44090.cif
_audit_creation_date              2012-12-10T17:57:26-0500
_audit_creation_method            fapswitch 2.2
_symmetry_space_group_name_H-M    P1
_symmetry_Int_Tables_number       1
_space_group_crystal_system       triclinic
_cell_length_a                    9.500063
_cell_length_b                    10.837934
_cell_length_c                    13.491307
_cell_angle_alpha                 90.120671
_cell_angle_beta                  72.372623
_cell_angle_gamma                 90.277944
_cell_volume                      1323.84062719

loop_
_atom_site_label
_atom_site_type_symbol
_atom_type_description
_atom_site_fract_x
_atom_site_fract_y
_atom_site_fract_z
_atom_type_partial_charge
C1    C     C_R   0.501647 0.738102 0.498114 0.812231
C2    C     C_R   0.440693 0.483040 0.976896 -0.075302
C3    C     C_R   0.470208 0.526341 0.873118 -0.043313
C4    C     C_R   0.546712 0.509970 0.029946 0.066003
C5    C     C_R   0.685962 0.562355 0.975301 0.020626
C6    C     C_R   0.708311 0.608681 0.875658 -0.137621
C7    C     C_R   0.597658 0.598721 0.828854 -0.117580
C8    C     C_R   0.515432 0.494809 0.137157 -0.233984
C9    C     C_R   0.766392 0.547276 0.129205 -0.222148
C10   C     C_R   0.372500 0.495750 0.815254 -0.334439
C11   C     C_R   0.635144 0.938278 0.493072 0.465954
C12   C     C_R   0.420789 0.503169 0.700453 0.895391
C13   C     C_R   0.629344 0.066350 0.498100 -0.263985
C14   C     C_R   0.501912 0.128670 0.495764 -0.075008
C15   C     C_R   0.377579 0.063036 0.490151 -0.180716
C16   C     C_R   0.379180 0.935526 0.490058 -0.231330
C17   C     C_R   0.505938 0.872246 0.493849 -0.114571
C18   C     C_R   0.899461 0.579871 0.561704 -0.092920
C19   C     C_R   0.047965 0.579314 0.562370 0.735202
C20   C     C_R   0.100933 0.421019 0.437305 -0.118900
C21   C     C_R   0.951900 0.420902 0.437459 -0.043189
C22   C     C_R   0.500158 0.262167 0.498967 0.817545
C23   C     C_R   0.578811 0.501891 0.300074 0.817577
C24   C     C_R   0.796741 0.576037 0.024201 0.659484
C25   C     C_R   0.623519 0.511444 0.186760 -0.176095
C26   C     C_R   0.235522 0.440486 0.865958 0.534808
C27   C     C_R   0.204348 0.400268 0.967743 0.537546
C28   C     C_R   0.309008 0.411750 0.020837 0.216088
Cu1   Cu    Cu3+1 0.359340 0.499980 0.500000 1.029488
Cu2   Cu    Cu3+1 0.640660 0.500020 0.500000 0.956099
H1    H     H_    0.851208 0.561066 0.166715 0.183581
H2    H     H_    0.724869 0.116670 0.504824 0.162958
H3    H     H_    0.278456 0.109938 0.487237 0.165474
H4    H     H_    0.280388 0.886669 0.487885 0.190220
H5    H     H_    0.822905 0.644666 0.610238 0.161364
H6    H     H_    0.178299 0.357766 0.387208 0.151354
H7    H     H_    0.916769 0.357593 0.387415 0.152989
H8    H     H_    0.808670 0.658248 0.835481 0.218256
H9    H     H_    0.403991 0.479635 0.185143 0.233872
H10   H     H_    0.613495 0.648906 0.757293 0.157722
N1    N     N_R   0.147940 0.499970 0.499970 -0.210550
N2    N     N_R   0.852060 0.500060 0.499990 -0.204531
O1    O     O_R   0.381250 0.680340 0.500010 -0.551429
O2    O     O_R   0.618820 0.680370 0.500010 -0.561597
O3    O     O_R   0.323240 0.499950 0.650980 -0.463636
O4    O     O_R   0.560810 0.499980 0.650980 -0.598709
O5    O     O_R   0.381180 0.319630 0.499990 -0.589678
O6    O     O_R   0.618750 0.319660 0.499990 -0.588958
O7    O     O_R   0.439190 0.500020 0.349020 -0.602179
O8    O     O_R   0.676760 0.500050 0.349020 -0.590441
F1    F     F_    0.090903 0.658539 0.625609 -0.642768
F2    F     F_    0.932221 0.621442 0.971537 -0.646088
F3    F     F_    0.135487 0.415793 0.814793 -0.577438
O9    O     O_3   0.278842 0.351112 0.114992 -0.595114
C29   C     C_3   0.344047 0.233053 0.098212 0.096173
H11   H     H_    0.465608 0.240199 0.060117 0.149241
H12   H     H_    0.293764 0.176276 0.048666 0.172534
C30   C     C_3   0.316696 0.168971 0.203301 -0.340456
H13   H     H_    0.368148 0.224126 0.252856 0.215555
H14   H     H_    0.195855 0.163107 0.243117 0.222039
C31   C     C_3   0.381211 0.039138 0.190697 -0.914561
H15   H     H_    0.330810 0.981917 0.141881 0.264899
H16   H     H_    0.357622 0.994949 0.268231 0.254742
H17   H     H_    0.502782 0.042994 0.154026 0.268740
F4    F     F_    0.075258 0.340017 0.013004 -0.607603
O10   O     O_3   0.760188 0.877896 0.500443 -0.599385
C32   C     C_3   0.882417 0.899410 0.410838 0.043157
H18   H     H_    0.984194 0.892359 0.434779 0.169547
H19   H     H_    0.884335 0.993325 0.376954 0.123369
C33   C     C_3   0.888986 0.801252 0.327597 -0.340926
H20   H     H_    0.892256 0.708036 0.360829 0.248169
H21   H     H_    0.788708 0.807396 0.301756 0.206352
C34   C     C_3   0.025734 0.818096 0.233624 -0.886909
H22   H     H_    0.024722 0.910303 0.198033 0.267801
H23   H     H_    0.027043 0.746216 0.174588 0.278473
H24   H     H_    0.127554 0.809040 0.257240 0.251439

loop_
_geom_bond_atom_site_label_1
_geom_bond_atom_site_label_2
_ccdc_geom_bond_type
C24   F2    S    
C22   O6    A    
C29   H11   S    
C34   H22   S    
C13   H2    S    
C4    C8    A    
C20   N1    A    
C9    C25   A    
Cu1   O7    S    
C26   C27   A    
Cu1   O5    S    
Cu2   O6    S    
C3    C7    A    
C18   N2    A    
C5    C6    A    
C23   O7    A    
C30   H14   S    
C15   C16   A    
C18   C19   A    
C31   H16   S    
C16   H4    S    
C1    O1    A    
C16   C17   A    
C7    H10   S    
C6    H8    S    
C33   H20   S    
C8    H9    S    
C18   H5    S    
C11   O10   S    
C10   C26   A    
C30   C31   S    
C22   O5    A    
Cu2   O8    S    
C13   C14   A    
Cu1   O1    S    
C8    C25   A    
C34   H23   S    
Cu2   O2    S    
C32   H18   S    
C12   O4    A    
C28   O9    S    
C12   O3    A    
C23   O8    A    
C30   H13   S    
Cu1   O3    S    
C32   H19   S    
C31   H17   S    
C2    C4    A    
Cu1   Cu2   S    
C27   F4    S    
C1    O2    A    
C33   C34   S    
C10   C12   S    
C29   H12   S    
C34   H24   S    
C26   F3    S    
O9    C29   S    
C11   C17   A    
Cu1   N1    S    
Cu2   O4    S    
C4    C5    A    
C33   H21   S    
C9    C24   A    
C6    C7    A    
C1    C17   S    
C32   C33   S    
C14   C22   S    
C2    C3    A    
C3    C10   A    
C11   C13   A    
C5    C24   A    
O10   C32   S    
C23   C25   S    
C31   H15   S    
C9    H1    S    
C21   N2    A    
C20   H6    S    
C19   F1    S    
C21   H7    S    
C20   C21   A    
C29   C30   S    
C27   C28   A    
C14   C15   A    
Cu2   N2    S    
C2    C28   A    
C15   H3    S    
C19   N1    A    
