data_mof_unit_56767.cif
_audit_creation_date              2012-12-10T18:45:06-0500
_audit_creation_method            fapswitch 2.2
_symmetry_space_group_name_H-M    P1
_symmetry_Int_Tables_number       1
_space_group_crystal_system       triclinic
_cell_length_a                    10.704312
_cell_length_b                    9.867276
_cell_length_c                    10.654936
_cell_angle_alpha                 93.150669
_cell_angle_beta                  91.767759
_cell_angle_gamma                 90.040617
_cell_volume                      1123.1607767

loop_
_atom_site_label
_atom_site_type_symbol
_atom_type_description
_atom_site_fract_x
_atom_site_fract_y
_atom_site_fract_z
_atom_type_partial_charge
C1    C     C_R   0.260758 0.500592 0.509568 0.949029
C2    C     C_R   0.740198 0.500139 0.502505 0.871552
C3    C     C_R   0.936786 0.624603 0.514138 -0.190330
C4    C     C_R   0.064788 0.624907 0.518182 -0.138184
C5    C     C_R   0.579008 0.075614 0.579478 0.390488
C6    C     C_R   0.421823 0.065940 0.420045 0.375208
C7    C     C_R   0.578530 0.932179 0.579285 -0.089251
C8    C     C_R   0.421740 0.922663 0.420572 -0.108005
C9    C     C_R   0.490933 0.496095 0.259895 0.928375
C10   C     C_R   0.492552 0.504910 0.739707 0.884780
C11   C     C_R   0.252323 0.542048 0.114976 0.360161
C12   C     C_R   0.287756 0.654758 0.884572 0.358163
C13   C     C_R   0.155742 0.611992 0.057314 -0.220973
C14   C     C_R   0.175368 0.673216 0.946073 -0.207747
C15   C     C_R   0.384452 0.572457 0.937276 -0.044734
C16   C     C_R   0.372001 0.534572 0.061839 -0.019591
C17   C     C_R   0.479091 0.485875 0.126088 -0.028639
C18   C     C_R   0.489518 0.518148 0.872935 -0.061859
C19   C     C_R   0.585555 0.445702 0.063139 -0.189950
C20   C     C_R   0.588182 0.455790 0.935695 -0.143298
C21   C     C_R   0.064780 0.378019 0.522263 -0.113134
C22   C     C_R   0.936774 0.377670 0.517688 -0.139854
C23   C     C_R   0.873027 0.500767 0.511127 -0.034953
C24   C     C_R   0.128460 0.501354 0.518950 -0.007067
H1    H     H_    0.666565 0.406655 0.112931 0.155163
H2    H     H_    0.668600 0.417049 0.885729 0.185346
H3    H     H_    0.064410 0.617926 0.098299 0.192141
H4    H     H_    0.101472 0.734116 0.906344 0.200075
H5    H     H_    0.113346 0.281833 0.524527 0.191157
H6    H     H_    0.888324 0.281228 0.517186 0.197836
H7    H     H_    0.888303 0.720786 0.511131 0.172787
H8    H     H_    0.113304 0.721233 0.517210 0.193069
H9    H     H_    0.641259 0.880762 0.642434 0.174971
H10   H     H_    0.359326 0.863735 0.357004 0.177482
N1    N     N_R   0.500000 0.857200 0.500000 -0.114111
N2    N     N_R   0.500000 0.142810 0.500000 -0.150790
O1    O     O_R   0.316770 0.614620 0.499990 -0.598221
O2    O     O_R   0.683230 0.614620 0.500010 -0.637071
O3    O     O_R   0.316800 0.385290 0.500000 -0.576802
O4    O     O_R   0.683200 0.385290 0.500000 -0.591082
O5    O     O_R   0.500010 0.614690 0.316770 -0.628421
O6    O     O_R   0.499990 0.614690 0.683230 -0.571707
O7    O     O_R   0.500040 0.385360 0.316770 -0.553572
O8    O     O_R   0.499960 0.385360 0.683230 -0.573972
Zn1   Zn    Zn3+2 0.500000 0.653120 0.500000 1.008741
Zn2   Zn    Zn3+2 0.500000 0.346880 0.500000 1.071467
Cl1   Cl    Cl    0.207514 0.434749 0.230048 -0.581679
Cl2   Cl    Cl    0.304268 0.762884 0.760404 -0.605097
Cl3   Cl    Cl    0.684428 0.164319 0.683129 -0.611644
Cl4   Cl    Cl    0.320728 0.141899 0.313113 -0.506251

loop_
_geom_bond_atom_site_label_1
_geom_bond_atom_site_label_2
_ccdc_geom_bond_type
C15   C18   A    
O4    Zn2   S    
N2    Zn2   S    
C10   O6    A    
C11   C13   A    
C11   C16   A    
C2    O2    A    
C11   Cl1   S    
C19   C20   A    
C12   C15   A    
C1    O1    A    
C12   Cl2   S    
C8    H10   S    
C21   C22   A    
C6    Cl4   S    
C3    H7    S    
C7    H9    S    
C5    Cl3   S    
C4    H8    S    
C21   H5    S    
C10   C18   S    
O3    Zn2   S    
C4    C24   A    
C10   O8    A    
C7    N1    A    
C17   C19   A    
C12   C14   A    
C18   C20   A    
C19   H1    S    
O7    Zn2   S    
C9    O7    A    
C1    O3    A    
O1    Zn1   S    
C15   C16   A    
N1    Zn1   S    
C5    N2    A    
C2    O4    A    
C1    C24   S    
C21   C24   A    
C9    C17   S    
C2    C23   S    
C5    C7    A    
O5    Zn1   S    
C22   C23   A    
C13   H3    S    
O2    Zn1   S    
C6    C8    A    
C22   H6    S    
C14   H4    S    
C3    C23   A    
C13   C14   A    
C9    O5    A    
C8    N1    A    
O8    Zn2   S    
C3    C4    A    
C6    N2    A    
C16   C17   A    
C20   H2    S    
O6    Zn1   S    
