data_mof_unit_48488.cif
_audit_creation_date              2013-03-05T16:59:36-0500
_audit_creation_method            fapswitch 2.2
_symmetry_space_group_name_H-M    P1
_symmetry_Int_Tables_number       1
_space_group_crystal_system       triclinic
_cell_length_a                    8.773617
_cell_length_b                    16.258371
_cell_length_c                    16.695822
_cell_angle_alpha                 84.425276
_cell_angle_beta                  93.684175
_cell_angle_gamma                 99.559733
_cell_volume                      2334.57889198

loop_
_atom_site_label
_atom_site_type_symbol
_atom_site_description
_atom_site_fract_x
_atom_site_fract_y
_atom_site_fract_z
_atom_type_partial_charge
O1    O     O_R   0.493140 0.422050 0.612640 -0.570194
O2    O     O_R   0.506860 0.577950 0.387360 -0.554027
O3    O     O_R   0.505450 0.562230 0.618920 -0.640258
O4    O     O_R   0.494550 0.437770 0.381080 -0.645805
C1    C     C_R   0.503271 0.486929 0.653351 1.015479
C2    C     C_R   0.497091 0.513115 0.346670 1.009926
O5    O     O_R   0.723530 0.446300 0.497600 -0.552925
O6    O     O_R   0.276470 0.553700 0.502400 -0.564742
O7    O     O_R   0.735850 0.586490 0.503880 -0.615035
O8    O     O_R   0.264150 0.413510 0.496120 -0.620805
C3    C     C_R   0.799001 0.521084 0.500000 0.963598
C4    C     C_R   0.201042 0.479098 0.499706 0.961594
Zn1   Zn    Zn3+2 0.491780 0.406400 0.495810 1.078401
Zn2   Zn    Zn3+2 0.508220 0.593600 0.504190 1.086396
C5    C     C_2   0.962642 0.533283 0.501943 0.092788
C6    C     C_2   0.037488 0.467424 0.497118 0.077262
C7    C     C_R   0.503322 0.473764 0.741123 -0.338975
C8    C     C_R   0.497112 0.526334 0.258922 -0.319625
C9    C     C_R   0.369449 0.482370 0.779234 0.127393
C10   C     C_R   0.630406 0.516732 0.220845 0.128402
C11   C     C_R   0.366356 0.470979 0.863286 0.232620
C12   C     C_R   0.633982 0.528516 0.136859 0.235597
C13   C     C_R   0.501207 0.455994 0.908880 0.116527
C14   C     C_R   0.499619 0.544047 0.091186 0.115011
C15   C     C_R   0.629806 0.438270 0.871347 -0.079510
C16   C     C_R   0.371423 0.562424 0.128627 -0.082609
C17   C     C_R   0.632734 0.449235 0.786487 0.200573
C18   C     C_R   0.368645 0.552089 0.213587 0.233777
N1    N     N_2   0.513193 0.465003 0.992462 -0.117664
N2    N     N_2   0.487803 0.535084 0.007583 -0.117395
N3    N     N_R   0.519180 0.718290 0.509780 -0.157647
N4    N     N_R   0.480820 0.281710 0.490220 -0.145098
C19   C     C_R   0.450087 0.760978 0.445888 0.389409
C20   C     C_R   0.552661 0.232808 0.549805 0.332249
C21   C     C_R   0.447703 0.848898 0.443070 -0.074464
C22   C     C_R   0.509247 0.143936 0.559039 -0.044287
C23   C     C_R   0.518391 0.893413 0.508117 0.238261
C24   C     C_R   0.435538 0.103091 0.493267 0.245970
C25   C     C_R   0.595060 0.849693 0.569685 -0.324754
C26   C     C_R   0.371972 0.151749 0.431185 -0.332853
C27   C     C_R   0.597008 0.763104 0.570179 0.171555
C28   C     C_R   0.386390 0.239595 0.432024 0.185895
N5    N     N_2   0.533911 0.982626 0.510041 -0.158556
N6    N     N_2   0.414616 0.013996 0.489820 -0.178978
H1    H     H_    0.657725 0.884241 0.617235 0.161930
H2    H     H_    0.304341 0.120324 0.383120 0.161181
N7    N     N_R   0.039558 0.617344 0.513633 0.228448
O9    O     O_R   0.002250 0.679723 0.465719 -0.345873
O10   O     O_R   0.107355 0.633297 0.583175 -0.314233
N8    N     N_R   0.960611 0.383443 0.485785 0.225775
O11   O     O_R   0.000974 0.321502 0.533041 -0.283962
O12   O     O_R   0.891876 0.367249 0.416512 -0.312615
N9    N     N_R   0.763544 0.496789 0.267851 0.256454
O13   O     O_R   0.843319 0.551288 0.312679 -0.321167
O14   O     O_R   0.799184 0.422158 0.269453 -0.293136
N10   N     N_R   0.235429 0.501042 0.732210 0.256820
O15   O     O_R   0.157568 0.446052 0.687261 -0.322321
O16   O     O_R   0.198258 0.575391 0.729884 -0.290096
N11   N     N_R   0.775730 0.530969 0.097298 0.212857
O17   O     O_R   0.812303 0.587326 0.037875 -0.431079
O18   O     O_R   0.868332 0.477340 0.119436 -0.373207
N12   N     N_R   0.224743 0.468521 0.902987 0.211725
O19   O     O_R   0.189097 0.412770 0.963015 -0.433499
O20   O     O_R   0.131745 0.521895 0.880637 -0.370764
C29   C     C_3   0.763192 0.409768 0.923219 -0.237940
C30   C     C_3   0.720578 0.317661 0.955300 -0.388017
C31   C     C_3   0.855502 0.286016 0.004106 -0.729059
H3    H     H_    0.952848 0.286402 0.964692 0.295985
H4    H     H_    0.895386 0.325704 0.054307 0.300304
H5    H     H_    0.817980 0.220746 0.029850 0.229331
H6    H     H_    0.620430 0.310324 0.994387 0.236463
H7    H     H_    0.686911 0.278466 0.904045 0.249329
H8    H     H_    0.871416 0.418815 0.890905 0.284034
H9    H     H_    0.792092 0.448943 0.973974 0.267428
C32   C     C_3   0.238603 0.591185 0.076505 -0.242325
C33   C     C_3   0.280154 0.684016 0.046720 -0.372773
C34   C     C_3   0.145993 0.715795 0.997348 -0.740300
H10   H     H_    0.108939 0.677205 0.946042 0.299155
H11   H     H_    0.046863 0.713825 0.035969 0.298226
H12   H     H_    0.183043 0.781651 0.973121 0.229028
H13   H     H_    0.310922 0.721975 0.099058 0.261418
H14   H     H_    0.382011 0.692998 0.008620 0.233750
H15   H     H_    0.212370 0.553590 0.024491 0.265616
H16   H     H_    0.129109 0.580002 0.107899 0.283045
N13   N     N_R   0.769181 0.440304 0.746919 0.247581
O21   O     O_R   0.831721 0.499705 0.695561 -0.363727
O22   O     O_R   0.830965 0.372569 0.761498 -0.297125
N14   N     N_R   0.233705 0.563327 0.253383 0.254830
O23   O     O_R   0.169885 0.629928 0.235192 -0.289215
O24   O     O_R   0.172711 0.506445 0.307455 -0.377801
N15   N     N_R   0.686943 0.267121 0.596940 0.223802
O25   O     O_R   0.706920 0.342679 0.617165 -0.283062
O26   O     O_R   0.794807 0.222178 0.618841 -0.345214
N16   N     N_R   0.385831 0.717177 0.378788 0.213852
O27   O     O_R   0.246845 0.675255 0.381094 -0.282150
O28   O     O_R   0.458441 0.727023 0.312085 -0.407588
C35   C     C_3   0.534179 0.094893 0.640379 -0.340935
C36   C     C_3   0.381428 0.047135 0.673234 -0.366631
C37   C     C_3   0.408974 0.999940 0.755090 -0.850927
H17   H     H_    0.486626 0.953477 0.749711 0.259883
H18   H     H_    0.461852 0.044260 0.799548 0.266269
H19   H     H_    0.296962 0.966182 0.777335 0.258256
H20   H     H_    0.301479 0.092188 0.679774 0.241820
H21   H     H_    0.324047 0.000978 0.631675 0.250757
H22   H     H_    0.617744 0.051471 0.635850 0.229502
H23   H     H_    0.583882 0.137745 0.686599 0.237006
C38   C     C_3   0.377248 0.893882 0.369069 -0.386325
C39   C     C_3   0.201663 0.887529 0.374357 -0.278929
C40   C     C_3   0.131492 0.934569 0.301371 -0.842382
H24   H     H_    0.182860 0.001947 0.297588 0.246975
H25   H     H_    0.152395 0.907638 0.245167 0.276292
H26   H     H_    0.004693 0.928983 0.307010 0.263981
H27   H     H_    0.146209 0.820879 0.377149 0.292260
H28   H     H_    0.175109 0.913831 0.429868 0.234275
H29   H     H_    0.432626 0.960373 0.360437 0.216127
H30   H     H_    0.401883 0.867819 0.313299 0.242321
C41   C     C_3   0.697255 0.725057 0.635732 -0.310738
C42   C     C_3   0.623339 0.716458 0.717819 -0.391916
C43   C     C_3   0.728907 0.683249 0.785194 -0.768118
H31   H     H_    0.758168 0.622492 0.771778 0.294513
H32   H     H_    0.837491 0.728582 0.792200 0.264998
H33   H     H_    0.669299 0.673921 0.842865 0.257090
H34   H     H_    0.600465 0.778402 0.732451 0.219438
H35   H     H_    0.510865 0.673608 0.715887 0.275117
H36   H     H_    0.724142 0.664612 0.621074 0.263321
H37   H     H_    0.811426 0.766543 0.639557 0.195278
C44   C     C_3   0.289955 0.281561 0.366975 -0.298490
C45   C     C_3   0.359583 0.286142 0.284040 -0.406850
C46   C     C_3   0.254167 0.320109 0.217001 -0.767027
H38   H     H_    0.142954 0.276499 0.211756 0.267690
H39   H     H_    0.229954 0.382204 0.229478 0.293727
H40   H     H_    0.311292 0.326845 0.158726 0.257406
H41   H     H_    0.474610 0.326677 0.283931 0.273795
H42   H     H_    0.376509 0.222814 0.270388 0.222107
H43   H     H_    0.171770 0.244012 0.364305 0.202460
H44   H     H_    0.270254 0.343407 0.380542 0.264006

loop_
_geom_bond_atom_site_label_1
_geom_bond_atom_site_label_2
_geom_bond_distance
_ccdc_geom_bond_type
C9    N10   1.429953 S    
Zn1   N4    2.024497 S    
C5    N7    1.445649 S    
Zn2   N3    2.024497 S    
O7    Zn2   2.019919 S    
C45   C46   1.526323 S    
C35   C36   1.538162 S    
N7    O10   1.299086 A    
C34   H10   1.110847 S    
N10   O15   1.300304 A    
O5    C3    1.287256 A    
N1    N2    1.248617 D    
O1    C1    1.297280 A    
C13   N1    1.412642 S    
C9    C11   1.398967 A    
C44   H43   1.113076 S    
C40   H25   1.111076 S    
C32   H16   1.104011 S    
C43   H33   1.110691 S    
C1    C7    1.460241 S    
C5    C6    1.356955 D    
C29   H8    1.103769 S    
C39   C40   1.525692 S    
C39   H28   1.110831 S    
O4    Zn1   1.934415 S    
C17   N13   1.438284 S    
C42   C43   1.526083 S    
N12   O20   1.300437 A    
C19   C21   1.429210 A    
C20   N15   1.437499 S    
C3    C5    1.415048 S    
C30   H7    1.112019 S    
N7    O9    1.301794 A    
C18   N14   1.439802 S    
N8    O12   1.299016 A    
C38   C39   1.534443 S    
N3    C19   1.378354 A    
C22   C35   1.528814 S    
C41   H37   1.112719 S    
C8    C10   1.404158 A    
C25   H1    1.084431 S    
C46   H40   1.110664 S    
C35   H22   1.109534 S    
C26   C28   1.414100 A    
C30   C31   1.525416 S    
N11   O17   1.301326 A    
C19   N16   1.421445 S    
O2    C2    1.296782 A    
C6    N8    1.443237 S    
C45   H41   1.109911 S    
N8    O11   1.300094 A    
C34   H11   1.109974 S    
C2    C8    1.459901 S    
N11   O18   1.300394 A    
N13   O22   1.301958 A    
C31   H3    1.110026 S    
C7    C17   1.415294 A    
C4    C6    1.414276 S    
C8    C18   1.415694 A    
C44   H44   1.095100 S    
C25   C27   1.409958 A    
C40   H26   1.110400 S    
C33   H14   1.111865 S    
N15   O25   1.286585 A    
N13   O21   1.300984 A    
C29   H9    1.100748 S    
C31   H4    1.110720 S    
N4    C20   1.396880 A    
C39   H27   1.109555 S    
C23   N5    1.437473 S    
C26   H2    1.083918 S    
C32   C33   1.533896 S    
C24   N6    1.435889 S    
N12   O19   1.301337 A    
C45   H42   1.111237 S    
N15   O26   1.302499 A    
C30   H6    1.111709 S    
O6    C4    1.285022 A    
C16   C32   1.518381 S    
C15   C29   1.518622 S    
C42   H35   1.110004 S    
C33   C34   1.525286 S    
N16   O28   1.301678 A    
O7    C3    1.286738 A    
C38   H29   1.108941 S    
C11   N12   1.438348 S    
C43   H32   1.110734 S    
O8    C4    1.288423 A    
C28   C44   1.513468 S    
C35   H23   1.109672 S    
O4    C2    1.298844 A    
C37   H18   1.110871 S    
N14   O24   1.300822 A    
C36   C37   1.526548 S    
C11   C13   1.408044 A    
N5    N6    1.252202 D    
C12   C14   1.407430 A    
O1    Zn1   1.990487 S    
C10   C12   1.398347 A    
N9    O14   1.299769 A    
C44   C45   1.539357 S    
C12   N11   1.438218 S    
C46   H38   1.110746 S    
C34   H12   1.110342 S    
O6    Zn2   2.028254 S    
N3    C27   1.379504 A    
C21   C23   1.415960 A    
C14   C16   1.408313 A    
C10   N9    1.429710 S    
O3    C1    1.298681 A    
O8    Zn1   2.019920 S    
C33   H13   1.111948 S    
C43   H31   1.107453 S    
N9    O13   1.300264 A    
O3    Zn2   1.934415 S    
C15   C17   1.412039 A    
C16   C18   1.413398 A    
C37   H17   1.111236 S    
C31   H5    1.110298 S    
C22   C24   1.404590 A    
C23   C25   1.393681 A    
C41   C42   1.537955 S    
C24   C26   1.387141 A    
C32   H15   1.100654 S    
C36   H21   1.108544 S    
C7    C9    1.404247 A    
N10   O16   1.299699 A    
C20   C22   1.427607 A    
C42   H34   1.111504 S    
C13   C15   1.408071 A    
N16   O27   1.295331 A    
O2    Zn2   1.990487 S    
C14   N2    1.412874 S    
C38   H30   1.107342 S    
C21   C38   1.523131 S    
O5    Zn1   2.028254 S    
C37   H19   1.110459 S    
N14   O23   1.301492 A    
C29   C30   1.533992 S    
N4    C28   1.391644 A    
C27   C41   1.509813 S    
C40   H24   1.110558 S    
C41   H36   1.101119 S    
C36   H20   1.111991 S    
C46   H39   1.107029 S    
