data_mof_unit_23237.cif
_audit_creation_date              2012-12-10T17:28:37-0500
_audit_creation_method            fapswitch 2.2
_symmetry_space_group_name_H-M    P1
_symmetry_Int_Tables_number       1
_space_group_crystal_system       triclinic
_cell_length_a                    10.697857
_cell_length_b                    11.965732
_cell_length_c                    12.843851
_cell_angle_alpha                 92.819554
_cell_angle_beta                  88.266954
_cell_angle_gamma                 87.094441
_cell_volume                      1639.12690169

loop_
_atom_site_label
_atom_site_type_symbol
_atom_type_description
_atom_site_fract_x
_atom_site_fract_y
_atom_site_fract_z
_atom_type_partial_charge
C1    C     C_R   0.506370 0.521687 0.699986 0.917698
C2    C     C_R   0.524789 0.562040 0.131301 -0.236465
C3    C     C_R   0.538012 0.445740 0.973020 0.187005
C4    C     C_R   0.534618 0.553014 0.024235 0.167889
C5    C     C_R   0.395886 0.953681 0.395632 -0.309949
C6    C     C_R   0.604106 0.046265 0.604357 -0.294741
C7    C     C_R   0.404495 0.837486 0.406381 0.095026
C8    C     C_R   0.595826 0.162448 0.593402 0.035936
C9    C     C_R   0.542026 0.858813 0.546638 0.088182
C10   C     C_R   0.457147 0.141262 0.453900 -0.026094
C11   C     C_R   0.536946 0.976051 0.538402 0.080970
C12   C     C_R   0.504783 0.478323 0.299304 0.869326
C13   C     C_R   0.462660 0.023954 0.461845 0.082167
C14   C     C_R   0.739988 0.501335 0.495494 0.869534
C15   C     C_R   0.261021 0.500729 0.512206 0.928827
C16   C     C_R   0.862196 0.432969 0.680144 -0.167089
C17   C     C_R   0.139808 0.500692 0.318387 -0.155726
C18   C     C_R   0.922872 0.407824 0.770970 -0.207393
C19   C     C_R   0.080820 0.524143 0.226176 -0.199510
C20   C     C_R   0.043878 0.441302 0.784921 -0.148385
C21   C     C_R   0.959873 0.573140 0.230789 -0.173985
C22   C     C_R   0.105061 0.497935 0.706929 0.407038
C23   C     C_R   0.517638 0.465565 0.187698 -0.067395
C24   C     C_R   0.895580 0.592627 0.327241 0.370402
C25   C     C_R   0.056317 0.493987 0.605066 -0.045398
C26   C     C_R   0.944075 0.540459 0.415804 -0.064492
C27   C     C_R   0.928800 0.476528 0.595375 0.068417
C28   C     C_R   0.071993 0.512437 0.415005 0.049405
C29   C     C_R   0.128452 0.500807 0.511587 -0.156092
C30   C     C_R   0.871931 0.508163 0.502637 -0.133229
C31   C     C_R   0.526085 0.533986 0.809980 -0.009235
C32   C     C_R   0.535720 0.649786 0.967567 -0.181009
C33   C     C_R   0.536193 0.348973 0.029540 -0.212688
C34   C     C_R   0.531237 0.640307 0.859932 -0.099523
C35   C     C_R   0.525503 0.358889 0.137215 -0.198968
C36   C     C_R   0.536206 0.437036 0.866050 -0.285594
H1    H     H_    0.922656 0.607956 0.161153 0.185000
H2    H     H_    0.535829 0.354433 0.827276 0.156197
H3    H     H_    0.521662 0.283682 0.180581 0.170007
H4    H     H_    0.526649 0.715654 0.816479 0.157422
H5    H     H_    0.534894 0.732296 0.006484 0.149323
H6    H     H_    0.539397 0.266395 0.990551 0.144323
H7    H     H_    0.399956 0.179797 0.396008 0.127102
H8    H     H_    0.598635 0.820331 0.604929 0.129205
H9    H     H_    0.647218 0.216668 0.644525 0.125345
H10   H     H_    0.353557 0.783191 0.354980 0.131701
H11   H     H_    0.098803 0.767198 0.846938 0.383666
H12   H     H_    0.081465 0.438450 0.862182 0.174292
H13   H     H_    0.902003 0.784260 0.481860 0.362846
H14   H     H_    0.337959 0.988099 0.336032 0.153502
H15   H     H_    0.662191 0.011800 0.663836 0.153090
H16   H     H_    0.764101 0.416885 0.678010 0.151642
H17   H     H_    0.237342 0.471892 0.313368 0.136426
H18   H     H_    0.872015 0.372166 0.834395 0.159603
H19   H     H_    0.132650 0.513870 0.152317 0.175535
H20   H     H_    0.519397 0.644739 0.170117 0.194150
N1    N     N_R   0.523130 0.207800 0.519340 -0.103235
N2    N     N_R   0.476870 0.792200 0.480660 -0.086136
O1    O     O_R   0.506170 0.421700 0.658830 -0.655854
O2    O     O_2   0.240181 0.682520 0.675973 -0.297926
O3    O     O_3   0.056585 0.705068 0.811118 -0.538990
O4    O     O_2   0.873087 0.806635 0.275184 -0.297286
O5    O     O_2   0.680070 0.714304 0.309452 -0.287792
O6    O     O_3   0.812670 0.774431 0.467469 -0.537854
O7    O     O_R   0.493830 0.578300 0.341170 -0.599028
O8    O     O_R   0.491330 0.609310 0.646410 -0.599778
O9    O     O_R   0.508670 0.390690 0.353590 -0.634592
O10   O     O_R   0.690650 0.406190 0.506220 -0.640069
O11   O     O_R   0.309350 0.593810 0.493780 -0.577113
O12   O     O_R   0.675800 0.593810 0.493800 -0.538864
O13   O     O_R   0.324200 0.406190 0.506200 -0.637985
O14   O     O_2   0.260787 0.588948 0.841428 -0.354937
S1    S     S_3+6 0.173359 0.619943 0.757133 -0.007083
S2    S     S_3+6 0.812160 0.724401 0.342774 0.029190
Zn1   Zn    Zn3+2 0.509910 0.374730 0.508290 0.944248
Zn2   Zn    Zn3+2 0.490090 0.625270 0.491710 1.055845

loop_
_geom_bond_atom_site_label_1
_geom_bond_atom_site_label_2
_ccdc_geom_bond_type
C17   H17   S    
C35   H3    S    
N2    Zn2   S    
O10   Zn1   S    
C12   C23   S    
O7    Zn2   S    
C34   H4    S    
C33   H6    S    
C28   C29   A    
C19   C21   A    
C24   C26   A    
C1    O1    A    
C3    C33   A    
O2    S1    D    
C1    C31   S    
O11   Zn2   S    
C9    N2    A    
C8    H9    S    
C17   C19   A    
C22   C25   A    
C32   H5    S    
C6    H15   S    
C7    N2    A    
C5    C13   A    
C16   C27   A    
H13   O6    S    
C27   C30   A    
C14   O12   A    
C14   C30   S    
C15   C29   S    
C25   C29   A    
C15   O11   A    
C12   O9    A    
C7    H10   S    
C10   N1    A    
C6    C11   A    
C5    C7    A    
C6    C8    A    
O3    S1    S    
C32   C34   A    
C2    C4    A    
C8    N1    A    
O8    Zn2   S    
C1    O8    A    
C31   C34   A    
C4    C32   A    
C9    C11   A    
C20   H12   S    
C20   C22   A    
C26   C30   A    
C23   C35   A    
O12   Zn2   S    
C5    H14   S    
O9    Zn1   S    
C3    C4    A    
O1    Zn1   S    
C19   H19   S    
C9    H8    S    
C14   O10   A    
C10   H7    S    
C17   C28   A    
C16   H16   S    
O14   S1    D    
C10   C13   A    
H11   O3    S    
O5    S2    D    
C25   C27   A    
C15   O13   A    
C12   O7    A    
C26   C28   A    
N1    Zn1   S    
C36   H2    S    
C2    H20   S    
O13   Zn1   S    
C11   C13   A    
C24   S2    S    
C3    C36   A    
C33   C35   A    
C18   C20   A    
C18   H18   S    
C21   H1    S    
C16   C18   A    
C21   C24   A    
C2    C23   A    
O6    S2    S    
C31   C36   A    
O4    S2    D    
C22   S1    S    
