data_mof_unit_38303.cif
_audit_creation_date              2013-03-05T16:06:22-0500
_audit_creation_method            fapswitch 2.2
_symmetry_space_group_name_H-M    P1
_symmetry_Int_Tables_number       1
_space_group_crystal_system       triclinic
_cell_length_a                    10.845128
_cell_length_b                    9.588227
_cell_length_c                    27.77825
_cell_angle_alpha                 89.752169
_cell_angle_beta                  91.539729
_cell_angle_gamma                 89.968104
_cell_volume                      2887.46595955

loop_
_atom_site_label
_atom_site_type_symbol
_atom_site_description
_atom_site_fract_x
_atom_site_fract_y
_atom_site_fract_z
_atom_type_partial_charge
O1    O     O_R   0.319640 0.618740 0.500000 -0.550557
O2    O     O_R   0.680360 0.381260 0.500000 -0.550904
O3    O     O_R   0.680360 0.618740 0.500000 -0.550929
O4    O     O_R   0.319640 0.381260 0.500000 -0.550857
C1    C     C_R   0.262247 0.500023 0.499960 0.821878
C2    C     C_R   0.737753 0.499977 0.500036 0.821959
O5    O     O_R   0.500020 0.618770 0.430260 -0.548393
O6    O     O_R   0.499980 0.381230 0.569740 -0.547173
O7    O     O_R   0.499980 0.618770 0.569740 -0.548165
O8    O     O_R   0.500020 0.381230 0.430260 -0.547095
C3    C     C_R   0.500315 0.500411 0.407483 0.827875
C4    C     C_R   0.499762 0.499703 0.592517 0.828707
Cu1   Cu    Cu3+1 0.500000 0.640660 0.500000 1.051814
Cu2   Cu    Cu3+1 0.500000 0.359340 0.500000 1.052574
C5    C     C_R   0.392402 0.494279 0.177140 0.585684
C6    C     C_R   0.607741 0.513286 0.822749 0.580318
O9    O     O_2   0.291460 0.458146 0.201545 -0.492571
O10   O     O_2   0.712721 0.520931 0.797912 -0.482947
N1    N     N_R   0.501626 0.514184 0.201876 -0.472211
N2    N     N_R   0.497969 0.497409 0.798086 -0.472789
C7    C     C_R   0.607211 0.547139 0.178686 0.535705
C8    C     C_R   0.389768 0.481015 0.821405 0.534912
C9    C     C_R   0.510350 0.633505 0.279611 -0.112836
C10   C     C_R   0.504215 0.624137 0.721404 -0.115552
C11   C     C_R   0.509305 0.630366 0.329714 -0.170546
C12   C     C_R   0.504846 0.624979 0.671226 -0.167106
C13   C     C_R   0.495332 0.377846 0.328015 -0.176455
C14   C     C_R   0.491256 0.372245 0.671061 -0.171355
C15   C     C_R   0.495972 0.381376 0.277756 -0.097775
C16   C     C_R   0.490054 0.371809 0.721265 -0.091889
C17   C     C_R   0.503537 0.509270 0.253475 0.338987
C18   C     C_R   0.496729 0.497696 0.746507 0.345604
C19   C     C_R   0.495371 0.534876 0.101911 -0.123804
C20   C     C_R   0.499414 0.507719 0.898266 -0.112455
C21   C     C_R   0.385387 0.511975 0.126644 -0.202944
C22   C     C_R   0.611198 0.519468 0.873587 -0.210560
C23   C     C_R   0.271873 0.516620 0.100648 0.414848
C24   C     C_R   0.722897 0.530586 0.900435 0.387533
C25   C     C_R   0.606437 0.556244 0.128331 0.033343
C26   C     C_R   0.388598 0.484599 0.871820 0.029152
C27   C     C_R   0.501617 0.502521 0.354452 -0.050391
C28   C     C_R   0.498712 0.498948 0.645552 -0.050314
H1    H     H_    0.489461 0.277872 0.346075 0.195965
H2    H     H_    0.486237 0.273522 0.652301 0.189591
H3    H     H_    0.490432 0.284977 0.257659 0.146682
H4    H     H_    0.484667 0.273761 0.740603 0.142001
C29   C     C_R   0.384393 0.507178 0.973474 0.103943
C30   C     C_R   0.607666 0.551265 0.026630 0.113186
C31   C     C_R   0.610619 0.533256 0.975877 -0.153539
C32   C     C_R   0.381861 0.523822 0.024434 -0.146979
C33   C     C_R   0.498100 0.517789 0.949341 0.016225
C34   C     C_R   0.494853 0.535770 0.050797 0.013964
C35   C     C_R   0.278056 0.470098 0.945980 -0.192816
C36   C     C_R   0.713016 0.591573 0.054119 -0.178114
C37   C     C_R   0.279543 0.462055 0.896175 -0.197267
C38   C     C_R   0.713122 0.591038 0.104019 -0.193631
O11   O     O_2   0.283566 0.462278 0.795797 -0.533191
O12   O     O_2   0.712818 0.569335 0.204317 -0.551445
C39   C     C_R   0.270379 0.534994 0.050408 0.315727
C40   C     C_R   0.722796 0.520542 0.950713 0.308074
H5    H     H_    0.510479 0.724191 0.652633 0.196699
H6    H     H_    0.514491 0.728184 0.348999 0.190941
H7    H     H_    0.509565 0.721696 0.740864 0.138241
H8    H     H_    0.515600 0.732666 0.260971 0.142215
H9    H     H_    0.194692 0.435814 0.876829 0.199966
H10   H     H_    0.797213 0.619033 0.123397 0.175137
H11   H     H_    0.192605 0.442371 0.962142 0.204901
H12   H     H_    0.796004 0.628088 0.037857 0.199413
C41   C     C_R   0.063905 0.373326 0.500124 -0.134665
C42   C     C_R   0.936094 0.626675 0.499859 -0.135136
C43   C     C_R   0.936247 0.373300 0.500121 -0.135047
C44   C     C_R   0.063752 0.626700 0.499863 -0.135597
H13   H     H_    0.111855 0.274205 0.500271 0.193026
H14   H     H_    0.888144 0.725796 0.499711 0.192976
H15   H     H_    0.888416 0.274174 0.500189 0.192872
H16   H     H_    0.111582 0.725827 0.499795 0.193116
C45   C     C_R   0.871715 0.499973 0.500014 -0.041526
C46   C     C_R   0.128284 0.500027 0.499973 -0.041750
C47   C     C_R   0.422241 0.074484 0.469613 0.348799
C48   C     C_R   0.577780 0.925518 0.530378 0.347880
C49   C     C_R   0.577674 0.073715 0.530412 0.347823
C50   C     C_R   0.422319 0.926286 0.469590 0.348043
N3    N     N_R   0.500000 0.852070 0.500000 -0.274309
N4    N     N_R   0.500000 0.147930 0.500000 -0.274569
Cl1   Cl    Cl    0.319615 0.162563 0.429673 -0.542117
Cl2   Cl    Cl    0.680500 0.837449 0.570283 -0.541366
Cl3   Cl    Cl    0.679598 0.160928 0.570552 -0.535794
Cl4   Cl    Cl    0.320347 0.839078 0.429467 -0.540814
O13   O     O_3   0.161130 0.502792 0.123992 -0.521030
C51   C     C_3   0.116761 0.635716 0.137145 0.084478
H17   H     H_    0.061146 0.680626 0.106801 0.160479
H18   H     H_    0.191867 0.710284 0.147484 0.116691
C52   C     C_3   0.032715 0.620114 0.179872 -0.654794
H19   H     H_    0.087539 0.593759 0.212957 0.277852
H20   H     H_    0.983076 0.719578 0.185930 0.194295
H21   H     H_    0.964355 0.535965 0.172940 0.265659
O14   O     O_3   0.835207 0.538141 0.878162 -0.513203
C53   C     C_3   0.867286 0.680400 0.873455 0.119802
H22   H     H_    0.859173 0.737966 0.908000 0.106740
H23   H     H_    0.806756 0.732150 0.845752 0.163224
C54   C     C_3   0.000159 0.691403 0.857739 -0.708699
H24   H     H_    0.012026 0.634270 0.823474 0.283867
H25   H     H_    0.024804 0.802629 0.852273 0.193501
H26   H     H_    0.062927 0.646412 0.885928 0.236373
O15   O     O_3   0.159690 0.574673 0.028485 -0.578582
C55   C     C_3   0.166899 0.717284 0.015361 0.052939
H27   H     H_    0.229581 0.732170 0.984746 0.162285
H28   H     H_    0.200129 0.783085 0.046077 0.117882
C56   C     C_3   0.039648 0.768624 0.999505 -0.782072
H29   H     H_    0.977444 0.769433 0.030540 0.227051
H30   H     H_    0.045944 0.876129 0.984750 0.193838
H31   H     H_    0.000926 0.698748 0.971312 0.287997
O16   O     O_3   0.833729 0.489072 0.974050 -0.573954
C57   C     C_3   0.835420 0.345042 0.985284 0.074649
H32   H     H_    0.844044 0.282668 0.951809 0.157507
H33   H     H_    0.750803 0.311568 0.004134 0.138532
C58   C     C_3   0.945279 0.313340 0.018728 -0.694022
H34   H     H_    0.941928 0.379359 0.051462 0.277366
H35   H     H_    0.943560 0.201854 0.029693 0.179540
H36   H     H_    0.032310 0.333854 0.999989 0.253750

loop_
_geom_bond_atom_site_label_1
_geom_bond_atom_site_label_2
_geom_bond_distance
_ccdc_geom_bond_type
C43   H15   1.083059 S    
C54   H24   1.110685 S    
C13   C15   1.396566 A    
Cu2   N4    2.027048 S    
C44   H16   1.083058 S    
O3    C2    1.297413 A    
N1    C17   1.433488 S    
C8    O11   1.349882 S    
O14   C53   1.414244 S    
C41   C46   1.401571 A    
C19   C34   1.419701 A    
O5    C3    1.301736 A    
C20   C33   1.422933 A    
C52   H19   1.109268 S    
C31   C40   1.424709 A    
O1    C1    1.297646 A    
C32   C39   1.428719 A    
N1    C7    1.365390 A    
C12   H5    1.083010 S    
C10   C12   1.394049 A    
C58   H35   1.110551 S    
C47   N4    1.373731 A    
C38   H10   1.081039 S    
C36   H12   1.075861 S    
C55   H27   1.111708 S    
C41   C43   1.384463 A    
O7    Cu1   1.947695 S    
C4    C28   1.473567 S    
C56   H30   1.110449 S    
C5    N1    1.367253 A    
C14   C16   1.394954 A    
C31   C33   1.416770 A    
C42   H14   1.083049 S    
C32   C34   1.415519 A    
C41   H13   1.083051 S    
O3    Cu1   1.967170 S    
C6    N2    1.366403 A    
C29   C35   1.412483 A    
C23   C39   1.405553 A    
C54   H25   1.110370 S    
Cu1   Cu2   2.697360 S    
C42   C45   1.401571 A    
C40   O16   1.383725 S    
O2    C2    1.297646 A    
C48   N3    1.373734 A    
C35   H11   1.073621 S    
C5    C21   1.412201 A    
C37   H9    1.083395 S    
C57   H32   1.113785 S    
C29   C32   1.426228 A    
C35   C37   1.386514 A    
C36   C38   1.386106 A    
O8    Cu2   1.947695 S    
C56   H31   1.107121 S    
C11   C27   1.406290 A    
O4    C1    1.297413 A    
C2    C45   1.452855 S    
C29   C33   1.422820 A    
C14   H2    1.083210 S    
C15   H3    1.082744 S    
C9    C17   1.398640 A    
C30   C36   1.412091 A    
C10   C18   1.399449 A    
C13   C27   1.406390 A    
C51   H18   1.116692 S    
C25   C38   1.395178 A    
C7    C25   1.400935 A    
C30   C34   1.418836 A    
O6    C4    1.302682 A    
C26   C37   1.394720 A    
C8    C26   1.401398 A    
C39   O15   1.383781 S    
C19   C25   1.409100 A    
C49   Cl3   1.762743 S    
C24   C40   1.399572 A    
C6    O10   1.348885 S    
C9    H8    1.082923 S    
N2    C8    1.364359 A    
C53   H22   1.114569 S    
C52   H21   1.109980 S    
C53   H23   1.112888 S    
C20   C26   1.409769 A    
C58   H36   1.107358 S    
O1    Cu1   1.967403 S    
C43   C45   1.401395 A    
C49   N4    1.373141 A    
C12   C28   1.406526 A    
C51   C52   1.522708 S    
O16   C57   1.414493 S    
N2    C18   1.432459 S    
C5    O9    1.347712 S    
C30   C31   1.422312 A    
O6    Cu2   1.949500 S    
C21   C23   1.410977 A    
C16   H4    1.083127 S    
C48   C49   1.420954 A    
C47   C50   1.420961 A    
C57   H33   1.115363 S    
C10   H7    1.083200 S    
C53   C54   1.520481 S    
O15   C55   1.416372 S    
Cu1   N3    2.027047 S    
C48   Cl2   1.762747 S    
C23   O13   1.386297 S    
C22   C24   1.409724 A    
O13   C51   1.414988 S    
C7    O12   1.349702 S    
C15   C17   1.400477 A    
C58   H34   1.111577 S    
C6    C22   1.413193 A    
C16   C18   1.399478 A    
C51   H17   1.108570 S    
C55   H28   1.115486 S    
C50   Cl4   1.762741 S    
C14   C28   1.407226 A    
C19   C21   1.409264 A    
C47   Cl1   1.762774 S    
C3    C27   1.473624 S    
C20   C22   1.412974 A    
C11   H6    1.082855 S    
C9    C11   1.392325 A    
O4    Cu2   1.967170 S    
O2    Cu2   1.967403 S    
O7    C4    1.302879 A    
C57   C58   1.520737 S    
O8    C3    1.303850 A    
C13   H1    1.082694 S    
O5    Cu1   1.949500 S    
C52   H20   1.110554 S    
C50   N3    1.373157 A    
C44   C46   1.401395 A    
C42   C44   1.384463 A    
C54   H26   1.109399 S    
C1    C46   1.452854 S    
C56   H29   1.108906 S    
C24   O14   1.382685 S    
C55   C56   1.518407 S    
