data_mof_unit_47228.cif
_audit_creation_date              2012-12-11T15:08:59-0500
_audit_creation_method            fapswitch 2.2
_symmetry_space_group_name_H-M    P1
_symmetry_Int_Tables_number       1
_space_group_crystal_system       triclinic
_cell_length_a                    21.835087
_cell_length_b                    21.835304
_cell_length_c                    22.935921
_cell_angle_alpha                 89.955802
_cell_angle_beta                  90.043565
_cell_angle_gamma                 90.106341
_cell_volume                      10935.2659864

loop_
_atom_site_label
_atom_site_type_symbol
_atom_type_description
_atom_site_fract_x
_atom_site_fract_y
_atom_site_fract_z
_atom_type_partial_charge
C1    C     C_R   0.914778 0.157555 0.076413 0.868535
C2    C     C_R   0.086277 0.842737 0.922458 0.778569
C3    C     C_R   0.133111 0.060903 0.111611 0.752425
C4    C     C_R   0.864688 0.936608 0.889352 0.778807
C5    C     C_R   0.085288 0.842414 0.076735 0.854226
C6    C     C_R   0.913612 0.157357 0.922681 0.787139
C7    C     C_R   0.865918 0.938139 0.110989 0.749465
C8    C     C_R   0.134471 0.062676 0.888847 0.772834
C9    C     C_R   0.938136 0.865915 0.889013 0.749471
C10   C     C_R   0.062683 0.134478 0.111148 0.772881
C11   C     C_R   0.157558 0.914778 0.923595 0.868568
C12   C     C_R   0.842737 0.086274 0.077546 0.778618
C13   C     C_R   0.060896 0.133104 0.888384 0.752355
C14   C     C_R   0.936613 0.864694 0.110653 0.778733
C15   C     C_R   0.842415 0.085284 0.923257 0.854234
C16   C     C_R   0.157359 0.913611 0.077313 0.787111
C17   C     C_R   0.435886 0.636725 0.609284 0.763612
C18   C     C_R   0.565617 0.362352 0.391038 0.785258
C19   C     C_R   0.657406 0.585133 0.577663 0.858932
C20   C     C_R   0.342903 0.414010 0.421239 0.775473
C21   C     C_R   0.563662 0.363744 0.609726 0.747184
C22   C     C_R   0.435079 0.636846 0.390366 0.781346
C23   C     C_R   0.342787 0.414987 0.578301 0.861370
C24   C     C_R   0.657189 0.586250 0.421785 0.773153
C25   C     C_R   0.414986 0.342788 0.421699 0.861391
C26   C     C_R   0.586247 0.657185 0.578225 0.773168
C27   C     C_R   0.636724 0.435889 0.390715 0.763638
C28   C     C_R   0.362349 0.565617 0.608961 0.785270
C29   C     C_R   0.585138 0.657409 0.422347 0.858907
C30   C     C_R   0.414009 0.342903 0.578761 0.775480
C31   C     C_R   0.363743 0.563664 0.390275 0.747183
C32   C     C_R   0.636846 0.435079 0.609634 0.781339
C33   C     C_R   0.802238 0.764231 0.794481 -0.138821
C34   C     C_R   0.235097 0.195794 0.206525 -0.123791
C35   C     C_R   0.747831 0.266398 0.859495 -0.168388
C36   C     C_R   0.266403 0.747827 0.140495 -0.168383
C37   C     C_R   0.195790 0.235083 0.793469 -0.123770
C38   C     C_R   0.764252 0.802226 0.205529 -0.138782
C39   C     C_R   0.242565 0.727807 0.856433 -0.164019
C40   C     C_R   0.727811 0.242558 0.143578 -0.164002
C41   C     C_R   0.228992 0.252678 0.358622 -0.165264
C42   C     C_R   0.749417 0.769590 0.640818 -0.177933
C43   C     C_R   0.263139 0.702215 0.296264 -0.121982
C44   C     C_R   0.702217 0.263140 0.703727 -0.121980
C45   C     C_R   0.769592 0.749447 0.359207 -0.177850
C46   C     C_R   0.252651 0.229002 0.641363 -0.165251
C47   C     C_R   0.740375 0.302697 0.294311 -0.132742
C48   C     C_R   0.302715 0.740381 0.705703 -0.132845
C49   C     C_R   0.139560 0.188424 0.341982 0.623536
C50   C     C_R   0.814669 0.857859 0.658102 0.592472
C51   C     C_R   0.173537 0.764285 0.277591 0.616227
C52   C     C_R   0.764270 0.173527 0.722400 0.616219
C53   C     C_R   0.857852 0.814714 0.341921 0.592473
C54   C     C_R   0.188377 0.139582 0.657993 0.623543
C55   C     C_R   0.833798 0.248363 0.272652 0.613016
C56   C     C_R   0.248410 0.833813 0.727377 0.612985
C57   C     C_R   0.742248 0.673340 0.776493 0.604178
C58   C     C_R   0.327101 0.254656 0.224100 0.615991
C59   C     C_R   0.679161 0.351774 0.841805 0.631014
C60   C     C_R   0.351779 0.679155 0.158189 0.631016
C61   C     C_R   0.254659 0.327085 0.775901 0.615990
C62   C     C_R   0.673367 0.742225 0.223517 0.604168
C63   C     C_R   0.300246 0.635573 0.835105 0.630056
C64   C     C_R   0.635583 0.300252 0.164898 0.630046
C65   C     C_R   0.820729 0.840220 0.717076 -0.278541
C66   C     C_R   0.158028 0.180206 0.283496 -0.271651
C67   C     C_R   0.771170 0.193304 0.780562 -0.218695
C68   C     C_R   0.193314 0.771178 0.219428 -0.218681
C69   C     C_R   0.180172 0.158037 0.716485 -0.271600
C70   C     C_R   0.840220 0.820758 0.282943 -0.278439
C71   C     C_R   0.234998 0.810239 0.783142 -0.228699
C72   C     C_R   0.810229 0.234963 0.216882 -0.228629
C73   C     C_R   0.306381 0.265876 0.281293 -0.229935
C74   C     C_R   0.732549 0.693526 0.718834 -0.232282
C75   C     C_R   0.336047 0.677337 0.217840 -0.268941
C76   C     C_R   0.677341 0.336044 0.782154 -0.268944
C77   C     C_R   0.693548 0.732541 0.281180 -0.232236
C78   C     C_R   0.265871 0.306373 0.718704 -0.229927
C79   C     C_R   0.657868 0.311691 0.221530 -0.256666
C80   C     C_R   0.311691 0.657864 0.778475 -0.256670
C81   C     C_R   0.794242 0.784408 0.736545 -0.036438
C82   C     C_R   0.214509 0.205366 0.264034 -0.043875
C83   C     C_R   0.741574 0.247020 0.800912 -0.049674
C84   C     C_R   0.247025 0.741573 0.199078 -0.049675
C85   C     C_R   0.205347 0.214508 0.735954 -0.043881
C86   C     C_R   0.784419 0.794250 0.263470 -0.036508
C87   C     C_R   0.256455 0.751756 0.800626 -0.047517
C88   C     C_R   0.751754 0.256435 0.199391 -0.047544
C89   C     C_R   0.250180 0.240841 0.301492 -0.047536
C90   C     C_R   0.759116 0.748986 0.698589 -0.043854
C91   C     C_R   0.281996 0.706875 0.237591 -0.044145
C92   C     C_R   0.706877 0.281993 0.762401 -0.044148
C93   C     C_R   0.748998 0.759125 0.301429 -0.043852
C94   C     C_R   0.240824 0.250180 0.698499 -0.047537
C95   C     C_R   0.716728 0.290486 0.238224 -0.051233
C96   C     C_R   0.290500 0.716730 0.761788 -0.051240
C97   C     C_R   0.778327 0.708448 0.813361 -0.233323
C98   C     C_R   0.291431 0.218343 0.187664 -0.258529
C99   C     C_R   0.716504 0.318104 0.879496 -0.236912
C100  C     C_R   0.318109 0.716496 0.120496 -0.236918
C101  C     C_R   0.218347 0.291411 0.812337 -0.258527
C102  C     C_R   0.708477 0.778300 0.186646 -0.233321
C103  C     C_R   0.264372 0.670267 0.873234 -0.257492
C104  C     C_R   0.670276 0.264376 0.126772 -0.257497
C105  C     C_R   0.174077 0.226819 0.378236 -0.244482
C106  C     C_R   0.777625 0.823331 0.620940 -0.210779
C107  C     C_R   0.208568 0.728644 0.315290 -0.262392
C108  C     C_R   0.728641 0.208567 0.684700 -0.262355
C109  C     C_R   0.823323 0.777674 0.379088 -0.210927
C110  C     C_R   0.226778 0.174098 0.621742 -0.244486
C111  C     C_R   0.798715 0.283267 0.310557 -0.250788
C112  C     C_R   0.283300 0.798728 0.689465 -0.250590
C113  C     C_R   0.854404 0.146976 0.087430 -0.262523
C114  C     C_R   0.146982 0.854404 0.912579 -0.262575
C115  C     C_R   0.108043 0.107527 0.144186 -0.260262
C116  C     C_R   0.891127 0.890715 0.856774 -0.262475
C117  C     C_R   0.145889 0.852837 0.087000 -0.253373
C118  C     C_R   0.852839 0.145882 0.912985 -0.253387
C119  C     C_R   0.890723 0.891136 0.143233 -0.262383
C120  C     C_R   0.107516 0.108031 0.855805 -0.260225
C121  C     C_R   0.387472 0.613163 0.640350 -0.271493
C122  C     C_R   0.613162 0.387476 0.359649 -0.271478
C123  C     C_R   0.646821 0.645511 0.588827 -0.255370
C124  C     C_R   0.354711 0.353623 0.410019 -0.257016
C125  C     C_R   0.611285 0.388014 0.641473 -0.261715
C126  C     C_R   0.388013 0.611286 0.358527 -0.261707
C127  C     C_R   0.353620 0.354712 0.589980 -0.257009
C128  C     C_R   0.645520 0.646827 0.411194 -0.255302
C129  C     C_R   0.852479 0.876408 0.757422 0.758849
C130  C     C_R   0.122073 0.147487 0.243516 0.764340
C131  C     C_R   0.808083 0.161178 0.818928 0.725038
C132  C     C_R   0.161190 0.808092 0.181061 0.725010
C133  C     C_R   0.147454 0.122077 0.756464 0.764301
C134  C     C_R   0.876402 0.852518 0.242598 0.759011
C135  C     C_R   0.199074 0.843108 0.821511 0.727314
C136  C     C_R   0.843098 0.199040 0.178511 0.727393
C137  C     C_R   0.339856 0.302896 0.318590 0.729506
C138  C     C_R   0.695992 0.660215 0.681072 0.714160
C139  C     C_R   0.372263 0.646468 0.258607 0.745192
C140  C     C_R   0.646470 0.372261 0.741390 0.745200
C141  C     C_R   0.660238 0.695982 0.318943 0.714120
C142  C     C_R   0.302895 0.339848 0.681410 0.729504
C143  C     C_R   0.623292 0.344309 0.262230 0.783257
C144  C     C_R   0.344302 0.623286 0.737771 0.783240
C145  C     C_R   0.858521 0.855736 0.814572 -0.234699
C146  C     C_R   0.143134 0.140074 0.186591 -0.237702
C147  C     C_R   0.814659 0.181457 0.876132 -0.281031
C148  C     C_R   0.181466 0.814659 0.123855 -0.281007
C149  C     C_R   0.140062 0.143123 0.813398 -0.237616
C150  C     C_R   0.855745 0.858531 0.185439 -0.234691
C151  C     C_R   0.185552 0.818840 0.876221 -0.289492
C152  C     C_R   0.818838 0.185538 0.123793 -0.289567
C153  C     C_R   0.318161 0.314593 0.374539 -0.281993
C154  C     C_R   0.685750 0.681689 0.624716 -0.272591
C155  C     C_R   0.353183 0.643884 0.316407 -0.229135
C156  C     C_R   0.643884 0.353184 0.683589 -0.229131
C157  C     C_R   0.681701 0.685757 0.375305 -0.272563
C158  C     C_R   0.314587 0.318161 0.625457 -0.281969
C159  C     C_R   0.647588 0.354955 0.317353 -0.261354
C160  C     C_R   0.354952 0.647586 0.682649 -0.261347
C161  C     C_R   0.833757 0.800402 0.833269 0.766586
C162  C     C_R   0.198800 0.164124 0.167973 0.760993
C163  C     C_R   0.785283 0.233329 0.897024 0.852026
C164  C     C_R   0.233336 0.785278 0.102963 0.852024
C165  C     C_R   0.164125 0.198781 0.832021 0.760965
C166  C     C_R   0.800424 0.833742 0.166739 0.766530
C167  C     C_R   0.206418 0.761822 0.894178 0.861530
C168  C     C_R   0.761827 0.206415 0.105832 0.861516
C169  C     C_R   0.263307 0.290409 0.395039 0.851166
C170  C     C_R   0.711595 0.735771 0.604076 0.854132
C171  C     C_R   0.299211 0.670948 0.335416 0.766229
C172  C     C_R   0.670951 0.299214 0.664577 0.766232
C173  C     C_R   0.735773 0.711623 0.395951 0.854096
C174  C     C_R   0.290388 0.263316 0.604950 0.851148
C175  C     C_R   0.705152 0.334093 0.333846 0.774404
C176  C     C_R   0.334100 0.705156 0.666162 0.774432
H1    H     H_    0.787123 0.691868 0.857126 0.208761
H2    H     H_    0.307862 0.208054 0.144262 0.199745
H3    H     H_    0.720415 0.332453 0.924578 0.192111
H4    H     H_    0.332459 0.720405 0.075413 0.192106
H5    H     H_    0.208066 0.307835 0.855743 0.199742
H6    H     H_    0.691901 0.787086 0.142877 0.208750
H7    H     H_    0.253444 0.651775 0.915845 0.189398
H8    H     H_    0.651789 0.253455 0.084157 0.189392
H9    H     H_    0.157740 0.236012 0.421970 0.190927
H10   H     H_    0.771609 0.838549 0.576314 0.195668
H11   H     H_    0.192894 0.721558 0.359566 0.197926
H12   H     H_    0.721553 0.192897 0.640424 0.197895
H13   H     H_    0.838536 0.771670 0.423717 0.195648
H14   H     H_    0.235962 0.157769 0.578004 0.190929
H15   H     H_    0.817372 0.295062 0.352846 0.198897
H16   H     H_    0.295092 0.817391 0.647176 0.198918
N1    N     N_R   0.940200 0.105310 0.059970 -0.221131
N2    N     N_R   0.059800 0.894690 0.940030 -0.216379
N3    N     N_R   0.105310 0.059800 0.059970 -0.153624
N4    N     N_R   0.894690 0.940200 0.940030 -0.167395
N5    N     N_R   0.059800 0.894690 0.059970 -0.217506
N6    N     N_R   0.940200 0.105310 0.940030 -0.214700
N7    N     N_R   0.894690 0.940200 0.059970 -0.154634
N8    N     N_R   0.105310 0.059800 0.940030 -0.167155
N9    N     N_R   0.940200 0.894690 0.940030 -0.154633
N10   N     N_R   0.059800 0.105310 0.059970 -0.167176
N11   N     N_R   0.105310 0.940200 0.940030 -0.221147
N12   N     N_R   0.894690 0.059800 0.059970 -0.216376
N13   N     N_R   0.059800 0.105310 0.940030 -0.153603
N14   N     N_R   0.940200 0.894690 0.059970 -0.167366
N15   N     N_R   0.894690 0.059800 0.940030 -0.217519
N16   N     N_R   0.105310 0.940200 0.059970 -0.214694
N17   N     N_R   0.440200 0.605310 0.559970 -0.162065
N18   N     N_R   0.559800 0.394690 0.440030 -0.173262
N19   N     N_R   0.605310 0.559800 0.559970 -0.217330
N20   N     N_R   0.394690 0.440200 0.440030 -0.213115
N21   N     N_R   0.559800 0.394690 0.559970 -0.158668
N22   N     N_R   0.440200 0.605310 0.440030 -0.169562
N23   N     N_R   0.394690 0.440200 0.559970 -0.217041
N24   N     N_R   0.605310 0.559800 0.440030 -0.212661
N25   N     N_R   0.440200 0.394690 0.440030 -0.217046
N26   N     N_R   0.559800 0.605310 0.559970 -0.212678
N27   N     N_R   0.605310 0.440200 0.440030 -0.162060
N28   N     N_R   0.394690 0.559800 0.559970 -0.173268
N29   N     N_R   0.559800 0.605310 0.440030 -0.217306
N30   N     N_R   0.440200 0.394690 0.559970 -0.213114
N31   N     N_R   0.394690 0.559800 0.440030 -0.158674
N32   N     N_R   0.605310 0.440200 0.559970 -0.169563
Ni1   Ni    Ni4+2 0.000000 0.104370 0.000000 0.316969
Ni2   Ni    Ni4+2 0.000000 0.895630 0.000000 0.318207
Ni3   Ni    Ni4+2 0.104370 0.000000 0.000000 0.316970
Ni4   Ni    Ni4+2 0.895630 0.000000 0.000000 0.318197
Ni5   Ni    Ni4+2 0.500000 0.604370 0.500000 0.318580
Ni6   Ni    Ni4+2 0.500000 0.395630 0.500000 0.317450
Ni7   Ni    Ni4+2 0.604370 0.500000 0.500000 0.318581
Ni8   Ni    Ni4+2 0.395630 0.500000 0.500000 0.317445
F1    F     F_    0.939390 0.213693 0.066809 -0.548881
F2    F     F_    0.062729 0.786038 0.931418 -0.538187
F3    F     F_    0.185148 0.030483 0.125014 -0.604272
F4    F     F_    0.811026 0.964628 0.877062 -0.580070
F5    F     F_    0.060640 0.786269 0.067362 -0.550652
F6    F     F_    0.937165 0.214016 0.931832 -0.547061
F7    F     F_    0.813582 0.968195 0.123936 -0.604586
F8    F     F_    0.188071 0.034672 0.876386 -0.574280
F9    F     F_    0.968196 0.813582 0.876066 -0.604584
F10   F     F_    0.034681 0.188080 0.123605 -0.574287
F11   F     F_    0.213695 0.939393 0.933201 -0.548859
F12   F     F_    0.786038 0.062726 0.068585 -0.538208
F13   F     F_    0.030480 0.185142 0.874981 -0.604294
F14   F     F_    0.964637 0.811036 0.122947 -0.580109
F15   F     F_    0.786269 0.060637 0.932631 -0.550654
F16   F     F_    0.214018 0.937169 0.068160 -0.547060
F17   F     F_    0.466459 0.689002 0.621762 -0.598198
F18   F     F_    0.537797 0.308285 0.379686 -0.573965
F19   F     F_    0.713656 0.560926 0.568375 -0.549343
F20   F     F_    0.286098 0.437040 0.430155 -0.543501
F21   F     F_    0.534277 0.310657 0.621701 -0.604206
F22   F     F_    0.463148 0.690677 0.378521 -0.578505
F23   F     F_    0.286409 0.438962 0.569081 -0.549508
F24   F     F_    0.713953 0.563140 0.430874 -0.543173
F25   F     F_    0.438960 0.286411 0.430918 -0.549502
F26   F     F_    0.563142 0.713951 0.569136 -0.543142
F27   F     F_    0.689002 0.466462 0.378238 -0.598204
F28   F     F_    0.308282 0.537797 0.620313 -0.573965
F29   F     F_    0.560928 0.713656 0.431636 -0.549349
F30   F     F_    0.437039 0.286099 0.569844 -0.543513
F31   F     F_    0.310656 0.534278 0.378300 -0.604206
F32   F     F_    0.690679 0.463144 0.621476 -0.578492
F33   F     F_    0.876863 0.931521 0.742322 -0.634663
F34   F     F_    0.066860 0.123482 0.258728 -0.635415
F35   F     F_    0.839968 0.111070 0.800919 -0.633563
F36   F     F_    0.111087 0.839985 0.199069 -0.633592
F37   F     F_    0.123431 0.066875 0.741243 -0.635512
F38   F     F_    0.931493 0.876947 0.257707 -0.634791
F39   F     F_    0.174217 0.897721 0.805296 -0.626297
F40   F     F_    0.897705 0.174169 0.194728 -0.626209
F41   F     F_    0.392726 0.330110 0.300478 -0.625266
F42   F     F_    0.668084 0.607631 0.698992 -0.643073
F43   F     F_    0.425906 0.619433 0.243241 -0.656702
F44   F     F_    0.619435 0.425903 0.756758 -0.656701
F45   F     F_    0.607665 0.668056 0.301018 -0.643109
F46   F     F_    0.330120 0.392709 0.699528 -0.625279
F47   F     F_    0.566533 0.366007 0.249271 -0.625519
F48   F     F_    0.365990 0.566522 0.750724 -0.625509
F49   F     F_    0.838981 0.782867 0.890116 -0.644871
F50   F     F_    0.216584 0.158147 0.111287 -0.648164
F51   F     F_    0.793329 0.251068 0.953342 -0.618488
F52   F     F_    0.251073 0.793317 0.046644 -0.618514
F53   F     F_    0.158165 0.216552 0.888713 -0.648186
F54   F     F_    0.782900 0.838945 0.109887 -0.644895
F55   F     F_    0.191242 0.739923 0.947799 -0.605882
F56   F     F_    0.739936 0.191255 0.052204 -0.605893
F57   F     F_    0.244082 0.303394 0.450044 -0.613406
F58   F     F_    0.699812 0.754926 0.548780 -0.611392
F59   F     F_    0.282879 0.667847 0.392691 -0.648045
F60   F     F_    0.667849 0.282886 0.607302 -0.648045
F61   F     F_    0.754919 0.699858 0.451253 -0.611426
F62   F     F_    0.303366 0.244099 0.549941 -0.613422
F63   F     F_    0.725931 0.342978 0.389261 -0.640304
F64   F     F_    0.342986 0.725939 0.610749 -0.640295
O1    O     O_3   0.085516 0.162805 0.362473 -0.613878
C177  C     C_3   0.098216 0.117804 0.405425 0.158814
H17   H     H_    0.058364 0.115377 0.435346 0.129152
H18   H     H_    0.138486 0.128976 0.433423 0.080869
C178  C     C_3   0.106633 0.054889 0.377056 -0.206679
H19   H     H_    0.063518 0.041177 0.354768 0.245487
H20   H     H_    0.143766 0.057287 0.344031 0.204472
C179  C     C_3   0.123498 0.006488 0.422225 -1.062998
H21   H     H_    0.167068 0.019170 0.444095 0.283671
H22   H     H_    0.129837 0.961702 0.400263 0.280848
H23   H     H_    0.086819 0.001942 0.455464 0.265309
O2    O     O_3   0.843204 0.909665 0.636430 -0.625056
C180  C     C_3   0.901991 0.892870 0.616282 0.242276
H24   H     H_    0.898347 0.858611 0.580392 0.071944
H25   H     H_    0.929903 0.873141 0.652424 0.129052
C181  C     C_3   0.934785 0.949613 0.592794 -0.218382
H26   H     H_    0.910211 0.966232 0.553500 0.192702
H27   H     H_    0.934194 0.986494 0.626197 0.239983
C182  C     C_3   0.001103 0.935459 0.576711 -1.049521
H28   H     H_    0.027793 0.923797 0.616438 0.285471
H29   H     H_    0.022292 0.976105 0.555767 0.267887
H30   H     H_    0.003204 0.896490 0.545743 0.272608
O3    O     O_3   0.116783 0.786732 0.294838 -0.571330
C183  C     C_3   0.120614 0.822618 0.346205 0.235277
H31   H     H_    0.102625 0.868944 0.335873 0.158544
H32   H     H_    0.168111 0.829615 0.363030 0.067477
C184  C     C_3   0.080038 0.794088 0.393395 -0.251252
H33   H     H_    0.031418 0.795739 0.379085 0.259522
H34   H     H_    0.092798 0.745321 0.399835 0.220409
C185  C     C_3   0.086504 0.827633 0.451374 -1.012352
H35   H     H_    0.134272 0.823917 0.467549 0.285616
H36   H     H_    0.055354 0.806700 0.484059 0.285437
H37   H     H_    0.074354 0.876645 0.446330 0.264345
O4    O     O_3   0.786693 0.116763 0.705156 -0.571326
C186  C     C_3   0.822593 0.120577 0.653795 0.235356
H38   H     H_    0.868903 0.102552 0.664134 0.158697
H39   H     H_    0.829625 0.168071 0.636977 0.067364
C187  C     C_3   0.794042 0.080030 0.606594 -0.251192
H40   H     H_    0.795570 0.031417 0.620933 0.259603
H41   H     H_    0.745314 0.092888 0.600084 0.220304
C188  C     C_3   0.827684 0.086386 0.548655 -1.012434
H42   H     H_    0.824135 0.134157 0.532464 0.285579
H43   H     H_    0.806708 0.055288 0.515950 0.285441
H44   H     H_    0.876651 0.074093 0.553761 0.264266
O5    O     O_3   0.909657 0.843261 0.363582 -0.625094
C189  C     C_3   0.892849 0.902030 0.383766 0.242200
H45   H     H_    0.858862 0.898315 0.419883 0.072096
H46   H     H_    0.872781 0.929854 0.347726 0.128498
C190  C     C_3   0.949677 0.935017 0.406839 -0.217825
H47   H     H_    0.966654 0.910555 0.446064 0.192720
H48   H     H_    0.986321 0.934465 0.373192 0.240366
C191  C     C_3   0.935456 0.001323 0.422904 -1.049192
H49   H     H_    0.923393 0.027905 0.383215 0.285492
H50   H     H_    0.976210 0.022673 0.443514 0.267786
H51   H     H_    0.896729 0.003378 0.454153 0.272438
O6    O     O_3   0.162745 0.085548 0.637493 -0.613888
C192  C     C_3   0.117755 0.098263 0.594534 0.158609
H52   H     H_    0.115374 0.058447 0.564567 0.129281
H53   H     H_    0.128900 0.138579 0.566585 0.080870
C193  C     C_3   0.054820 0.106590 0.622889 -0.206321
H54   H     H_    0.041134 0.063432 0.645118 0.245406
H55   H     H_    0.057177 0.143679 0.655961 0.204515
C194  C     C_3   0.006425 0.123477 0.577721 -1.062926
H56   H     H_    0.019089 0.167079 0.555896 0.283663
H57   H     H_    0.961628 0.129767 0.599677 0.280838
H58   H     H_    0.001912 0.086831 0.544445 0.265360
O7    O     O_3   0.893173 0.232089 0.287747 -0.573516
C195  C     C_3   0.894107 0.194222 0.337971 0.249024
H59   H     H_    0.915484 0.149907 0.325720 0.179469
H60   H     H_    0.847943 0.182935 0.356090 0.055662
C196  C     C_3   0.933511 0.224514 0.384969 -0.246302
H61   H     H_    0.981220 0.229304 0.368781 0.263193
H62   H     H_    0.915719 0.271050 0.394554 0.212022
C197  C     C_3   0.933593 0.187140 0.441117 -0.971337
H63   H     H_    0.886692 0.185078 0.459598 0.277274
H64   H     H_    0.964315 0.209311 0.473372 0.281733
H65   H     H_    0.950029 0.139917 0.432723 0.270557
O8    O     O_3   0.232152 0.893189 0.712281 -0.573574
C198  C     C_3   0.194176 0.894108 0.662133 0.249071
H66   H     H_    0.149883 0.915477 0.674467 0.179601
H67   H     H_    0.182865 0.847940 0.644036 0.055592
C199  C     C_3   0.224361 0.933506 0.615069 -0.246226
H68   H     H_    0.229224 0.981208 0.631256 0.263230
H69   H     H_    0.270860 0.915687 0.605364 0.211957
C200  C     C_3   0.186830 0.933626 0.559017 -0.971461
H70   H     H_    0.184669 0.886728 0.540539 0.277290
H71   H     H_    0.208938 0.964329 0.526708 0.281719
H72   H     H_    0.139646 0.950105 0.567534 0.270626
O9    O     O_3   0.720707 0.617152 0.795706 -0.577306
C201  C     C_3   0.672113 0.626595 0.835349 0.193721
H73   H     H_    0.631838 0.646250 0.812130 0.133246
H74   H     H_    0.685642 0.657969 0.871457 0.083500
C202  C     C_3   0.653940 0.565173 0.862172 -0.123765
H75   H     H_    0.636745 0.534048 0.827471 0.278363
H76   H     H_    0.694796 0.543774 0.882686 0.219820
C203  C     C_3   0.604467 0.573289 0.908401 -1.044227
H77   H     H_    0.620137 0.605403 0.942876 0.276513
H78   H     H_    0.594596 0.528497 0.929099 0.282666
H79   H     H_    0.561874 0.591223 0.888199 0.283991
O10   O     O_3   0.384454 0.274900 0.206105 -0.565660
C204  C     C_3   0.381039 0.309161 0.153660 0.236719
H80   H     H_    0.401404 0.354897 0.162150 0.151176
H81   H     H_    0.333483 0.317901 0.137737 0.067368
C205  C     C_3   0.418750 0.277302 0.106371 -0.266597
H82   H     H_    0.467882 0.278406 0.118721 0.254819
H83   H     H_    0.404737 0.228543 0.102713 0.223940
C206  C     C_3   0.410474 0.307980 0.047140 -1.005027
H84   H     H_    0.362658 0.301641 0.031883 0.289756
H85   H     H_    0.441799 0.286620 0.015004 0.285161
H86   H     H_    0.420838 0.357669 0.049764 0.268386
O11   O     O_3   0.647280 0.401980 0.862804 -0.616317
C207  C     C_3   0.597088 0.382157 0.897290 0.150377
H87   H     H_    0.586270 0.419226 0.928637 0.132940
H88   H     H_    0.607456 0.340900 0.924241 0.084521
C208  C     C_3   0.540420 0.370685 0.859218 -0.214101
H89   H     H_    0.528332 0.413373 0.835452 0.249578
H90   H     H_    0.550594 0.334366 0.826770 0.201052
C209  C     C_3   0.485618 0.350303 0.895658 -1.033542
H91   H     H_    0.497213 0.308663 0.921168 0.281845
H92   H     H_    0.446591 0.339327 0.866441 0.278997
H93   H     H_    0.471367 0.387348 0.925763 0.265130
O12   O     O_3   0.401988 0.647276 0.137193 -0.616307
C210  C     C_3   0.382170 0.597083 0.102707 0.150382
H94   H     H_    0.419240 0.586268 0.071361 0.132940
H95   H     H_    0.340911 0.607447 0.075757 0.084512
C211  C     C_3   0.370701 0.540415 0.140780 -0.214090
H96   H     H_    0.413390 0.528333 0.164548 0.249583
H97   H     H_    0.334378 0.550585 0.173226 0.201050
C212  C     C_3   0.350328 0.485611 0.104341 -1.033568
H98   H     H_    0.308689 0.497201 0.078827 0.281843
H99   H     H_    0.339353 0.446584 0.133558 0.278998
H100  H     H_    0.387378 0.471362 0.074239 0.265134
O13   O     O_3   0.274908 0.384433 0.793901 -0.565661
C213  C     C_3   0.309171 0.381010 0.846343 0.236721
H101  H     H_    0.354909 0.401374 0.837853 0.151171
H102  H     H_    0.317910 0.333453 0.862262 0.067376
C214  C     C_3   0.277317 0.418718 0.893637 -0.266610
H103  H     H_    0.278419 0.467850 0.881290 0.254810
H104  H     H_    0.228557 0.404703 0.897300 0.223942
C215  C     C_3   0.308001 0.410438 0.952865 -1.005038
H105  H     H_    0.301667 0.362621 0.968118 0.289757
H106  H     H_    0.286642 0.441759 0.985005 0.285162
H107  H     H_    0.357689 0.420806 0.950236 0.268389
O14   O     O_3   0.617180 0.720681 0.204306 -0.577310
C216  C     C_3   0.626622 0.672089 0.164660 0.193743
H108  H     H_    0.646278 0.631813 0.187877 0.133260
H109  H     H_    0.657996 0.685619 0.128551 0.083493
C217  C     C_3   0.565199 0.653919 0.137838 -0.123774
H110  H     H_    0.534076 0.636719 0.172539 0.278343
H111  H     H_    0.543799 0.694777 0.117330 0.219833
C218  C     C_3   0.573313 0.604452 0.091604 -1.044235
H112  H     H_    0.605425 0.620127 0.057128 0.276516
H113  H     H_    0.528519 0.594584 0.070907 0.282667
H114  H     H_    0.591249 0.561858 0.111799 0.283989
O15   O     O_3   0.320631 0.577974 0.851210 -0.607437
C219  C     C_3   0.358299 0.581149 0.901368 0.144016
H115  H     H_    0.331403 0.564744 0.939481 0.123911
H116  H     H_    0.375815 0.628165 0.911259 0.084807
C220  C     C_3   0.413624 0.539605 0.892179 -0.136724
H117  H     H_    0.398127 0.493659 0.877727 0.216349
H118  H     H_    0.443277 0.559170 0.857443 0.220819
C221  C     C_3   0.450739 0.532730 0.947966 -1.145730
H119  H     H_    0.468825 0.577826 0.962375 0.293412
H120  H     H_    0.489629 0.501364 0.939829 0.297565
H121  H     H_    0.421821 0.512881 0.982935 0.279015
O16   O     O_3   0.577987 0.320645 0.148789 -0.607454
C222  C     C_3   0.581169 0.358308 0.098629 0.144032
H122  H     H_    0.564771 0.331409 0.060515 0.123905
H123  H     H_    0.628187 0.375824 0.088744 0.084813
C223  C     C_3   0.539622 0.413632 0.107807 -0.136727
H124  H     H_    0.493675 0.398136 0.122259 0.216344
H125  H     H_    0.559183 0.443291 0.142541 0.220815
C224  C     C_3   0.532750 0.450739 0.052015 -1.145743
H126  H     H_    0.577847 0.468823 0.037605 0.293415
H127  H     H_    0.501383 0.489630 0.060145 0.297565
H128  H     H_    0.512903 0.421816 0.017050 0.279012

loop_
_geom_bond_atom_site_label_1
_geom_bond_atom_site_label_2
_ccdc_geom_bond_type
N4    Ni4   S    
C111  H15   S    
C26   N26   A    
C212  H98   S    
C62   C77   A    
C39   C87   A    
N11   Ni3   S    
C188  H42   S    
C30   N30   A    
C23   N23   A    
C178  H19   S    
N31   Ni8   S    
C6    F6    S    
C41   C105  A    
C138  F42   S    
C103  H7    S    
C18   N18   A    
C204  H81   S    
N16   Ni3   S    
C116  C145  S    
N20   Ni8   S    
C45   C109  A    
C178  C179  S    
C130  C146  A    
C154  C170  A    
C199  H69   S    
C31   F31   S    
C32   F32   S    
C42   C170  A    
C209  H93   S    
C3    F3    S    
C158  C174  A    
C179  H23   S    
C1    F1    S    
N14   Ni2   S    
C46   C174  A    
C185  H35   S    
C84   C91   A    
C144  C160  A    
C129  C145  A    
C44   C92   A    
C55   C111  A    
C138  C154  A    
C162  F50   S    
C72   C88   A    
C88   C95   A    
C28   N28   A    
C201  H74   S    
C209  H92   S    
C1    C113  A    
C142  C158  A    
C192  H53   S    
N10   Ni1   S    
C16   F16   S    
O4    C186  S    
C62   O14   S    
C184  H33   S    
C102  H6    S    
C183  C184  S    
C7    C119  A    
C210  C211  S    
C106  H10   S    
C203  H78   S    
C49   C66   A    
C189  H45   S    
C216  C217  S    
C224  H126  S    
C41   C169  A    
C110  H14   S    
C193  C194  S    
C35   C163  A    
C30   F30   S    
N8    Ni3   S    
C1    N1    A    
C44   C172  A    
N26   Ni5   S    
C45   C173  A    
C66   C82   A    
C146  C162  A    
C65   C129  A    
C214  C215  S    
C57   C97   A    
O6    C192  S    
C185  H37   S    
C135  F39   S    
C137  C153  A    
C136  F40   S    
C190  C191  S    
C49   O1    S    
C42   C106  A    
C5    F5    S    
C18   C122  A    
C81   C90   A    
C219  H116  S    
C207  H88   S    
C14   N14   A    
C200  H70   S    
C212  H100  S    
C201  C202  S    
C177  H17   S    
C188  H44   S    
C215  H105  S    
C224  H128  S    
C53   C109  A    
C4    N4    A    
N19   N26   A    
C30   C127  A    
C48   C96   A    
C206  H85   S    
C9    C116  A    
C108  H12   S    
C49   C105  A    
C60   C100  A    
C189  C190  S    
C37   C165  A    
C198  H66   S    
C15   C118  A    
N3    Ni3   S    
C40   C88   A    
C78   C142  A    
N1    Ni1   S    
C2    C114  A    
C187  C188  S    
C74   C90   A    
C145  C161  A    
C78   C94   A    
C151  C167  A    
C191  H49   S    
C196  C197  S    
C33   C97   A    
C20   N20   A    
C213  H102  S    
N15   Ni4   S    
C131  F35   S    
C51   C107  A    
C14   C119  A    
C194  H56   S    
C70   C134  A    
N5    N16   A    
C14   F14   S    
C184  H34   S    
C199  H68   S    
N22   Ni5   S    
C64   O16   S    
C123  C154  S    
C57   C74   A    
C41   C89   A    
C67   C83   A    
C11   F11   S    
C210  H94   S    
C58   C98   A    
C45   C93   A    
C197  H63   S    
O13   C213  S    
C115  C146  S    
C19   C123  A    
C120  C149  S    
C82   C89   A    
C73   C137  A    
C38   C86   A    
C117  C148  S    
C118  C147  S    
N21   N32   A    
C63   O15   S    
C20   F20   S    
C40   C104  A    
C150  C166  A    
C195  H59   S    
C54   C110  A    
C165  F53   S    
C24   F24   S    
O8    C198  S    
C56   O8    S    
C79   C143  A    
C195  H60   S    
C12   F12   S    
C200  H72   S    
C131  C147  A    
C59   O11   S    
C98   H2    S    
N7    Ni4   S    
C215  H107  S    
C75   C91   A    
C25   F25   S    
N5    Ni2   S    
C179  H22   S    
C124  C153  S    
C4    F4    S    
C139  F43   S    
C2    F2    S    
C128  C157  S    
C77   C141  A    
C63   C80   A    
C8    F8    S    
C208  H90   S    
C221  H119  S    
N23   Ni8   S    
C148  C164  A    
C149  C165  A    
C144  F48   S    
N32   Ni7   S    
C43   C171  A    
C187  H40   S    
C5    N5    A    
C172  F60   S    
C214  H104  S    
C173  F61   S    
C156  C172  A    
C191  H51   S    
N18   N27   A    
C217  H110  S    
C42   C90   A    
C183  H32   S    
C61   C101  A    
C47   C111  A    
C86   C93   A    
C169  F57   S    
N25   Ni6   S    
C46   C94   A    
C139  C155  A    
O7    C195  S    
C193  H55   S    
C61   O13   S    
C52   C67   A    
C57   O9    S    
C48   C112  A    
C223  H124  S    
C211  H96   S    
C21   N21   A    
C8    N8    A    
N29   Ni5   S    
C100  H4    S    
C13   C120  A    
C101  H5    S    
C202  H76   S    
C7    F7    S    
C198  C199  S    
C64   C104  A    
C182  H30   S    
N6    N15   A    
N27   Ni7   S    
C205  H82   S    
C34   C162  A    
C50   O2    S    
C134  F38   S    
C54   O6    S    
C181  C182  S    
C75   C139  A    
C204  H80   S    
C37   C101  A    
C24   N24   A    
C19   F19   S    
C17   F17   S    
C194  H58   S    
C12   N12   A    
C50   C65   A    
C20   C124  A    
N22   N31   A    
C21   F21   S    
O15   C219  S    
C182  H28   S    
N30   Ni6   S    
C211  C212  S    
C24   C128  A    
C185  H36   S    
C34   C82   A    
N4    N9    A    
C59   C76   A    
C15   N15   A    
C55   O7    S    
C48   C176  A    
C13   F13   S    
C27   N27   A    
N8    N13   A    
C25   N25   A    
C142  F46   S    
C23   F23   S    
C192  H52   S    
C69   C85   A    
C29   N29   A    
C74   C138  A    
N19   Ni7   S    
C217  C218  S    
C19   N19   A    
C210  H95   S    
C12   C113  A    
C17   N17   A    
C219  C220  S    
C189  H46   S    
C216  H109  S    
N20   N25   A    
N24   Ni7   S    
C175  F63   S    
O14   C216  S    
C58   O10   S    
C68   C132  A    
N24   N29   A    
C32   N32   A    
C168  F56   S    
C196  H61   S    
C28   F28   S    
C121  C160  S    
C176  F64   S    
C222  C223  S    
C122  C159  S    
N13   Ni1   S    
C190  H48   S    
C125  C156  S    
C126  C155  S    
C119  C150  S    
C224  H127  S    
C9    F9    S    
C220  H117  S    
C208  C209  S    
C212  H99   S    
C113  C152  S    
C177  H18   S    
C114  C151  S    
C205  C206  S    
C53   C70   A    
C188  H43   S    
C27   C122  A    
C215  H106  S    
C178  H20   S    
N9    Ni2   S    
C218  H112  S    
C68   C84   A    
C206  H86   S    
O10   C204  S    
C166  F54   S    
C63   C103  A    
C204  C205  S    
C35   C83   A    
O16   C222  S    
C219  H115  S    
C53   O5    S    
O5    C189  S    
N7    N14   A    
C222  H122  S    
C2    N2    A    
C177  C178  S    
C186  H38   S    
C79   C95   A    
C112  H16   S    
C97   H1    S    
C26   F26   S    
C56   C71   A    
C191  H50   S    
N18   Ni6   S    
C36   C100  A    
C43   C107  A    
C127  C158  S    
C9    N9    A    
C71   C87   A    
C17   C121  A    
C104  H8    S    
C15   F15   S    
C52   O4    S    
C209  H91   S    
C13   N13   A    
C152  C168  A    
C76   C140  A    
C21   C125  A    
N23   N30   A    
C192  C193  S    
C129  F33   S    
C23   C127  A    
O9    C201  S    
C38   C166  A    
C220  H118  S    
C174  F62   S    
C4    C116  A    
C203  H77   S    
C197  H64   S    
C170  F58   S    
C39   C103  A    
C223  C224  S    
C60   C75   A    
N2    Ni2   S    
C199  C200  S    
C201  H73   S    
C218  H114  S    
C73   C89   A    
C3    C115  A    
C16   C117  A    
C54   C69   A    
C135  C151  A    
C77   C93   A    
C34   C98   A    
C181  H27   S    
C3    N3    A    
C197  H65   S    
C72   C136  A    
O3    C183  S    
C130  F34   S    
C207  H87   S    
C153  C169  A    
C208  H89   S    
C200  H71   S    
C147  C163  A    
C136  C152  A    
N21   Ni6   S    
C157  C173  A    
C59   C99   A    
O1    C177  S    
C33   C161  A    
C206  H84   S    
C10   F10   S    
C218  H113  S    
N3    N10   A    
C180  H24   S    
C181  H26   S    
C99   H3    S    
C83   C92   A    
C164  F52   S    
N1    N12   A    
C221  H120  S    
C37   C85   A    
C18   F18   S    
C71   C135  A    
C187  H41   S    
C22   C126  A    
C134  C150  A    
C107  H11   S    
C217  H111  S    
C105  H9    S    
C11   C114  A    
C213  H101  S    
C161  F49   S    
C65   C81   A    
C109  H13   S    
C221  H121  S    
C220  C221  S    
C29   F29   S    
O11   C207  S    
C50   C106  A    
C80   C96   A    
C44   C108  A    
C55   C72   A    
N6    Ni1   S    
C51   C68   A    
C159  C175  A    
C211  H97   S    
C160  C176  A    
C203  H79   S    
C35   C99   A    
C186  C187  S    
C198  H67   S    
C36   C164  A    
C182  H29   S    
C40   C168  A    
N28   Ni8   S    
C132  C148  A    
C202  C203  S    
C133  C149  A    
C205  H83   S    
C6    N6    A    
C28   C121  A    
C11   N11   A    
C80   C144  A    
C195  C196  S    
C43   C91   A    
C5    C117  A    
C32   C125  A    
C132  F36   S    
C10   N10   A    
C85   C94   A    
C133  F37   S    
C213  C214  S    
C207  C208  S    
C61   C78   A    
C87   C96   A    
C143  F47   S    
C194  H57   S    
N17   Ni5   S    
C167  F55   S    
C186  H39   S    
C76   C92   A    
C31   N31   A    
C179  H21   S    
C140  C156  A    
C22   N22   A    
N12   Ni4   S    
C70   C86   A    
O2    C180  S    
C8    C120  A    
O12   C210  S    
C180  C181  S    
C141  C157  A    
C69   C133  A    
N17   N28   A    
C67   C131  A    
C16   N16   A    
C27   F27   S    
C223  H125  S    
C184  C185  S    
C183  H31   S    
C140  F44   S    
C46   C110  A    
C141  F45   S    
C38   C102  A    
C60   O12   S    
C216  H108  S    
C202  H75   S    
C180  H25   S    
C36   C84   A    
N2    N11   A    
C137  F41   S    
C193  H54   S    
C64   C79   A    
C56   C112  A    
C143  C159  A    
C196  H62   S    
C7    N7    A    
C25   C124  A    
C47   C175  A    
C22   F22   S    
C39   C167  A    
C155  C171  A    
C163  F51   S    
C51   O3    S    
C52   C108  A    
C214  H103  S    
C26   C123  A    
C29   C128  A    
C222  H123  S    
C47   C95   A    
C31   C126  A    
C62   C102  A    
C190  H47   S    
C33   C81   A    
C6    C118  A    
C10   C115  A    
C58   C73   A    
C66   C130  A    
C171  F59   S    
