data_mof_unit_19730.cif
_audit_creation_date              2012-12-10T17:32:57-0500
_audit_creation_method            fapswitch 2.2
_symmetry_space_group_name_H-M    P1
_symmetry_Int_Tables_number       1
_space_group_crystal_system       triclinic
_cell_length_a                    12.478345
_cell_length_b                    13.22748
_cell_length_c                    14.376446
_cell_angle_alpha                 94.681861
_cell_angle_beta                  109.015367
_cell_angle_gamma                 117.750417
_cell_volume                      1906.6476636

loop_
_atom_site_label
_atom_site_type_symbol
_atom_type_description
_atom_site_fract_x
_atom_site_fract_y
_atom_site_fract_z
_atom_type_partial_charge
C1    C     C_R   0.647676 0.713349 0.504771 0.823828
C2    C     C_R   0.819175 0.474304 0.925147 0.093975
C3    C     C_R   0.819248 0.549441 0.001271 0.164856
C4    C     C_R   0.896231 0.420994 0.955309 0.058475
C5    C     C_R   0.993112 0.463181 0.057516 0.087627
C6    C     C_R   0.989314 0.537285 0.131515 -0.219210
C7    C     C_R   0.900351 0.575925 0.103909 -0.239521
C8    C     C_R   0.880108 0.327707 0.886630 -0.230625
C9    C     C_R   0.968841 0.288434 0.912815 -0.207160
C10   C     C_R   0.077582 0.341332 0.008609 0.084663
C11   C     C_R   0.089826 0.429394 0.081999 0.048988
C12   C     C_R   0.616867 0.514482 0.686461 0.835118
C13   C     C_R   0.174409 0.308219 0.032176 0.259089
C14   C     C_R   0.279092 0.359759 0.130712 -0.234652
C15   C     C_R   0.200013 0.482939 0.176984 -0.222789
C16   C     C_R   0.130011 0.957588 0.358210 -0.188433
C17   C     C_R   0.250307 0.158820 0.466716 -0.071850
C18   C     C_R   0.713826 0.926454 0.543559 -0.211156
C19   C     C_R   0.797925 0.044572 0.549498 0.198223
C20   C     C_R   0.904964 0.074987 0.523345 -0.151204
C21   C     C_R   0.925420 0.986798 0.485533 0.060111
C22   C     C_R   0.823612 0.866423 0.458931 0.096091
C23   C     C_R   0.346465 0.284843 0.486770 0.831728
C24   C     C_R   0.037118 0.014944 0.463399 0.054678
C25   C     C_R   0.028639 0.927879 0.392000 0.141489
C26   C     C_R   0.918074 0.812608 0.354064 -0.226266
C27   C     C_R   0.817912 0.781541 0.388106 -0.167601
C28   C     C_R   0.157566 0.125825 0.510381 0.098516
C29   C     C_R   0.237529 0.073819 0.392176 -0.215563
C30   C     C_R   0.727442 0.836144 0.500460 -0.138643
C31   C     C_R   0.261026 0.652308 0.691245 -0.272325
C32   C     C_R   0.662102 0.368532 0.343837 0.487824
C33   C     C_R   0.750837 0.389670 0.298331 -0.218633
C34   C     C_R   0.377498 0.478446 0.312704 0.794053
C35   C     C_R   0.885678 0.454576 0.357923 -0.203344
C36   C     C_R   0.934358 0.488599 0.464610 -0.013227
C37   C     C_R   0.846979 0.494867 0.506073 0.163165
C38   C     C_R   0.070597 0.530204 0.528395 -0.084006
C39   C     C_R   0.122795 0.589549 0.632463 0.063968
C40   C     C_R   0.036461 0.586586 0.676024 0.179947
C41   C     C_R   0.909106 0.561059 0.612531 0.160630
C42   C     C_R   0.155633 0.506271 0.496565 0.313630
C43   C     C_R   0.343654 0.643685 0.650407 0.055242
C44   C     C_R   0.680230 0.520759 0.794418 -0.036980
C45   C     C_R   0.289855 0.444587 0.203644 -0.091242
C46   C     C_R   0.741776 0.600867 0.973707 -0.197795
C47   C     C_R   0.672208 0.586145 0.870926 -0.166059
C48   C     C_R   0.750705 0.462894 0.821472 -0.208042
Cu1   Cu    Cu3+1 0.416420 0.526630 0.522910 0.977590
Cu2   Cu    Cu3+1 0.583580 0.473370 0.477090 0.958690
H1    H     H_    0.900130 0.632085 0.162762 0.133266
H2    H     H_    0.309194 0.097651 0.358760 0.165231
H3    H     H_    0.909527 0.745712 0.298765 0.131458
H4    H     H_    0.122956 0.892343 0.301970 0.140690
H5    H     H_    0.637145 0.905503 0.571358 0.177753
H6    H     H_    0.967483 0.167095 0.527648 0.197423
H7    H     H_    0.732549 0.692165 0.352966 0.168977
H8    H     H_    0.449543 0.690074 0.696575 0.128816
H9    H     H_    0.217874 0.554468 0.233222 0.155976
H10   H     H_    0.306281 0.708251 0.768545 0.146141
H11   H     H_    0.951542 0.476092 0.319721 0.170157
H12   H     H_    0.715975 0.355917 0.216560 0.160218
H13   H     H_    0.348200 0.329620 0.152642 0.185248
H14   H     H_    0.953576 0.218817 0.855628 0.191200
H15   H     H_    0.739006 0.656191 0.031723 0.135560
H16   H     H_    0.616642 0.630135 0.851518 0.149454
H17   H     H_    0.756630 0.414398 0.761023 0.171158
H18   H     H_    0.051888 0.565005 0.212003 0.142241
H19   H     H_    0.798666 0.283715 0.811816 0.183598
N1    N     N_R   0.290690 0.566960 0.557640 -0.190958
N2    N     N_R   0.709100 0.433710 0.442970 -0.224712
O1    O     O_R   0.545970 0.684450 0.528810 -0.584216
O2    O     O_R   0.687130 0.639470 0.490120 -0.560286
O3    O     O_R   0.519670 0.535100 0.660030 -0.579663
O4    O     O_R   0.660830 0.490120 0.621340 -0.555585
O5    O     O_R   0.312870 0.360530 0.509880 -0.523671
O6    O     O_R   0.454030 0.315550 0.471190 -0.604040
O7    O     O_R   0.339170 0.509880 0.378660 -0.559601
O8    O     O_R   0.480330 0.464900 0.339970 -0.609952
N3    N     N_2   0.161052 0.219287 0.957930 -0.431915
H20   H     H_    0.077216 0.136349 0.937716 0.253515
C49   C     C_3   0.278151 0.217867 0.963121 -0.621840
H21   H     H_    0.254360 0.160122 0.889967 0.255991
H22   H     H_    0.310010 0.180958 0.025976 0.213456
H23   H     H_    0.360120 0.308945 0.974566 0.241716
I1    I     I_    0.224097 0.227073 0.664012 -0.372991
I2    I     I_    0.764594 0.178201 0.597651 -0.462048
N4    N     N_2   0.080743 0.620514 0.784728 -0.414793
H24   H     H_    0.151963 0.709309 0.819985 0.264647
C50   C     C_3   0.112084 0.542265 0.836435 -0.622272
H25   H     H_    0.208709 0.555952 0.841482 0.219753
H26   H     H_    0.033607 0.448154 0.794512 0.262704
H27   H     H_    0.119579 0.561666 0.915527 0.231145
I3    I     I_    0.067411 0.346429 0.376437 -0.377772
N5    N     N_2   0.523702 0.286437 0.283426 -0.445838
H28   H     H_    0.462287 0.277804 0.318664 0.295907
C51   C     C_3   0.487626 0.170836 0.228024 -0.776722
H29   H     H_    0.377610 0.112670 0.189586 0.226209
H30   H     H_    0.526704 0.128127 0.281747 0.257906
H31   H     H_    0.525672 0.178354 0.167578 0.242832
I4    I     I_    0.916964 0.719732 0.673371 -0.357340

loop_
_geom_bond_atom_site_label_1
_geom_bond_atom_site_label_2
_ccdc_geom_bond_type
Cu2   O6    S    
C12   O3    A    
C9    H14   S    
C17   C29   A    
C35   C36   A    
C23   O5    A    
C20   H6    S    
Cu2   O8    S    
C51   H29   S    
C8    H19   S    
C17   C23   S    
C31   C43   A    
C36   C37   A    
C38   C42   A    
C3    C7    A    
C38   C39   A    
C42   N1    A    
Cu1   O7    S    
C18   C19   A    
C43   H8    S    
C11   C15   A    
C19   C20   A    
C41   I4    S    
C8    C9    A    
Cu1   O1    S    
C18   C30   A    
C14   C45   A    
C9    C10   A    
C47   H16   S    
C44   C47   A    
C4    C8    A    
C6    H18   S    
C13   N3    S    
C21   C22   A    
C51   H30   S    
C32   N2    A    
C1    O1    A    
C24   C25   A    
C46   H15   S    
N3    C49   S    
C27   H7    S    
Cu2   O2    S    
C39   C40   A    
C33   H12   S    
C2    C48   A    
C16   C29   A    
C31   H10   S    
C2    C4    A    
Cu2   N2    S    
C34   O8    A    
C50   H26   S    
C20   C21   A    
C26   C27   A    
Cu1   O5    S    
C35   H11   S    
C34   C45   S    
C23   O6    A    
C18   H5    S    
C40   C41   A    
N4    C50   S    
Cu1   Cu2   S    
C43   N1    A    
C49   H22   S    
Cu1   N1    S    
C37   N2    A    
C28   I1    S    
C12   O4    A    
C15   C45   A    
C26   H3    S    
C51   H31   S    
C50   H27   S    
C16   C25   A    
C46   C47   A    
C22   C30   A    
C42   I3    S    
C17   C28   A    
C15   H9    S    
C24   C28   A    
N3    H20   S    
C10   C13   A    
N5    C51   S    
C5    C11   A    
C6    C7    A    
C49   H23   S    
C3    C46   A    
C19   I2    S    
C22   C27   A    
C1    O2    A    
C32   C33   A    
C40   N4    S    
C36   C38   A    
C2    C3    A    
C25   C26   A    
C7    H1    S    
C12   C44   S    
Cu2   O4    S    
C34   O7    A    
C50   H25   S    
C5    C6    A    
C14   H13   S    
C1    C30   S    
C33   C35   A    
C31   C39   A    
C48   H17   S    
C37   C41   A    
C16   H4    S    
C10   C11   A    
C4    C5    A    
C32   N5    S    
N4    H24   S    
C49   H21   S    
C21   C24   A    
N5    H28   S    
Cu1   O3    S    
C13   C14   A    
C44   C48   A    
C29   H2    S    
