data_mof_unit_12990.cif
_audit_creation_date              2012-12-11T15:39:14-0500
_audit_creation_method            fapswitch 2.2
_symmetry_space_group_name_H-M    P1
_symmetry_Int_Tables_number       1
_space_group_crystal_system       triclinic
_cell_length_a                    17.351714
_cell_length_b                    24.315227
_cell_length_c                    14.955529
_cell_angle_alpha                 90.224958
_cell_angle_beta                  125.407012
_cell_angle_gamma                 89.704809
_cell_volume                      5142.85596224

loop_
_atom_site_label
_atom_site_type_symbol
_atom_type_description
_atom_site_fract_x
_atom_site_fract_y
_atom_site_fract_z
_atom_type_partial_charge
C1    C     C_R   0.354203 0.347697 0.909110 -0.136435
C2    C     C_R   0.536074 0.497991 0.709099 -0.115598
C3    C     C_R   0.115614 0.815429 0.000898 0.050103
C4    C     C_R   0.069245 0.998999 0.368984 -0.110938
C5    C     C_R   0.039429 0.997966 0.712774 -0.113147
C6    C     C_R   0.172960 0.500279 0.706195 0.064963
C7    C     C_R   0.800251 0.500534 0.367399 0.067379
C8    C     C_R   0.699116 0.000275 0.632964 0.073672
C9    C     C_R   0.326827 0.999908 0.290342 0.058465
C10   C     C_R   0.021019 0.551814 0.613380 0.159024
C11   C     C_R   0.925746 0.551963 0.530598 0.178032
C12   C     C_R   0.573282 0.051305 0.469251 0.177589
C13   C     C_R   0.650276 0.348602 0.091695 -0.119298
C14   C     C_R   0.478429 0.051231 0.384945 0.157991
C15   C     C_R   0.071007 0.502025 0.651266 0.033968
C16   C     C_R   0.879100 0.502266 0.482718 0.035163
C17   C     C_R   0.620101 0.001655 0.517643 0.034115
C18   C     C_R   0.428892 0.001477 0.346009 0.034141
C19   C     C_R   0.018813 0.453227 0.625717 -0.191942
C20   C     C_R   0.922296 0.453331 0.540910 -0.198013
C21   C     C_R   0.577698 0.952616 0.459401 -0.196878
C22   C     C_R   0.481609 0.952560 0.373006 -0.191259
C23   C     C_3   0.933095 0.603351 0.480954 -0.521413
C24   C     C_R   0.850263 0.848588 0.909025 -0.120471
C25   C     C_3   0.037170 0.602958 0.570846 -0.525780
C26   C     C_3   0.460960 0.102439 0.427031 -0.519845
C27   C     C_3   0.564624 0.102672 0.518521 -0.524643
C28   C     C_R   0.160735 0.688000 0.903989 -0.159297
C29   C     C_R   0.837950 0.690917 0.103211 -0.159517
C30   C     C_R   0.658050 0.185848 0.900887 -0.158519
C31   C     C_R   0.330466 0.196683 0.100113 -0.160561
C32   C     C_R   0.611319 0.232112 0.901012 -0.167441
C33   C     C_R   0.388617 0.235135 0.100316 -0.166325
C34   C     C_R   0.108406 0.731242 0.903345 -0.169641
C35   C     C_R   0.147064 0.847897 0.091638 -0.136205
C36   C     C_R   0.886931 0.735284 0.102605 -0.164570
C37   C     C_R   0.644065 0.258670 0.000425 0.134305
C38   C     C_R   0.361069 0.259140 0.000919 0.137732
C39   C     C_R   0.139912 0.757923 0.002134 0.135274
C40   C     C_R   0.856549 0.759969 0.002572 0.136984
C41   C     C_R   0.404655 0.626463 0.093333 -0.118272
C42   C     C_R   0.595367 0.630265 0.910675 -0.159242
C43   C     C_R   0.901411 0.123782 0.091717 -0.116904
C44   C     C_R   0.087751 0.135966 0.908708 -0.155623
C45   C     C_R   0.710584 0.232155 0.099652 -0.161506
C46   C     C_R   0.318015 0.643590 0.002469 0.015813
C47   C     C_R   0.290373 0.234543 0.901542 -0.164062
C48   C     C_R   0.209857 0.733205 0.102038 -0.162362
C49   C     C_R   0.791313 0.732674 0.903954 -0.160868
C50   C     C_R   0.262574 0.690334 0.102604 -0.161098
C51   C     C_R   0.742714 0.687992 0.904665 -0.170396
C52   C     C_R   0.757275 0.185877 0.099430 -0.158000
C53   C     C_R   0.232180 0.196089 0.901249 -0.176243
C54   C     C_R   0.244507 0.672121 0.003225 0.143694
C55   C     C_R   0.758697 0.671385 0.003791 0.145528
C56   C     C_R   0.738259 0.166546 0.000064 0.140497
C57   C     C_R   0.685448 0.641829 0.002764 0.016610
C58   C     C_R   0.246259 0.182016 0.000464 0.150979
C59   C     C_R   0.606257 0.545384 0.626380 -0.152534
C60   C     C_R   0.617653 0.545827 0.542216 -0.162563
C61   C     C_R   0.108846 0.045010 0.628772 -0.150000
C62   C     C_R   0.117878 0.045511 0.542757 -0.161287
C63   C     C_R   0.603517 0.497159 0.483979 0.169222
C64   C     C_R   0.580015 0.496475 0.650885 0.176736
C65   C     C_R   0.101931 0.996972 0.483448 0.170765
C66   C     C_R   0.082729 0.996223 0.653809 0.175812
C67   C     C_R   0.600819 0.446810 0.527477 -0.170749
C68   C     C_R   0.811470 0.136621 0.999868 0.013947
C69   C     C_R   0.588009 0.446485 0.610178 -0.166639
C70   C     C_R   0.098874 0.946614 0.526679 -0.169100
C71   C     C_R   0.088524 0.946257 0.611292 -0.169110
C72   C     C_R   0.550304 0.453785 0.303243 -0.243063
C73   C     C_R   0.513857 0.452780 0.745652 -0.232952
C74   C     C_R   0.049671 0.953747 0.302948 -0.241892
C75   C     C_R   0.015709 0.952786 0.747806 -0.237291
C76   C     C_R   0.230502 0.545673 0.734701 -0.123742
C77   C     C_R   0.751500 0.545784 0.304200 -0.146391
C78   C     C_R   0.747960 0.045644 0.695800 -0.150841
C79   C     C_R   0.172871 0.153743 0.000085 0.018652
C80   C     C_R   0.269217 0.045514 0.261158 -0.112555
C81   C     C_R   0.552748 0.545019 0.305472 0.673597
C82   C     C_R   0.503261 0.544221 0.732431 0.678601
C83   C     C_R   0.052161 0.044993 0.305277 0.677847
C84   C     C_R   0.006240 0.044287 0.735440 0.680550
C85   C     C_R   0.230560 0.453906 0.741635 -0.119521
C86   C     C_R   0.755050 0.454430 0.303547 -0.115454
C87   C     C_R   0.744822 0.954285 0.696880 -0.112667
C88   C     C_R   0.269530 0.953692 0.257113 -0.123691
C89   C     C_R   0.316831 0.632444 0.910688 -0.114604
C90   C     C_R   0.570502 0.499055 0.369426 -0.106483
C91   C     C_R   0.688901 0.625755 0.093669 -0.099688
C92   C     C_R   0.809700 0.123858 0.907956 -0.112294
C93   C     C_R   0.177462 0.137380 0.091197 -0.108446
C94   C     C_R   0.444714 0.348151 0.091784 -0.110654
C95   C     C_R   0.557686 0.347968 0.909147 -0.130636
C96   C     C_R   0.941796 0.849014 0.092051 -0.111201
C97   C     C_R   0.055623 0.847372 0.909361 -0.130765
C98   C     C_R   0.386257 0.315812 0.000637 0.044326
C99   C     C_R   0.620061 0.316380 0.000505 0.043125
C100  C     C_R   0.880378 0.817128 0.001010 0.037358
F1    F     F_    0.583557 0.596782 0.342391 -0.756389
F2    F     F_    0.478658 0.592606 0.677558 -0.743896
F3    F     F_    0.082199 0.096856 0.342144 -0.748931
F4    F     F_    0.983374 0.092759 0.681254 -0.750120
H1    H     H_    0.316798 0.334051 0.825018 0.088614
H2    H     H_    0.079833 0.595886 0.538020 0.206449
H3    H     H_    0.416963 0.095462 0.458007 0.208065
H4    H     H_    0.602751 0.137901 0.513846 0.196883
H5    H     H_    0.140406 0.671157 0.826179 0.103400
H6    H     H_    0.856631 0.676310 0.181605 0.108907
H7    H     H_    0.637119 0.169402 0.822588 0.108895
H8    H     H_    0.348037 0.182355 0.178193 0.101822
H9    H     H_    0.556117 0.249448 0.822698 0.109301
H10   H     H_    0.447734 0.250254 0.178637 0.107136
H11   H     H_    0.050255 0.746925 0.824902 0.107813
H12   H     H_    0.689588 0.335487 0.176211 0.085239
H13   H     H_    0.941446 0.753051 0.180732 0.108868
H14   H     H_    0.733540 0.249537 0.177998 0.112129
H15   H     H_    0.272157 0.249188 0.823367 0.112732
H16   H     H_    0.231801 0.750366 0.180165 0.112657
H17   H     H_    0.770816 0.748437 0.825536 0.111729
H18   H     H_    0.322734 0.676006 0.181012 0.123106
H19   H     H_    0.686921 0.670447 0.826818 0.122875
H20   H     H_    0.814509 0.169432 0.177622 0.122071
H21   H     H_    0.172522 0.181323 0.822939 0.128609
H22   H     H_    0.610231 0.583935 0.665154 0.165522
H23   H     H_    0.811025 0.834967 0.824741 0.087086
H24   H     H_    0.628533 0.585012 0.517869 0.199186
H25   H     H_    0.114392 0.083487 0.668622 0.168349
H26   H     H_    0.128846 0.084648 0.518339 0.200305
H27   H     H_    0.596826 0.407821 0.490241 0.113409
H28   H     H_    0.575160 0.407367 0.633188 0.114530
H29   H     H_    0.093087 0.907685 0.488307 0.114818
H30   H     H_    0.075526 0.907188 0.634302 0.114747
H31   H     H_    0.431301 0.629921 0.178479 0.155245
H32   H     H_    0.565746 0.643537 0.828623 0.185394
H33   H     H_    0.928167 0.128542 0.176710 0.154101
H34   H     H_    0.184242 0.834652 0.175852 0.086523
H35   H     H_    0.055542 0.148667 0.825741 0.186610
H36   H     H_    0.566947 0.411262 0.327973 0.127803
H37   H     H_    0.525781 0.409922 0.738795 0.135060
H38   H     H_    0.066209 0.911217 0.327659 0.130393
H39   H     H_    0.027813 0.909903 0.741349 0.135518
H40   H     H_    0.209547 0.587409 0.712305 0.100893
H41   H     H_    0.755489 0.587231 0.332693 0.138330
H42   H     H_    0.743171 0.087035 0.667077 0.118411
H43   H     H_    0.290293 0.087342 0.279479 0.103050
H44   H     H_    0.209970 0.411299 0.732107 0.096434
H45   H     H_    0.918652 0.597061 0.398823 0.197590
H46   H     H_    0.766099 0.412213 0.330827 0.087540
H47   H     H_    0.733864 0.911957 0.669955 0.087904
H48   H     H_    0.290491 0.911026 0.267432 0.097602
H49   H     H_    0.266841 0.648047 0.829423 0.088358
H50   H     H_    0.746707 0.629608 0.179140 0.089847
H51   H     H_    0.751791 0.128680 0.822745 0.092697
H52   H     H_    0.225082 0.152552 0.173493 0.090882
H53   H     H_    0.490434 0.335217 0.176378 0.082502
H54   H     H_    0.510744 0.333842 0.825474 0.086009
H55   H     H_    0.987562 0.835985 0.176552 0.084432
H56   H     H_    0.059538 0.638291 0.628164 0.188167
H57   H     H_    0.008797 0.833358 0.825566 0.083932
H58   H     H_    0.053264 0.414144 0.660547 0.130680
H59   H     H_    0.886227 0.414270 0.512482 0.128304
H60   H     H_    0.613967 0.913517 0.488496 0.129503
H61   H     H_    0.447591 0.913485 0.337937 0.130963
H62   H     H_    0.439254 0.137820 0.370196 0.188464
H63   H     H_    0.577920 0.096264 0.599990 0.198942
H64   H     H_    0.895303 0.638648 0.486941 0.200511
N1    N     N_R   0.394180 0.396910 0.943210 -0.039259
N2    N     N_R   0.474350 0.471570 0.793850 -0.069127
N3    N     N_R   0.025650 0.971570 0.206150 -0.070539
N4    N     N_R   0.974350 0.971570 0.793850 -0.068427
N5    N     N_R   0.319480 0.528420 0.793810 -0.042296
N6    N     N_R   0.680520 0.528420 0.206190 -0.046508
N7    N     N_R   0.819480 0.028420 0.793810 -0.044881
N8    N     N_R   0.180520 0.028420 0.206190 -0.041978
N9    N     N_R   0.525640 0.528390 0.206120 -0.099999
N10   N     N_R   0.474360 0.528390 0.793880 -0.098085
N11   N     N_R   0.025640 0.028390 0.206120 -0.101993
N12   N     N_R   0.605820 0.396910 0.056790 -0.039415
N13   N     N_R   0.974360 0.028390 0.793880 -0.097439
N14   N     N_R   0.319490 0.471590 0.793840 -0.042912
N15   N     N_R   0.680510 0.471590 0.206160 -0.043868
N16   N     N_R   0.819490 0.971590 0.793840 -0.042087
N17   N     N_R   0.180510 0.971590 0.206160 -0.045531
N18   N     N_R   0.394130 0.603080 0.943110 -0.043052
N19   N     N_R   0.605870 0.603080 0.056890 -0.040412
N20   N     N_R   0.894130 0.103080 0.943110 -0.044116
N21   N     N_R   0.105870 0.103080 0.056890 -0.039933
N22   N     N_R   0.450990 0.396900 0.056840 -0.036442
N23   N     N_R   0.894180 0.896910 0.943210 -0.039694
N24   N     N_R   0.549010 0.396900 0.943160 -0.036022
N25   N     N_R   0.950990 0.896900 0.056840 -0.036681
N26   N     N_R   0.049010 0.896900 0.943160 -0.035574
N27   N     N_R   0.105820 0.896910 0.056790 -0.038434
N28   N     N_R   0.450950 0.603070 0.056740 -0.039371
N29   N     N_R   0.549050 0.603070 0.943260 -0.047684
N30   N     N_R   0.950950 0.103070 0.056740 -0.038534
N31   N     N_R   0.049050 0.103070 0.943260 -0.049583
N32   N     N_R   0.525650 0.471570 0.206150 -0.068883
Ni1   Ni    Ni4+2 0.434860 0.434850 0.869700 0.205375
Ni2   Ni    Ni4+2 0.565140 0.434850 0.130300 0.196320
Ni3   Ni    Ni4+2 0.934860 0.934850 0.869700 0.200530
Ni4   Ni    Ni4+2 0.065140 0.934850 0.130300 0.200057
Ni5   Ni    Ni4+2 0.565130 0.565140 0.130240 0.258328
Ni6   Ni    Ni4+2 0.434870 0.565140 0.869760 0.251801
Ni7   Ni    Ni4+2 0.065130 0.065140 0.130240 0.267783
Ni8   Ni    Ni4+2 0.934870 0.065140 0.869760 0.240634

loop_
_geom_bond_atom_site_label_1
_geom_bond_atom_site_label_2
_ccdc_geom_bond_type
C45   H14   S    
C13   C99   A    
C77   N6    A    
C53   C58   A    
C77   H41   S    
N14   Ni1   S    
C51   H19   S    
C89   N18   A    
C14   C18   A    
C19   C20   A    
C50   H18   S    
C85   H44   S    
C41   H31   S    
C38   C98   S    
C71   H30   S    
N23   N25   A    
N8    N17   A    
C48   H16   S    
C46   C89   A    
C73   H37   S    
C59   H22   S    
C15   C19   A    
C29   C36   A    
C26   C27   S    
C50   C54   A    
C6    C85   A    
C83   F3    S    
N2    N10   A    
C60   C63   A    
N1    N22   A    
C31   C58   A    
N18   N28   A    
C84   N13   A    
C11   C23   S    
C79   C93   A    
C41   N28   A    
N12   Ni2   S    
C10   C15   A    
C86   H46   S    
C9    C88   A    
C4    C65   S    
C95   C99   A    
C7    C86   A    
C94   C98   A    
C16   C20   A    
C40   C49   A    
C95   H54   S    
C96   C100  A    
N3    Ni4   S    
C72   C90   A    
C35   N27   A    
C42   H32   S    
C85   N14   A    
N28   Ni5   S    
C62   H26   S    
N2    Ni1   S    
C6    C15   S    
C22   H61   S    
N4    N13   A    
C80   H43   S    
N20   Ni8   S    
C43   C68   A    
C49   C51   A    
N9    N32   A    
C74   N3    A    
C12   C17   A    
C24   H23   S    
C41   C46   A    
C31   C33   A    
N5    Ni6   S    
N20   N30   A    
C32   H9    S    
C43   N30   A    
C47   C53   A    
N6    Ni5   S    
C4    C74   A    
C93   H52   S    
C61   H25   S    
C7    C77   A    
N21   N31   A    
C48   C50   A    
N26   N27   A    
C74   H38   S    
C28   C34   A    
C59   C60   A    
C21   H60   S    
C87   H47   S    
C21   C22   A    
C8    C78   A    
C88   H48   S    
N3    N11   A    
N29   Ni6   S    
N23   Ni3   S    
N7    Ni8   S    
C61   C66   A    
C42   C57   A    
C2    C64   S    
C25   H2    S    
C63   C67   A    
C42   N29   A    
N11   Ni7   S    
N18   Ni6   S    
C12   C27   S    
C34   C39   A    
C29   H6    S    
C60   H24   S    
N13   Ni8   S    
C80   N8    A    
C91   H50   S    
N12   N24   A    
C87   N16   A    
C5    C84   A    
C28   C54   A    
N22   Ni2   S    
C81   F1    S    
N27   Ni4   S    
C29   C55   A    
C45   C52   A    
C34   H11   S    
C32   C37   A    
C20   H59   S    
C30   C56   A    
C17   C21   A    
C67   C69   A    
C19   H58   S    
C97   N26   A    
C5    C75   A    
N4    Ni3   S    
N8    Ni7   S    
C94   N22   A    
C72   N32   A    
C65   C70   A    
C26   H62   S    
C11   C16   A    
C3    C97   A    
C89   H49   S    
C66   C71   A    
C3    C35   A    
N24   Ni1   S    
C49   H17   S    
C46   C54   S    
C25   H56   S    
C82   F2    S    
C33   H10   S    
C64   C69   A    
C14   C26   S    
C36   H13   S    
N25   Ni4   S    
C38   C47   A    
C70   C71   A    
C2    C73   A    
C75   H39   S    
C58   C79   S    
C81   C90   A    
C95   N24   A    
C10   C25   S    
C88   N17   A    
N19   N29   A    
N5    N14   A    
C94   H53   S    
C97   H57   S    
C55   C57   S    
C7    C16   S    
C78   N7    A    
C84   F4    S    
C2    C82   A    
C37   C45   A    
C76   H40   S    
N1    Ni1   S    
C37   C99   S    
C36   C40   A    
C47   H15   S    
N17   Ni4   S    
C91   N19   A    
C76   N5    A    
C57   C91   A    
C62   C65   A    
N30   Ni7   S    
C24   C100  A    
N15   Ni2   S    
C44   C79   A    
C67   H27   S    
C8    C17   S    
C12   C14   A    
C5    C66   S    
C59   C64   A    
C26   H3    S    
C40   C100  S    
C31   H8    S    
N19   Ni5   S    
C92   N20   A    
C6    C76   A    
C93   N21   A    
C28   H5    S    
C44   H35   S    
C13   N12   A    
C33   C38   A    
C53   H21   S    
C83   N11   A    
C30   H7    S    
C8    C87   A    
C18   C22   A    
C1    C98   A    
C81   N9    A    
C35   H34   S    
C56   C68   S    
C30   C32   A    
C52   H20   S    
C86   N15   A    
C4    C83   A    
C27   H4    S    
N21   Ni7   S    
C70   H29   S    
N26   Ni3   S    
N10   Ni6   S    
C63   C90   S    
C1    N1    A    
N31   Ni8   S    
C68   C92   A    
N9    Ni5   S    
C43   H33   S    
C24   N23   A    
C51   C55   A    
C23   C25   S    
C23   H45   S    
C61   C62   A    
C13   H12   S    
C10   C11   A    
C78   H42   S    
C3    C39   S    
C23   H64   S    
C96   N25   A    
C9    C18   S    
C72   H36   S    
C96   H55   S    
C69   H28   S    
C44   N31   A    
N32   Ni2   S    
C92   H51   S    
C27   H63   S    
C75   N4    A    
N16   Ni3   S    
C39   C48   A    
C73   N2    A    
N6    N15   A    
C82   N10   A    
C9    C80   A    
C52   C56   A    
C1    H1    S    
N7    N16   A    
