data_mof_unit_31658.cif
_audit_creation_date              2012-12-10T18:59:16-0500
_audit_creation_method            fapswitch 2.2
_symmetry_space_group_name_H-M    P1
_symmetry_Int_Tables_number       1
_space_group_crystal_system       triclinic
_cell_length_a                    10.862347
_cell_length_b                    10.871434
_cell_length_c                    9.521308
_cell_angle_alpha                 91.189752
_cell_angle_beta                  89.476972
_cell_angle_gamma                 90.485342
_cell_volume                      1124.0366888

loop_
_atom_site_label
_atom_site_type_symbol
_atom_type_description
_atom_site_fract_x
_atom_site_fract_y
_atom_site_fract_z
_atom_type_partial_charge
C1    C     C_R   0.497378 0.262595 0.498731 0.804250
C2    C     C_R   0.059690 0.506248 0.635608 0.100123
C3    C     C_R   0.127032 0.511746 0.506721 -0.127307
C4    C     C_R   0.064163 0.503865 0.378964 -0.213278
C5    C     C_R   0.937535 0.491204 0.377324 -0.172800
C6    C     C_R   0.871520 0.476988 0.502688 -0.143061
C7    C     C_R   0.495893 0.068013 0.622810 0.038615
C8    C     C_R   0.486981 0.130089 0.497543 -0.090752
C9    C     C_R   0.464177 0.061522 0.373628 -0.201131
C10   C     C_R   0.464753 0.932724 0.376001 -0.185373
C11   C     C_R   0.490628 0.871303 0.501610 -0.177198
C12   C     C_R   0.261976 0.507356 0.501737 0.802242
C13   C     C_R   0.502766 0.942558 0.624751 0.093990
C14   C     C_3   0.584746 0.948446 0.752107 0.519960
C15   C     C_3   0.575788 0.088268 0.747190 -0.497655
C16   C     C_R   0.604088 0.531295 0.073517 0.201717
C17   C     C_R   0.402360 0.454907 0.074320 -0.081866
C18   C     C_R   0.402536 0.454637 0.925408 -0.069917
C19   C     C_R   0.604717 0.528754 0.925677 0.131313
C20   C     C_3   0.673145 0.646603 0.918623 -0.491438
C21   C     C_3   0.669225 0.652727 0.077597 0.400669
C22   C     C_R   0.499058 0.737884 0.501071 0.810125
C23   C     C_R   0.737344 0.489064 0.499999 0.811806
C24   C     C_R   0.110147 0.536614 0.768844 -0.198098
C25   C     C_R   0.049598 0.503491 0.892316 -0.130623
C26   C     C_R   0.938099 0.440406 0.885257 -0.119900
C27   C     C_R   0.880866 0.422872 0.755908 -0.176907
C28   C     C_R   0.935662 0.467914 0.631262 0.108252
Cu1   Cu    Cu3+1 0.499990 0.499980 0.640670 0.952703
Cu2   Cu    Cu3+1 0.500010 0.500020 0.359330 0.961146
H1    H     H_    0.112708 0.508658 0.279308 0.161300
H2    H     H_    0.524353 0.129848 0.837581 0.225372
H3    H     H_    0.663157 0.136800 0.719740 0.152529
H4    H     H_    0.322640 0.419724 0.129613 0.140946
H5    H     H_    0.323593 0.418238 0.869896 0.148038
H6    H     H_    0.766979 0.635758 0.873280 0.237791
H7    H     H_    0.616420 0.715797 0.868401 0.244761
H8    H     H_    0.612949 0.729214 0.122375 0.123928
H9    H     H_    0.193786 0.589916 0.780346 0.166894
H10   H     H_    0.090586 0.524558 0.993301 0.135786
H11   H     H_    0.893637 0.409074 0.980416 0.148780
H12   H     H_    0.794846 0.372208 0.754917 0.154335
H13   H     H_    0.891471 0.491574 0.277191 0.222770
H14   H     H_    0.450023 0.106711 0.274825 0.171868
H15   H     H_    0.449751 0.881935 0.278510 0.181313
N1    N     N_R   0.500790 0.500930 0.147930 -0.214641
N2    N     N_R   0.500790 0.500890 0.852020 -0.175061
O1    O     O_R   0.500000 0.319640 0.618810 -0.580911
O2    O     O_R   0.500010 0.319680 0.381230 -0.588356
O3    O     O_R   0.319640 0.499980 0.618820 -0.598175
O4    O     O_R   0.319650 0.500020 0.381230 -0.591438
O5    O     O_R   0.499990 0.680320 0.618770 -0.559834
O6    O     O_R   0.500000 0.680360 0.381190 -0.586618
O7    O     O_R   0.680350 0.499980 0.618770 -0.591842
O8    O     O_R   0.680360 0.500020 0.381180 -0.551671
C29   C     C_R   0.718140 0.906245 0.741804 0.038822
C30   C     C_R   0.772551 0.857763 0.617652 -0.180007
C31   C     C_R   0.894869 0.818586 0.616825 -0.112847
C32   C     C_R   0.965217 0.829306 0.738412 -0.106442
C33   C     C_R   0.913550 0.879486 0.861217 -0.112261
C34   C     C_R   0.791174 0.918263 0.862829 -0.118262
H16   H     H_    0.723222 0.851161 0.520315 0.130815
H17   H     H_    0.935476 0.780606 0.521314 0.153857
H18   H     H_    0.060073 0.799695 0.737127 0.135316
H19   H     H_    0.968241 0.888153 0.955407 0.149878
H20   H     H_    0.752585 0.956481 0.959376 0.164671
F1    F     F_    0.785332 0.645134 0.134665 -0.683478
F2    F     F_    0.522916 0.904919 0.869151 -0.697534

loop_
_geom_bond_atom_site_label_1
_geom_bond_atom_site_label_2
_ccdc_geom_bond_type
Cu2   O8    S    
C14   C29   S    
Cu2   O4    S    
C1    O1    A    
C23   O8    A    
Cu1   Cu2   S    
C21   F1    S    
C1    C8    S    
C18   H5    S    
C11   C22   S    
C12   O3    A    
C19   C20   S    
C7    C13   A    
Cu1   O7    S    
C18   N2    A    
C12   O4    A    
C10   H15   S    
C7    C15   S    
C17   C18   A    
C5    H13   S    
C17   N1    A    
C32   C33   A    
C13   C14   S    
C20   C21   S    
C20   H7    S    
C11   C13   A    
C27   H12   S    
C26   C27   A    
C16   C21   S    
Cu1   N2    S    
C16   C19   A    
C6    C23   S    
C9    C10   A    
Cu2   O2    S    
Cu2   N1    S    
C33   H19   S    
C2    C3    A    
C22   O6    A    
C30   C31   A    
Cu1   O3    S    
C25   H10   S    
C2    C24   A    
C5    C6    A    
Cu2   O6    S    
C19   N2    A    
C31   C32   A    
C4    H1    S    
C10   C11   A    
Cu1   O1    S    
C3    C4    A    
C20   H6    S    
C32   H18   S    
C7    C8    A    
C24   H9    S    
C24   C25   A    
C23   O7    A    
C22   O5    A    
C17   H4    S    
C16   N1    A    
C31   H17   S    
C29   C30   A    
C14   F2    S    
C14   C15   S    
C33   C34   A    
C9    H14   S    
C2    C28   A    
C3    C12   S    
C30   H16   S    
C25   C26   A    
C29   C34   A    
C4    C5    A    
C1    O2    A    
C34   H20   S    
C15   H3    S    
C6    C28   A    
C21   H8    S    
C26   H11   S    
C8    C9    A    
C27   C28   A    
Cu1   O5    S    
C15   H2    S    
