data_mof_unit_66728.cif
_audit_creation_date              2013-03-05T15:39:26-0500
_audit_creation_method            fapswitch 2.2
_symmetry_space_group_name_H-M    P1
_symmetry_Int_Tables_number       1
_space_group_crystal_system       triclinic
_cell_length_a                    20.669656
_cell_length_b                    22.644708
_cell_length_c                    8.869593
_cell_angle_alpha                 89.801635
_cell_angle_beta                  105.148136
_cell_angle_gamma                 90.033074
_cell_volume                      4007.21267337

loop_
_atom_site_label
_atom_site_type_symbol
_atom_site_description
_atom_site_fract_x
_atom_site_fract_y
_atom_site_fract_z
_atom_type_partial_charge
P1    P     P_3+3 0.859590 0.433890 0.993820 0.664449
P2    P     P_3+3 0.859590 0.566110 0.493820 0.656380
P3    P     P_3+3 0.359590 0.933890 0.993820 0.665084
P4    P     P_3+3 0.359590 0.066110 0.493820 0.665939
O1    O     O_2   0.866180 0.413660 0.823810 -0.258239
O2    O     O_2   0.866180 0.586340 0.323810 -0.286230
O3    O     O_2   0.366180 0.913660 0.823810 -0.255406
O4    O     O_2   0.366180 0.086340 0.323810 -0.284855
O5    O     O_3   0.922050 0.469730 0.097400 -0.365576
O6    O     O_3   0.922050 0.530270 0.597400 -0.338853
O7    O     O_3   0.422050 0.969730 0.097400 -0.371589
O8    O     O_3   0.422050 0.030270 0.597400 -0.324367
O9    O     O_3   0.976760 0.360270 0.628090 -0.328178
O10   O     O_3   0.976760 0.639730 0.128090 -0.364099
O11   O     O_3   0.476760 0.860270 0.628090 -0.327530
O12   O     O_3   0.476760 0.139730 0.128090 -0.311429
O13   O     O_2   0.863708 0.320811 0.674369 -0.249588
O14   O     O_2   0.863860 0.686281 0.150065 -0.333273
O15   O     O_2   0.363409 0.821489 0.674052 -0.242332
O16   O     O_2   0.363604 0.185526 0.153991 -0.335521
O17   O     O_3   0.782505 0.471984 0.953018 -0.509115
O18   O     O_3   0.781115 0.530896 0.451310 -0.519461
O19   O     O_3   0.283247 0.972895 0.954644 -0.510133
O20   O     O_3   0.280943 0.031122 0.451589 -0.517571
O21   O     O_3   0.944138 0.238298 0.646033 -0.581928
O22   O     O_3   0.952897 0.764766 0.144556 -0.529071
O23   O     O_3   0.443280 0.738649 0.645861 -0.583938
O24   O     O_3   0.455339 0.263063 0.155489 -0.559919
C1    C     C_3   0.008379 0.152097 0.595926 0.000518
C2    C     C_3   0.024780 0.844364 0.094199 -0.045839
C3    C     C_3   0.506407 0.651901 0.595538 0.005311
C4    C     C_3   0.518285 0.350793 0.105087 -0.022588
P5    P     P_3+3 0.140130 0.433190 0.695710 0.562736
P6    P     P_3+3 0.140130 0.566810 0.195710 0.529218
P7    P     P_3+3 0.640130 0.933190 0.695710 0.554842
P8    P     P_3+3 0.640130 0.066810 0.195710 0.538277
P9    P     P_3+3 0.090010 0.311420 0.124349 0.572207
P10   P     P_3+3 0.087645 0.691232 0.628668 0.585048
P11   P     P_3+3 0.590021 0.811311 0.125003 0.568989
P12   P     P_3+3 0.589543 0.189838 0.625503 0.566421
O25   O     O_2   0.133470 0.412980 0.865660 -0.272302
O26   O     O_2   0.133470 0.587020 0.365660 -0.264030
O27   O     O_2   0.633470 0.912980 0.865660 -0.270531
O28   O     O_2   0.633470 0.087020 0.365660 -0.260928
O29   O     O_3   0.022720 0.360150 0.061220 -0.359392
O30   O     O_3   0.022720 0.639850 0.561220 -0.360176
O31   O     O_3   0.522720 0.860150 0.061220 -0.358837
O32   O     O_3   0.522720 0.139850 0.561220 -0.359283
O33   O     O_2   0.137294 0.323124 0.020838 -0.322492
O34   O     O_2   0.141209 0.679415 0.538971 -0.293202
O35   O     O_2   0.637627 0.822947 0.021999 -0.322713
O36   O     O_2   0.641635 0.177803 0.532110 -0.315784
O37   O     O_3   0.217063 0.472506 0.740347 -0.522492
O38   O     O_3   0.217556 0.527941 0.238758 -0.565491
O39   O     O_3   0.717978 0.971242 0.740840 -0.524610
O40   O     O_3   0.717483 0.027703 0.238692 -0.566129
O41   O     O_3   0.058877 0.241050 0.060977 -0.578018
O42   O     O_3   0.055227 0.760394 0.556001 -0.492752
O43   O     O_3   0.558730 0.740996 0.061368 -0.577664
O44   O     O_3   0.557284 0.259197 0.553943 -0.536288
C5    C     C_3   0.015589 0.222011 0.150741 1.086938
C6    C     C_3   0.987626 0.765823 0.562659 1.086555
C7    C     C_3   0.515211 0.722072 0.150753 1.086757
C8    C     C_3   0.492862 0.267376 0.579063 1.092795
C9    C     C_3   0.988933 0.159138 0.098710 1.050196
C10   C     C_3   0.967036 0.832335 0.544015 1.029571
C11   C     C_3   0.487710 0.659562 0.097196 1.051062
C12   C     C_3   0.474714 0.334594 0.565186 0.988978
C13   C     C_3   0.218037 0.465992 0.257341 0.646149
C14   C     C_3   0.215814 0.534470 0.756119 0.647243
C15   C     C_3   0.717718 0.965782 0.256583 0.642253
C16   C     C_3   0.718263 0.033162 0.757141 0.651313
C17   C     C_3   0.284950 0.441366 0.228437 0.124937
C18   C     C_3   0.280925 0.560831 0.722953 0.041231
C19   C     C_3   0.784966 0.940731 0.229596 0.119603
C20   C     C_3   0.784476 0.058326 0.726628 0.061612
Ba1   Ba    Ba6+2 0.999900 0.456810 0.844860 1.706962
Ba2   Ba    Ba6+2 0.999900 0.543190 0.344860 1.707019
Ba3   Ba    Ba6+2 0.499900 0.956810 0.844860 1.710840
Ba4   Ba    Ba6+2 0.499900 0.043190 0.344860 1.723579
C21   C     C_3   0.787463 0.532095 0.918920 1.119282
C22   C     C_3   0.780810 0.471902 0.407303 1.124778
C23   C     C_3   0.289307 0.032653 0.918477 1.114986
C24   C     C_3   0.279859 0.972488 0.404287 1.150706
C25   C     C_3   0.718163 0.561465 0.905454 0.584447
C26   C     C_3   0.710038 0.447022 0.402669 0.544066
C27   C     C_3   0.221142 0.063529 0.909038 0.578694
C28   C     C_3   0.207762 0.948834 0.391868 0.521097
O45   O     O_3   0.077880 0.530130 0.092320 -0.409243
O46   O     O_3   0.077880 0.469870 0.592320 -0.402439
O47   O     O_3   0.577880 0.030130 0.092320 -0.407013
O48   O     O_3   0.577880 0.969870 0.592320 -0.407792
P13   P     P_3+3 0.918659 0.697228 0.062655 0.538148
P14   P     P_3+3 0.911882 0.307762 0.572224 0.586675
P15   P     P_3+3 0.418051 0.197443 0.066179 0.525649
P16   P     P_3+3 0.411485 0.808195 0.572033 0.590472
C29   C     C_3   0.990205 0.218707 0.564510 0.697244
C30   C     C_3   0.016125 0.776215 0.117578 0.703241
C31   C     C_3   0.489077 0.718627 0.564117 0.693497
C32   C     C_3   0.498415 0.285207 0.069324 0.536471
H1    H     H_    0.965698 0.222473 0.438425 0.062209
H2    H     H_    0.021438 0.752911 0.013139 -0.034774
H3    H     H_    0.464616 0.722463 0.438031 0.061483
H4    H     H_    0.470311 0.285880 0.946431 0.110713
C33   C     C_R   0.116812 0.645789 0.937942 -0.598300
C34   C     C_R   0.119897 0.357325 0.430694 -0.525634
C35   C     C_R   0.620605 0.143282 0.934158 -0.503820
C36   C     C_R   0.619469 0.856677 0.431957 -0.516210
C37   C     C_R   0.127508 0.692830 0.845035 0.154479
C38   C     C_R   0.138757 0.316072 0.333204 0.269290
C39   C     C_R   0.630918 0.190672 0.841751 0.168721
C40   C     C_R   0.638413 0.815482 0.334536 0.257146
C41   C     C_R   0.169763 0.739780 0.914979 0.432558
C42   C     C_R   0.195379 0.279834 0.391370 0.324924
C43   C     C_R   0.671007 0.238585 0.914237 0.474595
C44   C     C_R   0.695037 0.779188 0.392937 0.362317
C45   C     C_R   0.217104 0.731850 0.065068 -0.140941
C46   C     C_R   0.224669 0.274559 0.556261 -0.037226
C47   C     C_R   0.718034 0.230947 0.064716 -0.145750
C48   C     C_R   0.724723 0.774106 0.557990 -0.065869
C49   C     C_R   0.209342 0.677888 0.147161 -0.233602
C50   C     C_R   0.198410 0.314657 0.653360 -0.182160
C51   C     C_R   0.710491 0.176937 0.146746 -0.260412
C52   C     C_R   0.698197 0.814110 0.654859 -0.266578
C53   C     C_R   0.153131 0.639033 0.092901 0.286625
C54   C     C_R   0.151465 0.360766 0.589405 0.282950
C55   C     C_R   0.654418 0.138070 0.091469 0.327943
C56   C     C_R   0.651088 0.860247 0.590641 0.322623
C57   C     C_R   0.803743 0.282500 0.299469 0.334019
C58   C     C_R   0.833371 0.739776 0.770373 0.387628
C59   C     C_R   0.303020 0.783472 0.299600 0.330303
C60   C     C_R   0.331625 0.241327 0.767871 0.354692
C61   C     C_R   0.863863 0.313939 0.359000 0.048661
C62   C     C_R   0.876712 0.694531 0.845433 0.119311
C63   C     C_R   0.363452 0.814515 0.359195 0.052328
C64   C     C_R   0.376494 0.196756 0.845294 -0.027399
C65   C     C_R   0.849306 0.361876 0.102832 0.230705
C66   C     C_R   0.848078 0.636983 0.602547 0.196846
C67   C     C_R   0.349508 0.861888 0.102910 0.235239
C68   C     C_R   0.347679 0.137386 0.602849 0.205421
C69   C     C_R   0.802318 0.316864 0.035692 0.436449
C70   C     C_R   0.789831 0.673117 0.550170 0.414484
C71   C     C_R   0.303103 0.816420 0.035853 0.428907
C72   C     C_R   0.289247 0.173133 0.549958 0.378172
C73   C     C_R   0.775177 0.276907 0.132952 -0.245925
C74   C     C_R   0.783030 0.728879 0.626117 -0.314289
C75   C     C_R   0.274967 0.777283 0.133088 -0.238737
C76   C     C_R   0.282313 0.229113 0.624584 -0.208381
C77   C     C_R   0.883675 0.355643 0.261544 -0.533246
C78   C     C_R   0.888244 0.646634 0.755506 -0.510636
C79   C     C_R   0.383572 0.856014 0.261829 -0.529295
C80   C     C_R   0.388384 0.148939 0.754676 -0.461959
H5    H     H_    0.086414 0.609503 0.885360 0.136060
H6    H     H_    0.085701 0.391743 0.379985 0.114572
H7    H     H_    0.591541 0.106096 0.880450 0.109762
H8    H     H_    0.585260 0.891053 0.380967 0.108779
O49   O     O_3   0.048634 0.253630 0.600211 -0.724839
H9    H     H_    0.058974 0.264157 0.712454 0.318949
O50   O     O_3   0.067244 0.755792 0.244495 -0.736561
H10   H     H_    0.068637 0.712203 0.236781 0.351011
O51   O     O_3   0.547906 0.753032 0.599746 -0.720389
H11   H     H_    0.558177 0.763916 0.711748 0.320977
O52   O     O_3   0.555761 0.249496 0.089742 -0.759901
H12   H     H_    0.571079 0.238846 0.202042 0.343386
C81   C     C_2   0.344264 0.476913 0.322453 0.516480
H13   H     H_    0.351050 0.522068 0.287983 0.118415
O53   O     O_2   0.384326 0.456151 0.436506 -0.478502
C82   C     C_2   0.342444 0.529300 0.822522 0.608417
H14   H     H_    0.350199 0.483275 0.798821 0.155361
O54   O     O_2   0.383098 0.554187 0.927733 -0.520921
C83   C     C_2   0.844226 0.975387 0.326846 0.547998
H15   H     H_    0.851536 0.020757 0.294924 0.113791
O55   O     O_2   0.883744 0.953725 0.440325 -0.482976
C84   C     C_2   0.845164 0.026454 0.829334 0.594628
H16   H     H_    0.852056 0.979866 0.809942 0.134886
O56   O     O_2   0.886325 0.051764 0.932650 -0.530671
C85   C     C_2   0.294504 0.375862 0.269114 0.603749
H17   H     H_    0.294415 0.359245 0.382887 0.007063
O57   O     O_2   0.306200 0.340238 0.177295 -0.551169
C86   C     C_2   0.284454 0.627386 0.748504 0.816866
H18   H     H_    0.250072 0.649606 0.802893 -0.085387
O58   O     O_2   0.325845 0.657150 0.706861 -0.559678
C87   C     C_2   0.792636 0.875028 0.268041 0.621708
H19   H     H_    0.789464 0.858088 0.378950 -0.005953
O59   O     O_2   0.804782 0.839500 0.176594 -0.525226
C88   C     C_2   0.788513 0.125026 0.750518 0.818642
H20   H     H_    0.755468 0.147661 0.807949 -0.101692
O60   O     O_2   0.828893 0.154471 0.704313 -0.560087
O61   O     O_3   0.281305 0.448505 0.069125 -0.643837
H21   H     H_    0.326130 0.441037 0.052324 0.331933
O62   O     O_3   0.277943 0.550490 0.566172 -0.663992
H22   H     H_    0.322304 0.559186 0.548416 0.346449
O63   O     O_3   0.783591 0.948338 0.071670 -0.649138
H23   H     H_    0.828290 0.937688 0.057633 0.328658
O64   O     O_3   0.782727 0.047285 0.570792 -0.662990
H24   H     H_    0.827283 0.056404 0.554764 0.347917
O65   O     O_3   0.805743 0.538707 0.778920 -0.836164
H25   H     H_    0.785288 0.505513 0.712025 0.360346
O66   O     O_3   0.791373 0.468349 0.258439 -0.764982
H26   H     H_    0.837936 0.480788 0.268050 0.355010
O67   O     O_3   0.305728 0.037630 0.775861 -0.830825
H27   H     H_    0.281928 0.005385 0.709788 0.357415
O68   O     O_3   0.292570 0.969778 0.257480 -0.762138
H28   H     H_    0.339713 0.981066 0.270863 0.352183
O69   O     O_3   0.835208 0.558539 0.039849 -0.663203
H29   H     H_    0.842697 0.598071 0.002307 0.294971
O70   O     O_3   0.830212 0.440709 0.516351 -0.705698
H30   H     H_    0.820835 0.398746 0.493327 0.286868
O71   O     O_3   0.338986 0.058879 0.036124 -0.664396
H31   H     H_    0.348481 0.097097 0.994450 0.294866
O72   O     O_3   0.327421 0.939924 0.514517 -0.710475
H32   H     H_    0.316401 0.898135 0.491822 0.287745
O73   O     O_3   0.667245 0.528662 0.802750 -0.636951
H33   H     H_    0.673680 0.531980 0.696046 0.354114
O74   O     O_3   0.659959 0.487863 0.329905 -0.639696
H34   H     H_    0.658995 0.490226 0.217752 0.392591
O75   O     O_3   0.168403 0.030679 0.812311 -0.637339
H35   H     H_    0.173027 0.032423 0.703830 0.351488
O76   O     O_3   0.159693 0.990548 0.314475 -0.643396
H36   H     H_    0.159415 0.991193 0.202575 0.394245
C89   C     C_2   0.717787 0.625330 0.852394 0.289379
H37   H     H_    0.748436 0.657682 0.928620 0.058510
O77   O     O_2   0.682423 0.641517 0.726505 -0.572199
C90   C     C_2   0.698632 0.388706 0.318449 0.391468
H38   H     H_    0.691982 0.349476 0.382211 0.059121
O78   O     O_2   0.696094 0.385334 0.179783 -0.528800
C91   C     C_2   0.221159 0.126638 0.851216 0.294174
H39   H     H_    0.254004 0.158923 0.922379 0.054218
O79   O     O_2   0.183552 0.142382 0.727586 -0.578359
C92   C     C_2   0.196587 0.890589 0.306974 0.370269
H40   H     H_    0.184544 0.851825 0.365664 0.080432
O80   O     O_2   0.200135 0.886871 0.172248 -0.522571
O81   O     O_3   0.706255 0.560821 0.054234 -0.677101
H41   H     H_    0.660556 0.576816 0.043434 0.383605
O82   O     O_3   0.706210 0.437692 0.556970 -0.757529
H42   H     H_    0.658921 0.428626 0.554048 0.395494
O83   O     O_3   0.211747 0.065148 0.060139 -0.673191
H43   H     H_    0.166621 0.082082 0.051779 0.382662
O84   O     O_3   0.200203 0.939970 0.543325 -0.758120
H44   H     H_    0.152066 0.931853 0.533923 0.373295
O85   O     O_3   0.051395 0.135192 0.504276 -0.646060
H45   H     H_    0.062991 0.092731 0.523322 0.399338
O86   O     O_3   0.076985 0.853686 0.022736 -0.674316
H46   H     H_    0.061572 0.841631 0.912419 0.369361
O87   O     O_3   0.548157 0.634122 0.501653 -0.645919
H47   H     H_    0.559065 0.591530 0.520494 0.400164
O88   O     O_3   0.564244 0.368116 0.021214 -0.636462
H48   H     H_    0.542484 0.362927 0.908744 0.381981
C93   C     C_2   0.044153 0.140895 0.764912 0.771755
H49   H     H_    0.068541 0.176425 0.839448 0.029082
O89   O     O_2   0.050336 0.090646 0.817053 -0.488059
C94   C     C_2   0.044565 0.876957 0.247473 0.746907
H50   H     H_    0.069711 0.854271 0.354479 0.068705
O90   O     O_2   0.035092 0.930091 0.253382 -0.522510
C95   C     C_2   0.543137 0.640664 0.763888 0.773477
H51   H     H_    0.567387 0.676231 0.838494 0.027565
O91   O     O_2   0.549975 0.590347 0.815483 -0.492778
C96   C     C_2   0.552068 0.360099 0.274206 0.760027
H52   H     H_    0.577753 0.324157 0.345716 0.005482
O92   O     O_2   0.553986 0.409247 0.331589 -0.522346
O93   O     O_3   0.949039 0.138145 0.194635 -0.762924
H53   H     H_    0.901492 0.147460 0.143733 0.296084
O94   O     O_3   0.912795 0.843209 0.607617 -0.693111
H54   H     H_    0.875503 0.817553 0.551830 0.250625
O95   O     O_3   0.447355 0.638741 0.192280 -0.761528
H55   H     H_    0.400048 0.649179 0.142085 0.295282
O96   O     O_3   0.427334 0.347853 0.648877 -0.705751
H56   H     H_    0.384029 0.330425 0.591147 0.315557
O97   O     O_3   0.772191 0.262085 0.408573 -0.688173
H57   H     H_    0.723822 0.257424 0.357530 0.335364
O98   O     O_3   0.846356 0.794795 0.836097 -0.721944
H58   H     H_    0.828860 0.824965 0.754921 0.364176
O99   O     O_3   0.270511 0.764436 0.408261 -0.681639
H59   H     H_    0.222230 0.759989 0.356091 0.351852
O100  O     O_3   0.340767 0.298746 0.819158 -0.717826
H60   H     H_    0.360340 0.298790 0.933076 0.340230
O101  O     O_3   0.162573 0.792184 0.833064 -0.679420
H61   H     H_    0.175809 0.824721 0.908884 0.400792
O102  O     O_3   0.221630 0.252102 0.282422 -0.685273
H62   H     H_    0.270706 0.248631 0.326044 0.346405
O103  O     O_3   0.660952 0.292005 0.836957 -0.677378
H63   H     H_    0.671284 0.323679 0.916238 0.400960
O104  O     O_3   0.721273 0.751616 0.283739 -0.688633
H64   H     H_    0.770403 0.748489 0.326867 0.341669
O105  O     O_3   0.787218 0.311368 0.876225 -0.644538
H65   H     H_    0.782761 0.268638 0.851965 0.341968
O106  O     O_3   0.739143 0.650520 0.431403 -0.637863
H66   H     H_    0.696120 0.664797 0.446509 0.377242
O107  O     O_3   0.289649 0.809593 0.876979 -0.645968
H67   H     H_    0.283866 0.766792 0.854580 0.346034
O108  O     O_3   0.238818 0.150440 0.430805 -0.634970
H68   H     H_    0.195731 0.165082 0.444623 0.374238
C97   C     C_2   0.264585 0.657373 0.275816 0.832638
H69   H     H_    0.315395 0.657715 0.264429 -0.097205
O109  O     O_2   0.254002 0.644251 0.399862 -0.505239
C98   C     C_2   0.216109 0.306676 0.821077 0.814501
H70   H     H_    0.213653 0.263454 0.872377 -0.006028
O110  O     O_2   0.238899 0.348276 0.903632 -0.441770
C99   C     C_2   0.766233 0.156056 0.274326 0.835496
H71   H     H_    0.817071 0.158555 0.263657 -0.095547
O111  O     O_2   0.756067 0.140090 0.396808 -0.504960
C100  C     C_2   0.717428 0.806879 0.822818 0.784537
H72   H     H_    0.716412 0.763801 0.875985 0.028776
O112  O     O_2   0.739780 0.849112 0.903206 -0.447639
C101  C     C_2   0.942410 0.392214 0.323073 0.724134
H73   H     H_    0.984658 0.386058 0.277840 -0.003538
O113  O     O_2   0.941338 0.432980 0.411356 -0.515254
C102  C     C_2   0.944022 0.606962 0.820150 0.767732
H74   H     H_    0.986857 0.609810 0.776112 -0.029083
O114  O     O_2   0.939270 0.566597 0.907398 -0.488772
C103  C     C_2   0.442147 0.892848 0.323609 0.717238
H75   H     H_    0.484070 0.887766 0.276454 -0.001521
O115  O     O_2   0.441080 0.933013 0.413673 -0.516571
C104  C     C_2   0.447501 0.113862 0.818364 0.783450
H76   H     H_    0.493887 0.132347 0.812581 -0.023963
O116  O     O_2   0.444702 0.067476 0.885971 -0.502457
C105  C     C_2   0.945292 0.115444 0.548617 0.634771
H77   H     H_    0.897050 0.136353 0.503025 0.020319
O117  O     O_2   0.948265 0.061669 0.557661 -0.516098
C106  C     C_2   0.960133 0.872086 0.998005 0.663762
H78   H     H_    0.914276 0.866426 0.034019 0.073568
O118  O     O_2   0.959491 0.903981 0.886417 -0.478254
C107  C     C_2   0.442660 0.616052 0.551400 0.628410
H79   H     H_    0.394723 0.637489 0.505789 0.019409
O119  O     O_2   0.444707 0.562327 0.563230 -0.513152
C108  C     C_2   0.456403 0.389220 0.059848 0.652806
H80   H     H_    0.414653 0.379812 0.108169 0.019158
O120  O     O_2   0.453142 0.431014 0.970946 -0.495391
O121  O     O_3   0.961603 0.261785 0.129912 -0.802956
H81   H     H_    0.930608 0.246744 0.189104 0.237074
O122  O     O_3   0.946785 0.731777 0.442629 -0.687151
H82   H     H_    0.901576 0.729577 0.461036 0.259416
O123  O     O_3   0.461707 0.762314 0.130896 -0.803258
H83   H     H_    0.430609 0.747455 0.190001 0.236432
O124  O     O_3   0.445960 0.234213 0.468117 -0.702085
H84   H     H_    0.402493 0.236764 0.495297 0.249459
O125  O     O_3   0.050972 0.220055 0.308068 -0.752047
H85   H     H_    0.092703 0.197517 0.314709 0.349574
O126  O     O_3   0.979806 0.745922 0.706455 -0.860946
H86   H     H_    0.015047 0.766482 0.784016 0.271238
O127  O     O_3   0.550587 0.719436 0.308080 -0.749207
H87   H     H_    0.592057 0.696534 0.314311 0.350401
O128  O     O_3   0.492280 0.248155 0.728445 -0.853076
H88   H     H_    0.532101 0.266690 0.799145 0.316257
O129  O     O_3   0.952168 0.159717 0.940841 -0.750578
H89   H     H_    0.917127 0.190587 0.927419 0.325910
O130  O     O_3   0.949727 0.849787 0.387299 -0.792133
H90   H     H_    0.912728 0.824464 0.330983 0.333930
O131  O     O_3   0.451123 0.660813 0.939210 -0.750849
H91   H     H_    0.416581 0.692111 0.926157 0.328131
O132  O     O_3   0.449688 0.351994 0.409011 -0.769399
H92   H     H_    0.411956 0.325985 0.360067 0.313487
O133  O     O_3   0.043869 0.120960 0.115776 -0.708420
H93   H     H_    0.025592 0.080360 0.095031 0.415572
O134  O     O_3   0.021578 0.866751 0.624762 -0.709583
H94   H     H_    0.007557 0.908755 0.609460 0.419575
O135  O     O_3   0.542113 0.620818 0.113751 -0.712221
H95   H     H_    0.523252 0.580464 0.091662 0.413712
O136  O     O_3   0.533075 0.367288 0.629467 -0.703762
H96   H     H_    0.519982 0.409607 0.623106 0.415451
C109  C     C_2   0.214178 0.455302 0.419477 0.312822
H97   H     H_    0.170770 0.473243 0.447670 0.118413
O137  O     O_2   0.259192 0.432089 0.519099 -0.575013
C110  C     C_2   0.214328 0.545591 0.919238 0.295094
H98   H     H_    0.172866 0.526282 0.952910 0.132976
O138  O     O_2   0.259230 0.571521 0.012520 -0.648181
C111  C     C_2   0.713119 0.955052 0.418228 0.314058
H99   H     H_    0.669697 0.973186 0.445993 0.116407
O139  O     O_2   0.757607 0.931250 0.517918 -0.587149
C112  C     C_2   0.716003 0.044479 0.919731 0.286913
H100  H     H_    0.674028 0.025728 0.952616 0.131144
O140  O     O_2   0.760883 0.070093 0.013882 -0.648481
O141  O     O_3   0.164145 0.439260 0.149733 -0.688108
H101  H     H_    0.124217 0.438237 0.191600 0.287422
O142  O     O_3   0.160167 0.560029 0.650314 -0.693858
H102  H     H_    0.121797 0.562377 0.697487 0.287872
O143  O     O_3   0.663993 0.939331 0.147991 -0.690141
H103  H     H_    0.624033 0.937675 0.189741 0.286973
O144  O     O_3   0.663838 0.059622 0.649800 -0.700642
H104  H     H_    0.624503 0.061184 0.693533 0.289612

loop_
_geom_bond_atom_site_label_1
_geom_bond_atom_site_label_2
_geom_bond_distance
_ccdc_geom_bond_type
C31   H3    1.103500 S    
C95   O91   1.220843 D    
C48   C74   1.575762 S    
O49   H9    0.991979 S    
C58   C74   1.444574 A    
P1    Ba1   3.524488 S    
C70   C74   1.457243 A    
C28   C92   1.508506 S    
O108  H68   0.987813 S    
P6    O26   1.616759 D    
P3    Ba3   3.524488 S    
O125  H85   0.990821 S    
O123  H83   0.987869 S    
C83   O55   1.219941 D    
Ba1   O45   2.888816 S    
O135  H95   0.993129 S    
C25   O81   1.404204 S    
O18   C22   1.392600 S    
O3    Ba3   2.890928 S    
C59   O99   1.378925 S    
C11   O95   1.412014 S    
O98   H58   0.988298 S    
C32   H4    1.093061 S    
C69   O105  1.372557 S    
C108  O120  1.220303 D    
C15   O143  1.401381 S    
O100  H60   0.985376 S    
C14   C18   1.568085 S    
C108  H80   1.079919 S    
P4    O8    1.595499 S    
C68   C80   1.414155 A    
C57   C73   1.446191 A    
O121  H81   0.988119 S    
C69   C73   1.457574 A    
O22   P13   1.762188 S    
C77   C101  1.453680 S    
O66   H26   0.984831 S    
O87   H47   0.994199 S    
C58   C62   1.407165 A    
C64   C80   1.410115 A    
C86   O58   1.218789 D    
O51   H11   0.992016 S    
P16   C63   1.894386 S    
C7    C11   1.554048 S    
Ba2   O45   3.097534 S    
C4    C32   1.552269 S    
O62   H22   0.989635 S    
P2    C66   1.921830 S    
O144  H104  0.988788 S    
P8    Ba4   3.526299 S    
O11   P16   1.763452 S    
C104  H76   1.059339 S    
C30   H2    1.097831 S    
C28   O84   1.406093 S    
C43   O103  1.377116 S    
O12   Ba4   2.862865 S    
Ba4   O48   2.881141 S    
C87   H19   1.072496 S    
P2    Ba2   3.526324 S    
C20   O64   1.396629 S    
C2    C106  1.519525 S    
C91   H39   1.082792 S    
O23   C31   1.410248 S    
P10   C37   1.880734 S    
C92   O80   1.219388 D    
C23   O71   1.392673 S    
C57   C61   1.410135 A    
P8    O47   1.604302 S    
C82   H14   1.084173 S    
P6    O38   1.778102 S    
P8    O28   1.616759 D    
P9    O29   1.748192 S    
C10   O94   1.402730 S    
C16   C112  1.478283 S    
P11   O31   1.750546 S    
P12   O32   1.762169 S    
O69   H29   0.980259 S    
C51   C99   1.465282 S    
C24   C28   1.559971 S    
O142  H102  0.990217 S    
O41   C5    1.410608 S    
C47   C51   1.449963 A    
O43   C7    1.411121 S    
C28   O76   1.410954 S    
C33   C53   1.391195 A    
O9    P14   1.764238 S    
O44   C8    1.418679 S    
C4    C96   1.495543 S    
C35   C55   1.392301 A    
C23   O67   1.396902 S    
P6    C53   1.922431 S    
C71   O107  1.372437 S    
C32   O52   1.406988 S    
P3    O7    1.597974 S    
O124  H84   0.990974 S    
C5    C9    1.553826 S    
O63   H23   0.993908 S    
O136  H96   0.993343 S    
C44   O104  1.378781 S    
C88   H20   1.082943 S    
P9    O41   1.756503 S    
C106  O118  1.220503 D    
C94   H50   1.083494 S    
P11   O35   1.529775 D    
C79   C103  1.455023 S    
O131  H91   0.991107 S    
P12   O44   1.757103 S    
C49   C97   1.462096 S    
C96   O92   1.221714 D    
O132  H92   0.983815 S    
C14   O142  1.404107 S    
C112  H100  1.071952 S    
C24   O72   1.399866 S    
C49   C53   1.437094 A    
C93   H49   1.080516 S    
C89   H37   1.083583 S    
C8    C12   1.564611 S    
P4    Ba4   3.526324 S    
C16   O144  1.402860 S    
O93   H53   0.990910 S    
O2    Ba2   2.891570 S    
C110  H98   1.071113 S    
O85   H45   0.994223 S    
C46   C50   1.452962 A    
C84   H16   1.084939 S    
C12   O96   1.407858 S    
C67   C71   1.427865 A    
O11   Ba3   2.872592 S    
C2    C94   1.508696 S    
C101  O113  1.216524 D    
C59   C75   1.445973 A    
P7    O27   1.613756 D    
O81   H41   0.992703 S    
C38   C42   1.411364 A    
O10   P13   1.762561 S    
Ba3   O47   2.888816 S    
C70   O106  1.376767 S    
C107  H79   1.082019 S    
C81   O53   1.220426 D    
P10   O42   1.756624 S    
O83   H43   0.993281 S    
O61   H21   0.990855 S    
C13   O141  1.402074 S    
C102  O114  1.216019 D    
O107  H67   0.990924 S    
C100  O112  1.211804 D    
C6    C10   1.561777 S    
C17   C81   1.521712 S    
O75   H35   0.992109 S    
C44   C48   1.436088 A    
C107  O119  1.220540 D    
C1    C93   1.508639 S    
P2    O18   1.757850 S    
C97   H69   1.081055 S    
C51   C55   1.436355 A    
C60   C64   1.419085 A    
O71   H31   0.979592 S    
Ba3   O48   3.095876 S    
C36   C56   1.390903 A    
C42   O102  1.378825 S    
C41   C45   1.442102 A    
O21   C29   1.410256 S    
C91   O79   1.218976 D    
C85   H17   1.076222 S    
C43   C47   1.441078 A    
C103  O115  1.216608 D    
C98   O110  1.212216 D    
C50   C98   1.446793 S    
C40   C44   1.412442 A    
P1    C65   1.932729 S    
O134  H94   0.992977 S    
C33   C37   1.396958 A    
C35   C39   1.397769 A    
C9    O93   1.411825 S    
C15   C111  1.480692 S    
O96   H56   0.990257 S    
C2    C30   1.572695 S    
C3    C95   1.508595 S    
C20   C84   1.524325 S    
C96   H52   1.080504 S    
P6    O45   1.604302 S    
C22   O66   1.396036 S    
C58   O98   1.373683 S    
P5    Ba1   3.528195 S    
C67   C79   1.407262 A    
P15   C64   1.922772 S    
O65   H25   0.983584 S    
C35   H7    1.072162 S    
P10   O30   1.759564 S    
C12   O132  1.401281 S    
C18   O62   1.396352 S    
P3    C67   1.931866 S    
C78   C102  1.455046 S    
O104  H64   0.989672 S    
O14   P13   1.550093 D    
C13   C109  1.480052 S    
O29   Ba1   2.862724 S    
C25   C89   1.518699 S    
C21   C25   1.555470 S    
C10   O134  1.404313 S    
O42   C6    1.419290 S    
C23   C27   1.555664 S    
C27   O83   1.404131 S    
C33   H5    1.066017 S    
O84   H44   0.993600 S    
C83   H15   1.085677 S    
C90   H38   1.079321 S    
C18   C82   1.521982 S    
O133  H93   0.993109 S    
O94   H54   0.989287 S    
O73   H33   0.992143 S    
Ba2   O46   2.881141 S    
C109  O137  1.220831 D    
O19   C23   1.402709 S    
P1    O1    1.616922 D    
P3    O3    1.616922 D    
C21   O65   1.396779 S    
P4    O20   1.758672 S    
C4    C108  1.511587 S    
C104  O116  1.216555 D    
O86   H46   0.986027 S    
O8    Ba3   2.881995 S    
P14   C61   1.897018 S    
C7    O123  1.408076 S    
C105  O117  1.220601 D    
C31   O51   1.408990 S    
C111  H99   1.073059 S    
C34   H6    1.068348 S    
O82   H42   0.992346 S    
C13   C17   1.573768 S    
C10   O130  1.397410 S    
C3    C31   1.560323 S    
P4    O4    1.613915 D    
C52   C56   1.439202 A    
P7    O48   1.601782 S    
C82   O54   1.219760 D    
C9    O133  1.403588 S    
O21   P14   1.764471 S    
C72   O108  1.376554 S    
O97   H57   0.989596 S    
O23   P16   1.763510 S    
O37   C14   1.411517 S    
Ba1   O46   3.095876 S    
C4    O88   1.405906 S    
O70   H30   0.981152 S    
O28   Ba4   2.893666 S    
P1    O5    1.597974 S    
C66   C70   1.428634 A    
O76   H36   0.991081 S    
O30   Ba2   2.872451 S    
O64   H24   0.989460 S    
C22   C26   1.557815 S    
C60   O100  1.375559 S    
C36   C40   1.397487 A    
O122  H82   0.990947 S    
O105  H65   0.990966 S    
P8    O40   1.779508 S    
P9    O33   1.528177 D    
O126  H86   0.980059 S    
C36   H8    1.068413 S    
C12   O136  1.403853 S    
O40   C15   1.410458 S    
P11   O43   1.756831 S    
C111  O139  1.220748 D    
C3    C107  1.509900 S    
P9    C38   1.866450 S    
C24   O68   1.395589 S    
P11   C40   1.868931 S    
C27   C91   1.516680 S    
C88   O60   1.218767 D    
C41   O101  1.376954 S    
O130  H90   0.982355 S    
C86   H18   1.082663 S    
C94   O90   1.222648 D    
C65   C69   1.427448 A    
C68   C72   1.427028 A    
C112  O140  1.221546 D    
C47   C73   1.572860 S    
C34   C54   1.390718 A    
C45   C75   1.574372 S    
P5    O25   1.613756 D    
Ba4   O47   3.097534 S    
C46   C76   1.570241 S    
O102  H62   0.989759 S    
C92   H40   1.080641 S    
C7    O127  1.397021 S    
O38   C13   1.411635 S    
C63   C79   1.408358 A    
P5    C54   1.939121 S    
C110  O138  1.221518 D    
O5    Ba2   2.889685 S    
O74   H34   0.990986 S    
P7    C56   1.941530 S    
C84   O56   1.219714 D    
C52   C100  1.446717 S    
O7    Ba4   2.889685 S    
C97   O109  1.212487 D    
C101  H73   1.061415 S    
C6    O126  1.399843 S    
Ba1   Ba2   4.840815 S    
O141  H101  0.989771 S    
C17   O61   1.404012 S    
O128  H88   0.989215 S    
P1    O17   1.764038 S    
C81   H13   1.085711 S    
O67   H27   0.985134 S    
P3    O19   1.761770 S    
O52   H12   0.992037 S    
O31   Ba3   2.862724 S    
C72   C76   1.456440 A    
C19   C87   1.524312 S    
O127  H87   0.991124 S    
C66   C78   1.410961 A    
C71   C75   1.457307 A    
O24   P15   1.765583 S    
C59   C63   1.410785 A    
C87   O59   1.216282 D    
O25   Ba1   2.894321 S    
C8    O124  1.406348 S    
C6    O122  1.405577 S    
O27   Ba3   2.894321 S    
C62   C78   1.405352 A    
C11   O135  1.403469 S    
C80   C104  1.442347 S    
P7    Ba3   3.528195 S    
C45   C49   1.450420 A    
C26   O74   1.411073 S    
O50   H10   0.990611 S    
O95   H55   0.991071 S    
O39   C16   1.409955 S    
C37   C41   1.413612 A    
C17   C85   1.526035 S    
O24   C32   1.407388 S    
O10   Ba2   2.862865 S    
C5    O125  1.396528 S    
C65   C77   1.407950 A    
P2    O2    1.613915 D    
C26   C90   1.507276 S    
C22   O70   1.398962 S    
O6    Ba1   2.881995 S    
P12   C39   1.885090 S    
P5    O37   1.774780 S    
O9    Ba1   2.872592 S    
C93   O89   1.220902 D    
P7    O39   1.776524 S    
C60   C76   1.433760 A    
C61   C77   1.409131 A    
P13   C62   1.896111 S    
C11   O131  1.407899 S    
C99   H71   1.080855 S    
C103  H75   1.062494 S    
C85   O57   1.216602 D    
O103  H63   0.989628 S    
P12   O36   1.545265 D    
C29   O49   1.408892 S    
C50   C54   1.436279 A    
C9    O129  1.407866 S    
O72   H32   0.982330 S    
C25   O73   1.411386 S    
P4    C68   1.933016 S    
O99   H59   0.989454 S    
C16   C20   1.569277 S    
C99   O111  1.213076 D    
O143  H103  0.990181 S    
C42   C46   1.433823 A    
O22   C30   1.412479 S    
C19   O63   1.403592 S    
O16   P15   1.549918 D    
O17   C21   1.402841 S    
O26   Ba2   2.893666 S    
C2    O86   1.402483 S    
O106  H66   0.988023 S    
C19   C83   1.520396 S    
P8    C55   1.917764 S    
C95   H51   1.080587 S    
P2    O6    1.595499 S    
C20   C88   1.525121 S    
C102  H74   1.058850 S    
C21   O69   1.390514 S    
C34   C38   1.398042 A    
C100  H72   1.084605 S    
C98   H70   1.084658 S    
O12   P15   1.769375 S    
C90   O78   1.219911 D    
C39   C43   1.415105 A    
O88   H48   0.988689 S    
P10   O34   1.546768 D    
C109  H97   1.072845 S    
C8    O128  1.396226 S    
C26   O82   1.406589 S    
C1    C29   1.561080 S    
C106  H78   1.083832 S    
O32   Ba4   2.872451 S    
O20   C24   1.392249 S    
C89   O77   1.219159 D    
P5    O46   1.601782 S    
P6    Ba2   3.526299 S    
C15   C19   1.576987 S    
C27   O75   1.411528 S    
C105  H77   1.081903 S    
C1    C105  1.510143 S    
C57   O97   1.379097 S    
Ba3   Ba4   4.840815 S    
C18   C86   1.523699 S    
C30   O50   1.404586 S    
O4    Ba4   2.891570 S    
C1    O85   1.406478 S    
C3    O87   1.406588 S    
C14   C110  1.477616 S    
O13   P14   1.540550 D    
O68   H28   0.984070 S    
C5    O121  1.408102 S    
O129  H89   0.991149 S    
O101  H61   0.988425 S    
O1    Ba1   2.890928 S    
C29   H1    1.103557 S    
O15   P16   1.539172 D    
C48   C52   1.453124 A    
