data_mof_unit_6714.cif
_audit_creation_date              2012-12-10T19:43:26-0500
_audit_creation_method            fapswitch 2.2
_symmetry_space_group_name_H-M    P1
_symmetry_Int_Tables_number       1
_space_group_crystal_system       triclinic
_cell_length_a                    10.961772
_cell_length_b                    10.937026
_cell_length_c                    9.922615
_cell_angle_alpha                 89.567807
_cell_angle_beta                  92.051544
_cell_angle_gamma                 93.447555
_cell_volume                      1186.68288049

loop_
_atom_site_label
_atom_site_type_symbol
_atom_type_description
_atom_site_fract_x
_atom_site_fract_y
_atom_site_fract_z
_atom_type_partial_charge
C1    C     C_R   0.509976 0.263889 0.501674 0.839560
C2    C     C_R   0.140209 0.621015 0.990677 0.040189
C3    C     C_R   0.925073 0.453527 0.382384 0.138502
C4    C     C_R   0.868219 0.460226 0.504972 -0.179544
C5    C     C_R   0.938990 0.424087 0.618494 -0.027295
C6    C     C_R   0.068469 0.425250 0.609982 0.337586
C7    C     C_R   0.125414 0.476054 0.496042 -0.179003
C8    C     C_R   0.050080 0.488932 0.379251 -0.096415
C9    C     C_R   0.863008 0.451249 0.846256 0.345049
C10   C     C_R   0.828205 0.400675 0.971843 0.370780
C11   C     C_R   0.822885 0.273484 0.990601 -0.197893
C12   C     C_R   0.262115 0.495204 0.497927 0.826613
C13   C     C_R   0.849652 0.196218 0.886332 -0.155055
C14   C     C_R   0.872291 0.244005 0.758562 0.146766
C15   C     C_R   0.882480 0.372418 0.739762 0.010870
C16   C     C_R   0.534309 0.097831 0.755328 0.389876
C17   C     C_R   0.496398 0.024301 0.865846 -0.057065
C18   C     C_R   0.414198 0.922623 0.843691 0.173234
C19   C     C_R   0.390161 0.881816 0.712604 0.466371
C20   C     C_R   0.457710 0.936257 0.608413 -0.244620
C21   C     C_R   0.502790 0.058026 0.623358 -0.072692
C22   C     C_R   0.523642 0.129236 0.505590 -0.111600
C23   C     C_R   0.493203 0.736582 0.498155 0.817027
C24   C     C_R   0.542225 0.067609 0.385465 0.276011
C25   C     C_R   0.515896 0.939800 0.377290 0.314321
C26   C     C_R   0.484110 0.871973 0.492857 -0.158602
C27   C     C_R   0.649375 0.691693 0.132329 0.205090
C28   C     C_R   0.703200 0.786950 0.053085 0.386128
C29   C     C_R   0.698264 0.778000 0.913729 -0.013153
C30   C     C_R   0.639934 0.675919 0.855122 -0.176484
C31   C     C_R   0.567839 0.589326 0.925944 0.073960
C32   C     C_R   0.569211 0.592748 0.073494 0.149574
C33   C     C_R   0.435696 0.413685 0.070391 0.167696
C34   C     C_R   0.735494 0.486162 0.502554 0.795665
C35   C     C_R   0.434321 0.415202 0.924563 0.247946
C36   C     C_R   0.131566 0.704149 0.094963 -0.090290
C37   C     C_R   0.109411 0.662777 0.225621 0.339449
C38   C     C_R   0.096518 0.534435 0.250875 -0.044487
C39   C     C_R   0.107956 0.451001 0.144605 0.411538
C40   C     C_R   0.125852 0.496049 0.016040 -0.245152
Cu1   Cu    Cu3+1 0.499990 0.499990 0.640660 1.007305
Cu2   Cu    Cu3+1 0.500010 0.500010 0.359340 0.988519
H1    H     H_    0.795639 0.233250 0.085431 0.189753
H2    H     H_    0.845046 0.098362 0.902310 0.188117
H3    H     H_    0.139553 0.801495 0.074310 0.190160
H4    H     H_    0.660075 0.663543 0.752807 0.248764
H5    H     H_    0.127090 0.433008 0.934879 0.198397
N1    N     N_R   0.501190 0.501210 0.147910 -0.186002
N2    N     N_R   0.501230 0.501290 0.852040 -0.197108
O1    O     O_R   0.499990 0.319640 0.618810 -0.520523
O2    O     O_R   0.500000 0.319660 0.381240 -0.574045
O3    O     O_R   0.319640 0.500000 0.618780 -0.496366
O4    O     O_R   0.319650 0.500020 0.381210 -0.622929
O5    O     O_R   0.500000 0.680340 0.618760 -0.597230
O6    O     O_R   0.500010 0.680360 0.381190 -0.514784
O7    O     O_R   0.680350 0.499980 0.618790 -0.574081
O8    O     O_R   0.680360 0.500000 0.381220 -0.548304
N3    N     N_3   0.167374 0.663371 0.858872 -0.473946
H6    H     H_    0.245214 0.619883 0.831867 0.297306
H7    H     H_    0.096480 0.633154 0.792163 0.273843
N4    N     N_3   0.885017 0.160915 0.649504 -0.561142
H8    H     H_    0.971839 0.175854 0.610316 0.215810
H9    H     H_    0.820269 0.180087 0.573502 0.233187
O9    O     O_3   0.595923 0.131664 0.280938 -0.763960
H10   H     H_    0.647131 0.075095 0.233883 0.359565
O10   O     O_3   0.615525 0.197298 0.773385 -0.710676
H11   H     H_    0.604814 0.233429 0.862712 0.323100
N5    N     N_3   0.544003 0.049267 0.998640 -0.605902
H12   H     H_    0.639216 0.052839 0.996482 0.257653
H13   H     H_    0.517186 0.134333 0.027827 0.226160
N6    N     N_3   0.358940 0.857089 0.952889 -0.523563
H14   H     H_    0.319242 0.920072 0.013956 0.225345
H15   H     H_    0.427474 0.815126 0.008589 0.241934
O11   O     O_3   0.299782 0.791334 0.687596 -0.702197
H16   H     H_    0.275256 0.792307 0.590436 0.315987
O12   O     O_3   0.509555 0.882823 0.254681 -0.729209
H17   H     H_    0.470592 0.939638 0.191374 0.352324
N7    N     N_3   0.366380 0.315925 0.133550 -0.593809
H18   H     H_    0.425952 0.250634 0.166103 0.269802
H19   H     H_    0.325591 0.348969 0.217335 0.280732
N8    N     N_3   0.699347 0.689376 0.266363 -0.452142
H20   H     H_    0.792553 0.674307 0.261864 0.226575
H21   H     H_    0.694731 0.774128 0.313071 0.272147
O13   O     O_3   0.772460 0.880399 0.118520 -0.746218
H22   H     H_    0.816548 0.933566 0.053144 0.347620
N9    N     N_3   0.763089 0.866449 0.831212 -0.605192
H23   H     H_    0.701715 0.898498 0.758075 0.241750
H24   H     H_    0.830261 0.822495 0.781101 0.260091
N10   N     N_3   0.361680 0.322853 0.852609 -0.467927
H25   H     H_    0.274807 0.319246 0.891247 0.246075
H26   H     H_    0.394239 0.238731 0.879371 0.194697
O14   O     O_3   0.097558 0.750648 0.322965 -0.725994
H27   H     H_    0.088219 0.711590 0.412401 0.326418
O15   O     O_3   0.098604 0.325283 0.160717 -0.720288
H28   H     H_    0.114714 0.304795 0.256806 0.325551
N11   N     N_3   0.879829 0.359032 0.290803 -0.513912
H29   H     H_    0.913811 0.276860 0.325893 0.209443
H30   H     H_    0.785209 0.343792 0.293360 0.278629
O16   O     O_3   0.141501 0.372417 0.706744 -0.750474
H31   H     H_    0.095023 0.306922 0.754861 0.313241
O17   O     O_3   0.878157 0.575586 0.821858 -0.766973
H32   H     H_    0.881649 0.621288 0.907119 0.323166
O18   O     O_3   0.795356 0.472122 0.075710 -0.735505
H33   H     H_    0.861613 0.536218 0.091857 0.310786

loop_
_geom_bond_atom_site_label_1
_geom_bond_atom_site_label_2
_ccdc_geom_bond_type
C40   H5    S    
C34   O7    A    
C16   C21   A    
C28   O13   S    
Cu1   Cu2   S    
C19   C20   A    
N8    H20   S    
C7    C8    A    
Cu1   O7    S    
C28   C29   A    
O17   H32   S    
C5    C6    A    
C10   O18   S    
C37   C38   A    
Cu2   O4    S    
C30   C31   A    
N9    H24   S    
C33   N7    S    
N3    H7    S    
C18   C19   A    
C23   C26   S    
N4    H9    S    
C12   O3    A    
O13   H22   S    
C31   C32   A    
N5    H12   S    
N11   H30   S    
C35   N2    A    
C34   O8    A    
C11   H1    S    
C3    N11   S    
N10   H26   S    
C9    C10   A    
Cu1   O3    S    
C12   O4    A    
Cu2   O2    S    
O10   H11   S    
C1    C22   S    
C24   O9    S    
C13   C14   A    
C32   N1    A    
N4    H8    S    
C8    C38   S    
C31   N2    A    
Cu2   O8    S    
Cu1   N2    S    
N8    H21   S    
C7    C12   S    
C4    C34   S    
O11   H16   S    
C27   N8    S    
C24   C25   A    
C3    C8    A    
C39   C40   A    
N6    H15   S    
N9    H23   S    
C16   C17   A    
C25   C26   A    
C14   N4    S    
C39   O15   S    
C29   C30   A    
Cu2   O6    S    
O16   H31   S    
N11   H29   S    
C17   C18   A    
C36   H3    S    
Cu2   N1    S    
O12   H17   S    
C1    O2    A    
C29   N9    S    
C35   N10   S    
N5    H13   S    
C22   C24   A    
C16   O10   S    
C3    C4    A    
Cu1   O1    S    
O18   H33   S    
C23   O5    A    
C1    O1    A    
C2    C36   A    
C18   N6    S    
C36   C37   A    
C17   N5    S    
C37   O14   S    
C27   C32   A    
N7    H18   S    
C30   H4    S    
C19   O11   S    
C4    C5    A    
C2    N3    S    
C23   O6    A    
C6    C7    A    
C25   O12   S    
C6    O16   S    
N3    H6    S    
N6    H14   S    
O9    H10   S    
C11   C13   A    
C38   C39   A    
C20   C26   A    
O14   H27   S    
C33   C35   A    
N7    H19   S    
C9    C15   A    
O15   H28   S    
Cu1   O5    S    
C5    C15   S    
C10   C11   A    
C2    C40   A    
C20   C21   A    
C9    O17   S    
C27   C28   A    
C33   N1    A    
C14   C15   A    
N10   H25   S    
C21   C22   A    
C13   H2    S    
