data_mof_unit_14830.cif
_audit_creation_date              2012-12-10T19:10:38-0500
_audit_creation_method            fapswitch 2.2
_symmetry_space_group_name_H-M    P1
_symmetry_Int_Tables_number       1
_space_group_crystal_system       triclinic
_cell_length_a                    12.950486
_cell_length_b                    9.081498
_cell_length_c                    7.78448
_cell_angle_alpha                 90.025303
_cell_angle_beta                  96.775134
_cell_angle_gamma                 89.781803
_cell_volume                      909.131305618

loop_
_atom_site_label
_atom_site_type_symbol
_atom_type_description
_atom_site_fract_x
_atom_site_fract_y
_atom_site_fract_z
_atom_type_partial_charge
C1    C     C_R   0.500305 0.220038 0.500052 0.821095
C2    C     C_R   0.859811 0.349316 0.643791 -0.111060
C3    C     C_R   0.132504 0.394632 0.525851 0.184795
C4    C     C_R   0.869971 0.566432 0.460598 0.196166
C5    C     C_R   0.023852 0.410464 0.531661 0.058064
C6    C     C_R   0.971128 0.524199 0.430165 -0.040786
C7    C     C_1   0.500606 0.065397 0.500136 -0.164652
C8    C     C_1   0.500764 0.934609 0.500236 -0.141466
C9    C     C_3   0.817847 0.806821 0.558482 -0.663394
C10   C     C_3   0.209066 0.157138 0.477228 -0.669806
C11   C     C_2   0.798498 0.244082 0.737565 0.407703
C12   C     C_R   0.500764 0.779957 0.500197 0.900986
C13   C     C_2   0.179979 0.738938 0.258585 0.395673
C14   C     C_2   0.964507 0.622129 0.127756 0.361448
C15   C     C_2   0.015712 0.201290 0.748894 0.392930
C16   C     C_R   0.299888 0.502515 0.466983 0.875351
C17   C     C_R   0.699660 0.490731 0.533096 0.833288
C18   C     C_R   0.812396 0.471676 0.553967 -0.095195
C19   C     C_R   0.186343 0.504509 0.443734 -0.126328
C20   C     C_R   0.022211 0.594815 0.302962 -0.114572
C21   C     C_R   0.966672 0.321796 0.638630 -0.039642
C22   C     C_R   0.130667 0.608116 0.332059 -0.020847
Cu1   Cu    Cu3+1 0.500010 0.500000 0.669080 1.046713
Cu2   Cu    Cu3+1 0.499990 0.500000 0.330920 1.057550
H1    H     H_    0.861745 0.765998 0.319950 0.244635
H2    H     H_    0.134015 0.812686 0.170507 0.132357
H3    H     H_    0.881246 0.603743 0.105208 0.112403
H4    H     H_    0.047347 0.105263 0.690546 0.092945
H5    H     H_    0.895632 0.831862 0.628550 0.239064
H6    H     H_    0.768240 0.757239 0.649709 0.234645
H7    H     H_    0.780541 0.911538 0.510089 0.205857
H8    H     H_    0.249166 0.291229 0.692522 0.284580
H9    H     H_    0.244492 0.059633 0.547637 0.243136
H10   H     H_    0.264033 0.199023 0.389643 0.230080
H11   H     H_    0.135858 0.122004 0.399263 0.241697
H12   H     H_    0.807340 0.126615 0.718280 0.040924
N1    N     N_1   0.499980 0.500000 0.076820 -0.029437
N2    N     N_1   0.500020 0.500000 0.923180 -0.025308
N3    N     N_2   0.828550 0.709824 0.413660 -0.433007
N4    N     N_2   0.187460 0.269371 0.600269 -0.463006
O1    O     O_R   0.500000 0.288400 0.642760 -0.565058
O2    O     O_2   0.270074 0.773109 0.303473 -0.569420
O3    O     O_2   0.009364 0.654715 0.003752 -0.547101
O4    O     O_2   0.018721 0.207820 0.906075 -0.516405
O5    O     O_R   0.500000 0.711600 0.357240 -0.546266
O6    O     O_R   0.500000 0.288400 0.357240 -0.585379
O7    O     O_R   0.500000 0.711600 0.642760 -0.591098
O8    O     O_R   0.349000 0.500000 0.619590 -0.599464
O9    O     O_R   0.651000 0.500000 0.380410 -0.575556
O10   O     O_R   0.348990 0.500000 0.334020 -0.550949
O11   O     O_R   0.651010 0.500000 0.665980 -0.547899
O12   O     O_2   0.743714 0.286522 0.844938 -0.500985

loop_
_geom_bond_atom_site_label_1
_geom_bond_atom_site_label_2
_ccdc_geom_bond_type
C15   O4    D    
Cu1   Cu2   S    
C3    C19   A    
N1    N2    T    
C11   O12   D    
C14   H3    S    
C2    C18   A    
Cu1   N2    S    
C6    C20   A    
Cu1   O11   S    
Cu1   O1    S    
C4    N3    S    
C9    H5    S    
C8    C12   S    
C4    C18   A    
C16   O8    A    
C2    C21   A    
H8    N4    S    
Cu2   N1    S    
Cu2   O6    S    
C7    C8    T    
C10   H10   S    
H1    N3    S    
C17   O11   A    
C15   H4    S    
C10   H11   S    
C9    H6    S    
C12   O7    A    
C2    C11   S    
C10   N4    S    
C13   O2    D    
C16   O10   A    
C13   C22   S    
C17   C18   S    
C10   H9    S    
C16   C19   S    
Cu2   O10   S    
C5    C6    A    
C13   H2    S    
C1    O6    A    
Cu1   O7    S    
C9    H7    S    
C14   C20   S    
Cu2   O5    S    
C15   C21   S    
C19   C22   A    
C5    C21   A    
C4    C6    A    
C17   O9    A    
Cu2   O9    S    
C14   O3    D    
Cu1   O8    S    
C3    N4    S    
C1    C7    S    
C9    N3    S    
C1    O1    A    
C20   C22   A    
C12   O5    A    
C3    C5    A    
C11   H12   S    
