data_mof_unit_48936.cif
_audit_creation_date              2012-12-10T17:57:25-0500
_audit_creation_method            fapswitch 2.2
_symmetry_space_group_name_H-M    P1
_symmetry_Int_Tables_number       1
_space_group_crystal_system       triclinic
_cell_length_a                    9.532482
_cell_length_b                    10.832184
_cell_length_c                    13.539977
_cell_angle_alpha                 90.482927
_cell_angle_beta                  73.679991
_cell_angle_gamma                 90.181707
_cell_volume                      1341.72382437

loop_
_atom_site_label
_atom_site_type_symbol
_atom_type_description
_atom_site_fract_x
_atom_site_fract_y
_atom_site_fract_z
_atom_type_partial_charge
C1    C     C_R   0.500099 0.737881 0.500163 0.808923
C2    C     C_R   0.447828 0.456344 0.975207 0.090785
C3    C     C_R   0.494492 0.457178 0.866073 0.094047
C4    C     C_R   0.552511 0.481882 0.030148 0.052162
C5    C     C_R   0.697176 0.517519 0.975633 0.118254
C6    C     C_R   0.744097 0.498908 0.869763 -0.250523
C7    C     C_R   0.646806 0.458499 0.817982 -0.179562
C8    C     C_R   0.518155 0.474499 0.137333 -0.251882
C9    C     C_R   0.755011 0.557612 0.135825 -0.177049
C10   C     C_R   0.387658 0.456684 0.809821 -0.101433
C11   C     C_R   0.628589 0.936529 0.497369 -0.162496
C12   C     C_R   0.424611 0.486576 0.698713 0.810038
C13   C     C_R   0.628439 0.064244 0.497329 -0.184077
C14   C     C_R   0.499814 0.128243 0.500065 -0.017012
C15   C     C_R   0.371309 0.063481 0.502950 -0.183561
C16   C     C_R   0.371420 0.935761 0.503104 -0.182060
C17   C     C_R   0.500087 0.871758 0.500259 -0.020290
C18   C     C_R   0.901994 0.578788 0.563029 0.066312
C19   C     C_R   0.050471 0.577931 0.563068 -0.066645
C20   C     C_R   0.099178 0.421998 0.436743 -0.024506
C21   C     C_R   0.950381 0.421871 0.436887 -0.050432
C22   C     C_R   0.499869 0.262113 0.499934 0.779702
C23   C     C_R   0.577004 0.502438 0.301063 0.815095
C24   C     C_R   0.793847 0.564381 0.029181 0.139762
C25   C     C_R   0.619344 0.509342 0.189460 -0.102054
C26   C     C_R   0.242030 0.429823 0.861764 -0.207462
C27   C     C_R   0.199004 0.414850 0.967825 -0.135909
C28   C     C_R   0.298407 0.432854 0.024617 -0.167157
Cu1   Cu    Cu3+1 0.359340 0.499980 0.500000 0.943319
Cu2   Cu    Cu3+1 0.640660 0.500020 0.500000 0.948270
H1    H     H_    0.829888 0.592126 0.176829 0.169399
H2    H     H_    0.729002 0.112565 0.494970 0.148727
H3    H     H_    0.270746 0.111209 0.505178 0.149577
H4    H     H_    0.270849 0.887438 0.505486 0.150872
H5    H     H_    0.088088 0.640068 0.613352 0.124975
H6    H     H_    0.175089 0.359453 0.386018 0.116556
H7    H     H_    0.914305 0.359250 0.386324 0.125420
H8    H     H_    0.857529 0.509316 0.826408 0.136773
H9    H     H_    0.414604 0.438624 0.182165 0.150775
H10   H     H_    0.160439 0.421478 0.820255 0.146827
H11   H     H_    0.253900 0.428984 0.106943 0.122284
H12   H     H_    0.085883 0.394397 0.007073 0.149024
H13   H     H_    0.696494 0.425546 0.741020 0.182006
H14   H     H_    0.729225 0.888834 0.494942 0.155696
N1    N     N_R   0.147940 0.499970 0.499970 -0.159724
N2    N     N_R   0.852060 0.500060 0.499990 -0.182129
O1    O     O_R   0.381250 0.680340 0.500010 -0.587905
O2    O     O_R   0.618820 0.680370 0.500010 -0.578666
O3    O     O_R   0.323240 0.499950 0.650980 -0.584282
O4    O     O_R   0.560810 0.499980 0.650980 -0.588979
O5    O     O_R   0.381180 0.319630 0.499990 -0.592196
O6    O     O_R   0.618750 0.319660 0.499990 -0.596259
O7    O     O_R   0.439190 0.500020 0.349020 -0.584110
O8    O     O_R   0.676760 0.500050 0.349020 -0.590149
C29   C     C_1   0.805253 0.664714 0.630499 0.256184
N3    N     N_1   0.728292 0.734136 0.685139 -0.291168
N4    N     N_3   0.926656 0.627067 0.977966 -0.594616
H15   H     H_    0.994457 0.566744 0.925855 0.212509
H16   H     H_    0.900625 0.700300 0.936486 0.230019

loop_
_geom_bond_atom_site_label_1
_geom_bond_atom_site_label_2
_ccdc_geom_bond_type
C12   O4    A    
C29   N3    T    
C19   N1    A    
C1    O2    A    
C12   O3    A    
C6    C7    A    
C8    H9    S    
C7    H13   S    
C11   C13   A    
C13   H2    S    
C1    C17   S    
C20   N1    A    
C4    C8    A    
C14   C22   S    
C6    H8    S    
C2    C3    A    
Cu2   O4    S    
C9    C25   A    
C11   H14   S    
C9    C24   A    
C3    C10   A    
C19   H5    S    
C13   C14   A    
Cu1   O3    S    
C8    C25   A    
Cu2   O8    S    
C27   H12   S    
C26   H10   S    
C26   C27   A    
Cu1   Cu2   S    
C5    C24   A    
C10   C12   S    
C18   C29   S    
Cu1   O1    S    
C2    C4    A    
C18   N2    A    
Cu2   O2    S    
Cu2   N2    S    
C23   O7    A    
C3    C7    A    
C23   C25   S    
C1    O1    A    
C5    C6    A    
N4    H16   S    
C9    H1    S    
C15   C16   A    
C20   H6    S    
C28   H11   S    
C4    C5    A    
C21   H7    S    
C20   C21   A    
C23   O8    A    
C22   O6    A    
C21   N2    A    
Cu1   O5    S    
C27   C28   A    
C18   C19   A    
Cu2   O6    S    
C14   C15   A    
C16   C17   A    
C2    C28   A    
C22   O5    A    
C16   H4    S    
N4    H15   S    
C15   H3    S    
C10   C26   A    
C11   C17   A    
Cu1   N1    S    
C24   N4    S    
Cu1   O7    S    
