data_mof_unit_12237.cif
_audit_creation_date              2013-03-05T16:19:06-0500
_audit_creation_method            fapswitch 2.2
_symmetry_space_group_name_H-M    P1
_symmetry_Int_Tables_number       1
_space_group_crystal_system       triclinic
_cell_length_a                    10.637521
_cell_length_b                    9.732735
_cell_length_c                    19.082528
_cell_angle_alpha                 89.983181
_cell_angle_beta                  89.226079
_cell_angle_gamma                 90.28098
_cell_volume                      1975.45147866

loop_
_atom_site_label
_atom_site_type_symbol
_atom_site_description
_atom_site_fract_x
_atom_site_fract_y
_atom_site_fract_z
_atom_type_partial_charge
O1    O     O_R   0.314910 0.616040 0.499990 -0.638808
O2    O     O_R   0.314910 0.383960 0.499990 -0.636237
C1    C     C_R   0.257957 0.499808 0.502993 0.857950
O3    O     O_R   0.500100 0.616080 0.398110 -0.643003
O4    O     O_R   0.500100 0.383920 0.398110 -0.642266
C2    C     C_R   0.497032 0.499989 0.365260 0.911859
Zn1   Zn    Zn3+2 0.500150 0.654960 0.499970 0.927911
Zn2   Zn    Zn3+2 0.500150 0.345040 0.499970 0.923498
O5    O     O_R   0.685320 0.616040 0.499960 -0.605398
O6    O     O_R   0.685320 0.383960 0.499960 -0.615985
O7    O     O_R   0.500130 0.616000 0.601840 -0.630674
O8    O     O_R   0.500130 0.384000 0.601840 -0.639575
C3    C     C_R   0.742221 0.500274 0.502469 0.872182
C4    C     C_R   0.498007 0.499962 0.634751 0.854240
C5    C     C_R   0.460610 0.624165 0.254186 -0.189395
C6    C     C_R   0.464842 0.374911 0.253984 -0.184911
H1    H     H_    0.467328 0.721889 0.280960 0.127192
H2    H     H_    0.475064 0.277446 0.280573 0.126982
C7    C     C_R   0.433053 0.623698 0.183369 -0.152239
C8    C     C_R   0.437247 0.374395 0.183188 -0.151849
H3    H     H_    0.421859 0.721232 0.156914 0.149313
H4    H     H_    0.429420 0.276513 0.156597 0.149264
C9    C     C_R   0.421950 0.498811 0.147257 0.086054
C10   C     C_R   0.477339 0.499794 0.289855 -0.004865
N1    N     N_R   0.404514 0.378465 0.035509 -0.174364
N2    N     N_R   0.402057 0.618513 0.035476 -0.174280
N3    N     N_R   0.405791 0.378459 0.965995 -0.174499
N4    N     N_R   0.403331 0.618509 0.965956 -0.174100
C11   C     C_R   0.407435 0.498517 0.930001 0.294988
C12   C     C_R   0.404774 0.498523 0.071463 0.295348
C13   C     C_R   0.437929 0.623722 0.817799 -0.151785
C14   C     C_R   0.442259 0.374356 0.818002 -0.150049
H5    H     H_    0.426934 0.721257 0.844418 0.149950
H6    H     H_    0.434731 0.276496 0.844781 0.150005
C15   C     C_R   0.465091 0.624195 0.746523 -0.184877
C16   C     C_R   0.469437 0.374848 0.746731 -0.196100
H7    H     H_    0.472337 0.721930 0.719560 0.144570
H8    H     H_    0.480235 0.277419 0.719944 0.143516
C17   C     C_R   0.480646 0.499754 0.710558 -0.021074
C18   C     C_R   0.426445 0.498798 0.854070 0.088667
C19   C     C_3   0.071603 0.389480 0.556853 -0.387787
C20   C     C_3   0.075529 0.466983 0.429793 -0.481211
H9    H     H_    0.108188 0.411605 0.610078 0.197769
H10   H     H_    0.115505 0.543850 0.392211 0.161995
H11   H     H_    0.106906 0.285810 0.541991 0.156311
H12   H     H_    0.110778 0.364575 0.412681 0.182189
C21   C     C_3   0.926488 0.387052 0.555838 -0.152640
C22   C     C_3   0.930783 0.466111 0.429021 -0.179358
H13   H     H_    0.897945 0.284663 0.535166 0.145372
H14   H     H_    0.899746 0.360304 0.415057 0.213709
H15   H     H_    0.106596 0.667669 0.581342 0.189668
H16   H     H_    0.106753 0.724192 0.491583 0.176452
H17   H     H_    0.892730 0.669331 0.581313 0.215853
H18   H     H_    0.898186 0.725562 0.492972 0.222927
C23   C     C_3   0.072278 0.642358 0.527973 -0.394391
C24   C     C_3   0.121785 0.499480 0.504496 0.132863
C25   C     C_3   0.878914 0.500296 0.504120 0.028428
C26   C     C_3   0.929388 0.642749 0.528246 -0.383545
C27   C     C_3   0.372391 0.080639 0.514106 -0.283466
C28   C     C_3   0.372657 0.918135 0.514768 -0.284039
H19   H     H_    0.304279 0.117381 0.474621 0.158284
H20   H     H_    0.303667 0.879605 0.476075 0.156306
H21   H     H_    0.337546 0.119635 0.565592 0.158173
H22   H     H_    0.339278 0.880097 0.566815 0.158413
H23   H     H_    0.466367 0.114336 0.390223 0.047041
H24   H     H_    0.463370 0.887839 0.390527 0.047279
C29   C     C_3   0.538747 0.082293 0.428560 -0.061190
C30   C     C_3   0.537366 0.918893 0.428288 -0.053252
C31   C     C_3   0.583158 0.081128 0.553243 -0.213416
C32   C     C_3   0.584542 0.919589 0.552542 -0.206378
N5    N     N_3   0.499750 0.138610 0.498490 -0.058156
N6    N     N_3   0.499750 0.861390 0.498490 -0.059564
H25   H     H_    0.680003 0.122192 0.547876 0.192467
H26   H     H_    0.681886 0.881971 0.545092 0.200100
H27   H     H_    0.550628 0.116609 0.605824 0.126709
H28   H     H_    0.555064 0.881258 0.605193 0.131629
C33   C     C_2   0.658828 0.147655 0.399807 0.504253
H29   H     H_    0.657948 0.197853 0.349052 0.046609
O9    O     O_2   0.758053 0.141472 0.430895 -0.580079
C34   C     C_2   0.655542 0.854309 0.397929 0.464676
H30   H     H_    0.651441 0.799210 0.348612 0.059044
O10   O     O_2   0.757047 0.867071 0.425979 -0.597598
C35   C     C_2   0.868520 0.396765 0.628711 0.363571
H31   H     H_    0.788848 0.331524 0.642413 0.063361
O11   O     O_2   0.906846 0.479368 0.671693 -0.570963
C36   C     C_2   0.882912 0.562050 0.373038 0.401075
H32   H     H_    0.911704 0.669087 0.372239 0.113883
O12   O     O_2   0.812628 0.519528 0.327788 -0.586533

loop_
_geom_bond_atom_site_label_1
_geom_bond_atom_site_label_2
_geom_bond_distance
_ccdc_geom_bond_type
C30   C34   1.516355 S    
H24   C30   1.115006 S    
C23   C24   1.553378 S    
N3    C11   1.355154 A    
C7    C9    1.402680 A    
C29   C33   1.519965 S    
C22   C25   1.565121 S    
C21   H13   1.114169 S    
C33   H29   1.084832 S    
C5    C7    1.386660 A    
C14   C16   1.386597 A    
C6    C8    1.386369 A    
C7    H3    1.082871 S    
O4    C2    1.292536 A    
O7    C4    1.292035 A    
C36   O12   1.220851 D    
C3    C25   1.454838 S    
C28   N6    1.491766 S    
C13   C18   1.402866 A    
C28   H20   1.111965 S    
C20   H12   1.114097 S    
C31   N5    1.490459 S    
O5    C3    1.282807 A    
C20   C24   1.546586 S    
C4    C17   1.455848 S    
H23   C29   1.114761 S    
C32   H26   1.107374 S    
C13   H5    1.082864 S    
C31   H25   1.106621 S    
C21   C35   1.516714 S    
H15   C23   1.113758 S    
H16   C23   1.113994 S    
C30   N6    1.500283 S    
C22   H14   1.113413 S    
C27   C28   1.581674 S    
C6    C10   1.401750 A    
C19   H9    1.113290 S    
C20   H10   1.114984 S    
O3    Zn1   1.980354 S    
Zn1   O7    1.980464 S    
C33   O9    1.219496 D    
C27   H19   1.112514 S    
C29   C30   1.590331 S    
C9    C12   1.460281 S    
C34   O10   1.217442 D    
Zn1   N6    2.009346 S    
C36   H32   1.084455 S    
C22   C36   1.513681 S    
O1    C1    1.281542 A    
C14   H6    1.082853 S    
C15   C17   1.401659 A    
C19   C24   1.551994 S    
C21   C25   1.569455 S    
C1    C24   1.448417 S    
C35   H31   1.085578 S    
C8    C9    1.402627 A    
Zn2   O8    1.980683 S    
C2    C10   1.456896 S    
C19   C21   1.544119 S    
C6    H2    1.082278 S    
C20   C22   1.539986 S    
O3    C2    1.292769 A    
C5    C10   1.401817 A    
C35   O11   1.221269 D    
C8    H4    1.082868 S    
N2    C12   1.355237 A    
C32   H28   1.112239 S    
C13   C15   1.386660 A    
H18   C26   1.105079 S    
N1    C12   1.355218 A    
C5    H1    1.082304 S    
N4    C11   1.355247 A    
Zn2   N5    2.009321 S    
C15   H7    1.083252 S    
O1    Zn1   2.004744 S    
C27   H21   1.112866 S    
C16   C17   1.401575 A    
O2    Zn2   2.008392 S    
O8    C4    1.291905 A    
C34   H30   1.084572 S    
O6    C3    1.282305 A    
O4    Zn2   1.980137 S    
H17   C26   1.111282 S    
N1    N3    1.326402 A    
N2    N4    1.326505 A    
C28   H22   1.112889 S    
C16   H8    1.083243 S    
O2    C1    1.283523 A    
C25   C26   1.556356 S    
C11   C18   1.460283 S    
C31   H27   1.112550 S    
C29   N5    1.496989 S    
C14   C18   1.402958 A    
C31   C32   1.572408 S    
Zn1   O5    2.007662 S    
Zn2   O6    2.004013 S    
C23   C26   1.519949 S    
C19   H11   1.113791 S    
C32   N6    1.489557 S    
C27   N5    1.491340 S    
