data_mof_unit_67750.cif
_audit_creation_date              2013-03-05T15:40:03-0500
_audit_creation_method            fapswitch 2.2
_symmetry_space_group_name_H-M    P1
_symmetry_Int_Tables_number       1
_space_group_crystal_system       triclinic
_cell_length_a                    7.882683
_cell_length_b                    8.770205
_cell_length_c                    10.908867
_cell_angle_alpha                 89.569322
_cell_angle_beta                  84.846686
_cell_angle_gamma                 94.280847
_cell_volume                      748.939267242

loop_
_atom_site_label
_atom_site_type_symbol
_atom_site_description
_atom_site_fract_x
_atom_site_fract_y
_atom_site_fract_z
_atom_type_partial_charge
O1    O     O_R   0.389250 0.738570 0.508180 -0.594844
O2    O     O_R   0.678390 0.711630 0.486820 -0.635197
C1    C     C_R   0.545820 0.793914 0.494740 0.865871
O3    O     O_R   0.355470 0.513470 0.691600 -0.569948
O4    O     O_R   0.644610 0.486520 0.670240 -0.558102
C2    C     C_R   0.499589 0.492719 0.736417 0.923917
Zn1   Zn    Zn3+2 0.306940 0.517990 0.514260 1.011615
Zn2   Zn    Zn3+2 0.693060 0.482010 0.485740 1.009982
O5    O     O_R   0.321610 0.288370 0.513180 -0.655016
O6    O     O_R   0.610750 0.261430 0.491820 -0.613708
O7    O     O_R   0.355390 0.513480 0.329760 -0.680639
O8    O     O_R   0.644530 0.486530 0.308400 -0.597051
C3    C     C_R   0.454948 0.205984 0.502531 0.893066
C4    C     C_R   0.499568 0.504724 0.264341 0.973172
C5    C     C_2   0.553292 0.401276 0.068313 0.491939
C6    C     C_2   0.502378 0.520782 0.134215 -0.276944
C7    C     C_2   0.600504 0.411422 0.936185 -0.109299
C8    C     C_2   0.488310 0.470903 0.867374 -0.457703
H1    H     H_    0.370875 0.506880 0.912510 0.174927
C9    C     C_2   0.566861 0.956305 0.475393 -0.248703
C10   C     C_2   0.437648 0.043524 0.519754 -0.221788
N1    N     N_2   0.950320 0.457950 0.466680 -0.105822
H2    H     H_    0.009163 0.436795 0.381351 0.138146
N2    N     N_2   0.049680 0.542050 0.533320 0.182580
F1    F     F_    0.582633 0.269636 0.127211 -0.695923
C11   C     C_R   0.481753 0.676754 0.085945 0.033886
C12   C     C_R   0.338856 0.753715 0.129491 -0.172310
C13   C     C_R   0.326148 0.905198 0.094940 -0.187555
C14   C     C_R   0.449589 0.979044 0.010760 -0.045997
C15   C     C_R   0.589082 0.901974 0.963484 -0.180122
C16   C     C_R   0.609049 0.753908 0.004913 -0.144897
H3    H     H_    0.237654 0.697758 0.191177 0.153858
H4    H     H_    0.216950 0.962400 0.129768 0.141290
H5    H     H_    0.434424 0.094144 0.979650 0.157215
H6    H     H_    0.684516 0.959061 0.897885 0.115751
H7    H     H_    0.723710 0.699780 0.974741 0.126908
C17   C     C_R   0.774515 0.367313 0.895522 0.228111
C18   C     C_R   0.906504 0.408224 0.970769 -0.098811
C19   C     C_R   0.066779 0.354105 0.946961 -0.189849
C20   C     C_R   0.102986 0.268571 0.842408 -0.056508
C21   C     C_R   0.975110 0.230948 0.765174 -0.078112
C22   C     C_R   0.808763 0.272263 0.794830 -0.091629
H8    H     H_    0.884072 0.477786 0.051407 0.127901
H9    H     H_    0.161238 0.377535 0.011402 0.122812
H10   H     H_    0.229754 0.231192 0.821648 0.120952
H11   H     H_    0.005350 0.168552 0.683253 0.128164
H12   H     H_    0.708332 0.230007 0.739669 0.112371
C23   C     C_R   0.712484 0.012400 0.385238 0.133102
C24   C     C_R   0.860053 0.087516 0.424857 -0.080332
C25   C     C_R   0.993159 0.144212 0.340020 -0.206345
C26   C     C_R   0.978867 0.129368 0.214956 -0.151554
C27   C     C_R   0.836508 0.048989 0.174128 -0.026679
C28   C     C_R   0.703821 0.989622 0.259177 -0.069575
H13   H     H_    0.867837 0.107494 0.521390 0.118163
H14   H     H_    0.107637 0.200205 0.370976 0.165395
H15   H     H_    0.080566 0.177103 0.150163 0.130539
H16   H     H_    0.830448 0.035014 0.076647 0.142539
H17   H     H_    0.593302 0.928154 0.228227 0.153932
C29   C     C_R   0.290615 0.983627 0.605401 0.141024
C30   C     C_R   0.311758 0.954192 0.729040 -0.178514
C31   C     C_R   0.176039 0.883837 0.805909 -0.129209
C32   C     C_R   0.018649 0.848357 0.761238 -0.039918
C33   C     C_R   0.998960 0.874091 0.637770 -0.105018
C34   C     C_R   0.136527 0.935364 0.558907 -0.120098
H18   H     H_    0.434158 0.982576 0.763336 0.113293
H19   H     H_    0.190485 0.853915 0.899409 0.152620
H20   H     H_    0.914156 0.795035 0.820717 0.129634
H21   H     H_    0.878548 0.842326 0.603212 0.174162
H22   H     H_    0.127314 0.938059 0.461006 0.137593
F2    F     F_    0.979060 0.558159 0.647603 -0.552711

loop_
_geom_bond_atom_site_label_1
_geom_bond_atom_site_label_2
_geom_bond_distance
_ccdc_geom_bond_type
C7    C8    1.341645 D    
C30   H18   1.078548 S    
O4    Zn2   2.015861 S    
Zn2   N1    2.046687 S    
C21   H11   1.069327 S    
C20   C21   1.393521 A    
C19   H9    1.078975 S    
Zn1   N2    2.046687 S    
O2    C1    1.310562 A    
C14   C15   1.395081 A    
C21   C22   1.397084 A    
C25   H14   1.077298 S    
Zn2   O8    2.006132 S    
C28   H17   1.071932 S    
C20   H10   1.080126 S    
C31   C32   1.388089 A    
C32   C33   1.388296 A    
C25   C26   1.385301 A    
C11   C12   1.404358 A    
C3    C10   1.430504 S    
C29   C30   1.398265 A    
C1    C9    1.433297 S    
C34   H22   1.077150 S    
C9    C10   1.374802 D    
Zn1   O7    2.015861 S    
C29   C34   1.396017 A    
C15   C16   1.396348 A    
C32   H20   1.077069 S    
C30   C31   1.400337 A    
O3    Zn1   2.006132 S    
O4    C2    1.300974 A    
C15   H6    1.081825 S    
O3    C2    1.300783 A    
C13   C14   1.394995 A    
C17   C18   1.409664 A    
O8    C4    1.298820 A    
C13   H4    1.070301 S    
C10   C29   1.483033 S    
C4    C6    1.423462 S    
C22   H12   1.082268 S    
C16   H7    1.078688 S    
C6    C11   1.487493 S    
C23   C28   1.398099 A    
C2    C8    1.433850 S    
O7    C4    1.294218 A    
N1    N2    1.307686 D    
C5    F1    1.361848 S    
C27   H16   1.076275 S    
C31   H19   1.069338 S    
N2    F2    1.331853 S    
C26   C27   1.389599 A    
C19   C20   1.389751 A    
Zn1   O5    2.025794 S    
C17   C22   1.403010 A    
C18   C19   1.386120 A    
C27   C28   1.401049 A    
Zn2   O6    1.992671 S    
C24   C25   1.394778 A    
C12   C13   1.391487 A    
C5    C7    1.456272 S    
C8    H1    1.078419 S    
O5    C3    1.316434 A    
C33   H21   1.070999 S    
C23   C24   1.397895 A    
C7    C17   1.483368 S    
C9    C23   1.494171 S    
O1    Zn1   1.992671 S    
C12   H3    1.081765 S    
N1    H2    1.026604 S    
C11   C16   1.405860 A    
C14   H5    1.081023 S    
C5    C6    1.341158 D    
O2    Zn2   2.025793 S    
C18   H8    1.083284 S    
C24   H13   1.075254 S    
C33   C34   1.394018 A    
O1    C1    1.287368 A    
O6    C3    1.281653 A    
C26   H15   1.077580 S    
