data_mof_unit_57714.cif
_audit_creation_date              2013-03-05T16:43:30-0500
_audit_creation_method            fapswitch 2.2
_symmetry_space_group_name_H-M    P1
_symmetry_Int_Tables_number       1
_space_group_crystal_system       triclinic
_cell_length_a                    10.48676
_cell_length_b                    10.675518
_cell_length_c                    9.925768
_cell_angle_alpha                 91.152226
_cell_angle_beta                  91.294269
_cell_angle_gamma                 91.127897
_cell_volume                      1110.47197746

loop_
_atom_site_label
_atom_site_type_symbol
_atom_site_description
_atom_site_fract_x
_atom_site_fract_y
_atom_site_fract_z
_atom_type_partial_charge
O1    O     O_R   0.500020 0.316790 0.614690 -0.620754
O2    O     O_R   0.500000 0.316760 0.385350 -0.621602
C1    C     C_R   0.493313 0.260123 0.498677 0.861681
O3    O     O_R   0.313960 0.499990 0.614650 -0.630328
O4    O     O_R   0.313940 0.499950 0.385310 -0.626600
C2    C     C_R   0.257475 0.499842 0.498712 0.851667
Zn1   Zn    Zn3+2 0.500010 0.500020 0.653130 0.986884
Zn2   Zn    Zn3+2 0.499990 0.499980 0.346870 0.944554
O5    O     O_R   0.500000 0.683240 0.614650 -0.585418
O6    O     O_R   0.499980 0.683210 0.385310 -0.630405
O7    O     O_R   0.686060 0.500050 0.614690 -0.566971
O8    O     O_R   0.686040 0.500010 0.385350 -0.625647
C3    C     C_R   0.494367 0.740065 0.500346 0.884056
C4    C     C_R   0.742533 0.499831 0.501330 0.889488
C5    C     C_3   0.042420 0.395750 0.559238 -0.206376
C6    C     C_3   0.953504 0.397489 0.433249 -0.182435
H1    H     H_    0.910773 0.314217 0.379216 0.142586
H2    H     H_    0.081969 0.311204 0.606881 0.139318
C7    C     C_3   0.877711 0.499596 0.503369 0.023845
C8    C     C_3   0.963900 0.497815 0.629487 -0.106508
C9    C     C_3   0.046573 0.601906 0.567226 -0.160749
C10   C     C_3   0.957687 0.603664 0.441245 -0.163006
C11   C     C_3   0.036137 0.501584 0.370985 -0.134309
C12   C     C_3   0.122343 0.499828 0.497005 0.018486
H3    H     H_    0.930678 0.495997 0.734854 0.172417
H4    H     H_    0.089381 0.685149 0.621256 0.142146
H5    H     H_    0.918308 0.688323 0.393705 0.143755
H6    H     H_    0.069018 0.503409 0.265578 0.140910
C13   C     C_R   0.447063 0.066458 0.615619 0.117509
C14   C     C_R   0.466683 0.128790 0.495681 -0.092603
C15   C     C_R   0.458828 0.061911 0.372764 -0.225556
H7    H     H_    0.463266 0.108557 0.276992 0.174105
C16   C     C_R   0.459803 0.932317 0.373833 -0.202977
H8    H     H_    0.464438 0.881845 0.278344 0.184285
C17   C     C_R   0.468863 0.871105 0.497848 -0.105487
C18   C     C_R   0.448655 0.938284 0.616592 0.066038
C19   C     C_3   0.521075 0.938000 0.747215 -0.361224
C20   C     C_3   0.517403 0.079367 0.747793 -0.485343
H9    H     H_    0.464268 0.895527 0.828392 0.221538
H10   H     H_    0.619081 0.902752 0.734262 0.259608
H11   H     H_    0.457156 0.118799 0.828313 0.201628
H12   H     H_    0.613375 0.124508 0.739788 0.214796
C21   C     C_R   0.439391 0.406077 0.067220 0.203331
N1    N     N_R   0.499140 0.499140 0.142800 -0.134768
C22   C     C_R   0.568942 0.585448 0.077966 -0.185075
H13   H     H_    0.623098 0.654452 0.137988 0.198891
C23   C     C_R   0.569575 0.587722 0.935005 0.320250
N2    N     N_R   0.499140 0.499180 0.857150 -0.162532
C24   C     C_R   0.439381 0.406008 0.925163 0.150278
C25   C     C_3   0.300718 0.372486 0.915734 -0.491847
C26   C     C_3   0.300940 0.372162 0.068798 -0.497816
H14   H     H_    0.242465 0.448280 0.872157 0.221032
H15   H     H_    0.282895 0.278153 0.868918 0.195666
H16   H     H_    0.242946 0.447757 0.113402 0.211910
H17   H     H_    0.283751 0.277558 0.110360 0.197932
N3    N     N_R   0.641839 0.688296 0.877646 0.193903
O9    O     O_R   0.724393 0.664997 0.785869 -0.395883
O10   O     O_R   0.657692 0.792232 0.947535 -0.472272

loop_
_geom_bond_atom_site_label_1
_geom_bond_atom_site_label_2
_geom_bond_distance
_ccdc_geom_bond_type
C13   C20   1.493083 S    
C5    H2    1.110554 S    
C25   H14   1.112025 S    
C21   N1    1.366271 A    
C15   C16   1.383971 A    
C3    C17   1.430015 S    
C19   C20   1.510315 S    
O4    Zn2   1.996453 S    
C5    C8    1.543407 S    
C23   N2    1.397699 A    
C14   C15   1.401122 A    
Zn2   O8    1.979604 S    
C26   H16   1.110979 S    
C2    C12   1.416807 S    
Zn1   N2    2.025482 S    
C16   H8    1.083326 S    
C19   H9    1.111507 S    
O1    Zn1   1.985397 S    
C22   H13   1.082003 S    
N3    O9    1.294673 A    
Zn1   O7    1.996453 S    
C13   C18   1.368980 A    
C21   C26   1.489937 S    
C13   C14   1.392804 A    
C18   C19   1.487807 S    
C6    C7    1.527402 S    
C1    C14   1.423778 S    
Zn2   O6    1.985397 S    
N2    C24   1.363593 A    
C16   C17   1.407407 A    
C9    H4    1.110457 S    
O8    C4    1.282784 A    
C20   H12   1.112436 S    
C6    C11   1.543272 S    
C26   H17   1.111587 S    
C10   H5    1.110434 S    
C22   C23   1.419861 A    
O4    C2    1.283644 A    
O7    C4    1.283284 A    
C21   C24   1.410007 A    
C25   H15   1.111245 S    
C11   H6    1.109389 S    
C8    H3    1.110209 S    
C11   C12   1.527341 S    
C5    C6    1.543555 S    
Zn2   N1    2.025208 S    
C7    C10   1.527132 S    
C8    C9    1.543453 S    
C20   H11   1.111250 S    
O3    C2    1.282286 A    
C24   C25   1.491080 S    
C9    C12   1.527495 S    
Zn1   O5    2.000435 S    
C19   H10   1.110705 S    
O5    C3    1.297990 A    
C10   C11   1.543173 S    
C5    C12   1.527376 S    
O2    C1    1.290368 A    
C17   C18   1.389840 A    
C25   C26   1.519295 S    
O3    Zn1   1.979603 S    
C9    C10   1.543318 S    
C4    C7    1.417321 S    
C15   H7    1.083476 S    
O2    Zn2   2.000435 S    
N1    C22   1.348133 A    
C7    C8    1.528026 S    
C6    H1    1.110399 S    
N3    O10   1.302536 A    
C23   N3    1.436398 S    
O1    C1    1.289787 A    
O6    C3    1.285373 A    
