data_mof_unit_30247.cif
_audit_creation_date              2012-12-11T16:35:26-0500
_audit_creation_method            fapswitch 2.2
_symmetry_space_group_name_H-M    P1
_symmetry_Int_Tables_number       1
_space_group_crystal_system       triclinic
_cell_length_a                    6.924164
_cell_length_b                    17.563569
_cell_length_c                    19.640697
_cell_angle_alpha                 109.101756
_cell_angle_beta                  90.378008
_cell_angle_gamma                 90.891447
_cell_volume                      2256.60178925

loop_
_atom_site_label
_atom_site_type_symbol
_atom_type_description
_atom_site_fract_x
_atom_site_fract_y
_atom_site_fract_z
_atom_type_partial_charge
O1    O     O_R   0.505700 0.440210 0.561730 -0.536191
O2    O     O_R   0.169350 0.406300 0.412660 -0.536433
O3    O     O_R   0.005650 0.559790 0.438270 -0.540752
C1    C     C_R   0.337747 0.382770 0.385064 0.698326
O4    O     O_R   0.175560 0.430650 0.559600 -0.559249
O5    O     O_R   0.011900 0.584320 0.586250 -0.538319
C2    C     C_R   0.343563 0.414023 0.580167 0.676580
O6    O     O_R   0.499450 0.415680 0.413750 -0.531865
O7    O     O_3   0.341370 0.550390 0.508570 -0.366857
V1    V     V_3+5 0.063940 0.490650 0.498410 1.415904
O8    O     O_R   0.682570 0.593700 0.587340 -0.536928
C3    C     C_R   0.853700 0.617664 0.613969 0.694090
O9    O     O_R   0.676370 0.569350 0.440400 -0.545239
C4    C     C_R   0.845457 0.584699 0.419085 0.691746
V2    V     V_3+5 0.564750 0.509350 0.501590 1.428941
O10   O     O_3   0.837190 0.449610 0.491430 -0.370671
C5    C     C_R   0.044416 0.717455 0.315846 -0.106518
H1    H     H_    0.181771 0.745701 0.311583 0.090282
C6    C     C_R   0.032921 0.670790 0.361498 -0.128808
H2    H     H_    0.162111 0.663714 0.390074 0.116133
C7    C     C_R   0.856851 0.634635 0.370846 -0.049487
C8    C     C_R   0.692689 0.646015 0.333016 -0.128939
H3    H     H_    0.555132 0.618418 0.338361 0.125600
C9    C     C_R   0.704704 0.691748 0.286533 -0.096091
H4    H     H_    0.576069 0.697112 0.256953 0.112767
C10   C     C_R   0.880727 0.728427 0.277302 0.100986
C11   C     C_R   0.735635 0.822811 0.218127 -0.143844
H5    H     H_    0.603191 0.824217 0.247432 0.095530
C12   C     C_R   0.746942 0.868073 0.171296 -0.127438
H6    H     H_    0.622125 0.901820 0.165264 0.111486
C13   C     C_R   0.917377 0.870455 0.133401 -0.025994
C14   C     C_R   0.076185 0.826169 0.143474 -0.143338
H7    H     H_    0.209359 0.826124 0.114844 0.140641
C15   C     C_R   0.064044 0.779952 0.189546 -0.110850
H8    H     H_    0.187852 0.745020 0.194165 0.123110
C16   C     C_R   0.893643 0.777624 0.227780 0.089513
H9    H     H_    0.929151 0.608277 0.921567 0.163926
C17   C     C_R   0.860259 0.909801 0.753045 -0.148119
C18   C     C_R   0.828953 0.926870 0.689424 -0.114415
C19   C     C_R   0.808283 0.864551 0.624280 -0.110736
C20   C     C_R   0.820105 0.784696 0.622183 -0.139725
C21   C     C_R   0.851918 0.765548 0.685889 0.070996
C22   C     C_R   0.870663 0.829215 0.752881 0.062179
C23   C     C_R   0.871170 0.684621 0.683339 -0.162700
C24   C     C_R   0.908485 0.667096 0.747463 0.049098
C25   C     C_R   0.900390 0.729317 0.815583 0.022103
C26   C     C_R   0.896445 0.811636 0.818065 -0.172860
C27   C     C_R   0.946685 0.587222 0.745025 -0.152696
C28   C     C_R   0.967722 0.568171 0.807836 -0.172396
C29   C     C_R   0.934109 0.626156 0.873795 -0.080034
C30   C     C_R   0.890600 0.704933 0.877902 0.221345
H10   H     H_    0.875395 0.960579 0.802187 0.106624
H11   H     H_    0.820542 0.988845 0.690738 0.119439
H12   H     H_    0.784155 0.878139 0.575000 0.117777
H13   H     H_    0.805594 0.738286 0.570093 0.089344
H14   H     H_    0.960007 0.538352 0.694749 0.111683
H15   H     H_    0.997013 0.506821 0.804983 0.132922
C31   C     C_R   0.498837 0.230208 0.382189 -0.123458
C32   C     C_R   0.587957 0.159804 0.382690 -0.097310
C33   C     C_R   0.622541 0.098701 0.318322 -0.129241
C34   C     C_R   0.568178 0.107457 0.252908 -0.154127
C35   C     C_R   0.478865 0.178453 0.250481 0.069323
C36   C     C_R   0.443479 0.241371 0.316635 0.068600
C37   C     C_R   0.422034 0.186767 0.183778 -0.162403
C38   C     C_R   0.331656 0.258882 0.183707 0.061632
C39   C     C_R   0.295636 0.321681 0.249837 0.023918
C40   C     C_R   0.351527 0.313182 0.316555 -0.163771
C41   C     C_R   0.279512 0.270603 0.118145 -0.155862
C42   C     C_R   0.192407 0.341360 0.117524 -0.096591
C43   C     C_R   0.156043 0.402269 0.181877 0.310650
C44   C     C_R   0.207682 0.392960 0.247385 -0.185138
H16   H     H_    0.472029 0.275253 0.433817 0.104668
H17   H     H_    0.629368 0.152454 0.433394 0.148860
H18   H     H_    0.691051 0.043965 0.319041 0.120419
H19   H     H_    0.597116 0.057927 0.204456 0.098341
H20   H     H_    0.308185 0.225783 0.066612 0.145477
H21   H     H_    0.154251 0.349034 0.066662 0.185116
H22   H     H_    0.178560 0.442331 0.295958 0.138898
C45   C     C_R   0.543765 0.320271 0.714485 -0.098753
H23   H     H_    0.677017 0.325055 0.744934 0.112476
C46   C     C_R   0.524337 0.365752 0.668236 -0.125318
H24   H     H_    0.644902 0.404135 0.664458 0.113517
C47   C     C_R   0.352149 0.363410 0.628581 -0.138160
C48   C     C_R   0.197545 0.311732 0.635912 -0.009815
C49   C     C_R   0.220459 0.266783 0.683005 -0.125938
H25   H     H_    0.102960 0.227976 0.688933 0.140919
C50   C     C_R   0.390904 0.271270 0.723149 0.057422
C51   C     C_R   0.249020 0.226766 0.821176 -0.158338
H26   H     H_    0.122959 0.262132 0.820020 0.140422
C52   C     C_R   0.254437 0.183238 0.869444 0.237837
C53   C     C_R   0.417973 0.136666 0.872372 -0.100371
C54   C     C_R   0.574806 0.137672 0.827246 -0.157297
H27   H     H_    0.701594 0.102480 0.827584 0.153896
C55   C     C_R   0.568630 0.182274 0.779735 -0.122924
H28   H     H_    0.690427 0.180626 0.744986 0.125055
C56   C     C_R   0.404277 0.226366 0.775496 0.042483
O11   O     O_R   0.273230 0.084330 0.086440 -0.539775
O12   O     O_R   0.596660 0.069390 0.940470 -0.532631
O13   O     O_R   0.760270 0.915710 0.913690 -0.523282
C57   C     C_R   0.427472 0.086105 0.920303 0.723566
O14   O     O_R   0.603330 0.093680 0.087390 -0.539582
O15   O     O_R   0.766990 0.940160 0.061660 -0.529619
C58   C     C_R   0.435124 0.117094 0.115210 0.675698
O16   O     O_R   0.266510 0.059870 0.938470 -0.520784
O17   O     O_3   0.431050 0.949630 0.991510 -0.358218
V3    V     V_3+5 0.708490 0.009340 0.001580 1.522705
O18   O     O_R   0.096270 0.930570 0.059390 -0.547472
C59   C     C_R   0.928125 0.918388 0.083360 0.729700
O19   O     O_R   0.089600 0.906290 0.912460 -0.538121
C60   C     C_R   0.917523 0.880029 0.887186 0.767630
V4    V     V_3+5 0.207670 0.990600 0.998190 1.504247
O20   O     O_3   0.935250 0.050360 0.008480 -0.347939
Br1   Br    Br    0.752896 0.762164 0.962357 -0.569573
Br2   Br    Br    0.037363 0.499233 0.180398 -0.545644
C61   C     C_2   0.010483 0.301296 0.595931 0.315581
H29   H     H_    0.942803 0.350402 0.583899 0.086668
O21   O     O_2   0.924254 0.236417 0.577677 -0.535265
Br3   Br    Br    0.035805 0.194447 0.931502 -0.594582

loop_
_geom_bond_atom_site_label_1
_geom_bond_atom_site_label_2
_ccdc_geom_bond_type
C37   C58   S    
C2    C47   S    
C51   C56   A    
C11   C12   A    
C13   C59   S    
C42   H21   S    
V4    O20   S    
C1    O6    A    
C45   C50   A    
C46   H24   S    
V3    O20   S    
C49   H25   S    
C43   Br2   S    
C35   C36   A    
C5    C10   A    
C52   Br3   S    
C4    C7    S    
C6    C7    A    
C9    C10   A    
C42   C43   A    
O19   V4    S    
O5    C3    A    
C17   C18   A    
O11   V4    S    
C17   H10   S    
V2    O10   S    
C57   O16   A    
C28   H15   S    
C15   H8    S    
C20   C21   A    
C20   H13   S    
C35   C37   A    
O8    V2    S    
C47   C48   A    
C41   C42   A    
C61   O21   D    
O18   C59   A    
O15   C59   A    
C43   C44   A    
O1    V2    S    
C53   C57   S    
O7    V1    S    
C32   H17   S    
C39   C40   A    
O17   V4    S    
C32   C33   A    
O14   C58   A    
O9    C4    A    
C55   H28   S    
C21   C23   A    
C46   C47   A    
C29   C30   A    
C49   C50   A    
C36   C40   A    
C48   C49   A    
C53   C54   A    
C45   C46   A    
C31   C32   A    
C24   C25   A    
O13   C60   A    
C25   C30   A    
C34   H19   S    
C33   C34   A    
C14   C15   A    
O2    C1    A    
C12   H6    S    
C1    C40   S    
C39   C44   A    
C38   C41   A    
C50   C56   S    
C54   C55   A    
C5    H1    S    
C30   Br1   S    
C9    H4    S    
C55   C56   A    
O11   C58   A    
O3    C4    A    
C10   C16   S    
C19   C20   A    
C51   C52   A    
C38   C39   A    
C48   C61   S    
O12   C57   A    
O9    V2    S    
C8    C9    A    
C41   H20   S    
C21   C22   A    
O2    V1    S    
C18   C19   A    
C23   C24   A    
O4    C2    A    
C24   C27   A    
O14   V3    S    
C27   H14   S    
O13   V3    S    
C25   C26   A    
C27   C28   A    
O1    C2    A    
O18   V4    S    
C13   C14   A    
C31   C36   A    
O5    V1    S    
O16   V4    S    
O8    C3    A    
C11   C16   A    
O6    V2    S    
C26   C60   S    
O17   V3    S    
C19   H12   S    
O12   V3    S    
C14   H7    S    
C6    H2    S    
O7    V2    S    
C17   C22   A    
C12   C13   A    
O3    V1    S    
V1    O10   S    
O19   C60   A    
C37   C38   A    
H9    C29   S    
C31   H16   S    
C52   C53   A    
C18   H11   S    
C33   H18   S    
C54   H27   S    
C5    C6    A    
O15   V3    S    
C15   C16   A    
C34   C35   A    
C45   H23   S    
O4    V1    S    
C51   H26   S    
C3    C23   S    
C28   C29   A    
C11   H5    S    
C8    H3    S    
C7    C8    A    
C22   C26   A    
C44   H22   S    
C61   H29   S    
