data_mof_unit_51993.cif
_audit_creation_date              2012-12-11T15:27:15-0500
_audit_creation_method            fapswitch 2.2
_symmetry_space_group_name_H-M    P1
_symmetry_Int_Tables_number       1
_space_group_crystal_system       monoclinic
_cell_length_a                    14.042776
_cell_length_b                    14.042772
_cell_length_c                    27.305444
_cell_angle_alpha                 90.0
_cell_angle_beta                  90.0
_cell_angle_gamma                 119.999898
_cell_volume                      4663.22245779

loop_
_atom_site_label
_atom_site_type_symbol
_atom_type_description
_atom_site_fract_x
_atom_site_fract_y
_atom_site_fract_z
_atom_type_partial_charge
C1    C     C_R   0.234491 0.787701 0.568389 0.542533
C2    C     C_R   0.212299 0.446790 0.568389 0.542534
C3    C     C_R   0.553210 0.765509 0.568389 0.542534
C4    C     C_3   0.737947 0.788565 0.784637 -0.201606
C5    C     C_3   0.211434 0.949381 0.784637 -0.201606
C6    C     C_3   0.050619 0.262053 0.784637 -0.201607
C7    C     C_3   0.710818 0.764917 0.729369 0.108302
C8    C     C_3   0.235083 0.945901 0.729369 0.108302
C9    C     C_3   0.054099 0.289182 0.729369 0.108302
C10   C     C_1   0.707454 0.866154 0.858990 -0.063534
C11   C     C_1   0.133846 0.841300 0.858990 -0.063534
C12   C     C_1   0.158700 0.292546 0.858990 -0.063534
C13   C     C_1   0.631424 0.812613 0.657713 0.053381
C14   C     C_1   0.187387 0.818810 0.657713 0.053381
C15   C     C_1   0.181190 0.368576 0.657714 0.053381
C16   C     C_1   0.602986 0.795716 0.615580 0.102514
C17   C     C_1   0.204284 0.807271 0.615581 0.102513
C18   C     C_1   0.192730 0.397014 0.615581 0.102514
C19   C     C_R   0.107107 0.219989 0.949125 0.551971
C20   C     C_R   0.780011 0.887118 0.949125 0.551971
C21   C     C_R   0.112882 0.892893 0.949125 0.551971
C22   C     C_R   0.616143 0.809506 0.385322 -0.000002
C23   C     C_R   0.190494 0.806637 0.385322 -0.000002
C24   C     C_R   0.193363 0.383857 0.385322 -0.000002
C25   C     C_R   0.618995 0.900279 0.361230 0.246316
C26   C     C_R   0.099721 0.718716 0.361229 0.246316
C27   C     C_R   0.281284 0.381005 0.361229 0.246316
C28   C     C_R   0.621630 0.903395 0.310415 -0.048654
C29   C     C_R   0.096605 0.718235 0.310415 -0.048654
C30   C     C_R   0.281766 0.378371 0.310415 -0.048654
C31   C     C_R   0.651671 0.837452 0.283807 0.004786
C32   C     C_R   0.162548 0.814219 0.283807 0.004786
C33   C     C_R   0.185781 0.348328 0.283807 0.004786
C34   C     C_R   0.232252 0.787827 0.431807 0.542063
C35   C     C_R   0.212173 0.444425 0.431807 0.542063
C36   C     C_R   0.555575 0.767748 0.431807 0.542064
C37   C     C_R   0.669061 0.760170 0.308978 -0.077769
C38   C     C_R   0.239830 0.908891 0.308978 -0.077770
C39   C     C_R   0.091109 0.330939 0.308978 -0.077769
C40   C     C_R   0.647418 0.743532 0.358994 -0.118296
C41   C     C_R   0.256468 0.903887 0.358994 -0.118297
C42   C     C_R   0.096113 0.352581 0.358994 -0.118296
C43   C     C_R   0.629966 0.754838 0.201434 -0.149947
C44   C     C_R   0.245162 0.875129 0.201434 -0.149947
C45   C     C_R   0.124871 0.370034 0.201434 -0.149947
C46   C     C_R   0.659153 0.763607 0.152296 -0.128783
C47   C     C_R   0.236393 0.895547 0.152296 -0.128783
C48   C     C_R   0.104453 0.340846 0.152296 -0.128783
C49   C     C_R   0.717248 0.957149 0.154945 0.258419
C50   C     C_R   0.042852 0.760099 0.154945 0.258419
C51   C     C_R   0.239901 0.282752 0.154945 0.258419
C52   C     C_R   0.714367 0.954363 0.206370 0.258720
C53   C     C_R   0.045637 0.760004 0.206370 0.258720
C54   C     C_R   0.239997 0.285633 0.206370 0.258720
C55   C     C_R   0.665968 0.850123 0.230056 -0.006380
C56   C     C_R   0.149877 0.815845 0.230056 -0.006381
C57   C     C_R   0.184155 0.334032 0.230056 -0.006380
C58   C     C_R   0.710578 0.866506 0.129695 -0.010784
C59   C     C_R   0.133495 0.844073 0.129695 -0.010784
C60   C     C_R   0.155927 0.289422 0.129695 -0.010784
C61   C     C_R   0.108175 0.223921 0.085080 0.589974
C62   C     C_R   0.776079 0.884254 0.085080 0.589974
C63   C     C_R   0.115746 0.891825 0.085080 0.589974
C64   C     C_3   0.542406 0.786488 0.738772 -0.206320
C65   C     C_3   0.213512 0.755918 0.738772 -0.206320
C66   C     C_3   0.244081 0.457594 0.738772 -0.206320
C67   C     C_3   0.729222 0.953445 0.723475 0.105081
C68   C     C_3   0.046555 0.775776 0.723475 0.105081
C69   C     C_3   0.224224 0.270779 0.723475 0.105081
C70   C     C_3   0.740602 0.968340 0.780353 -0.192440
C71   C     C_3   0.031660 0.772262 0.780353 -0.192440
C72   C     C_3   0.227739 0.259398 0.780353 -0.192439
C73   C     C_1   0.734160 0.874139 0.901278 0.001053
C74   C     C_1   0.125861 0.860020 0.901278 0.001053
C75   C     C_1   0.139980 0.265840 0.901278 0.001053
C76   C     C_3   0.652632 0.828624 0.710669 0.011893
C77   C     C_3   0.171376 0.824008 0.710669 0.011893
C78   C     C_3   0.175992 0.347369 0.710669 0.011893
C79   C     C_3   0.561810 0.794071 0.794889 -0.228233
C80   C     C_3   0.205930 0.767739 0.794889 -0.228233
C81   C     C_3   0.232260 0.438190 0.794889 -0.228233
C82   C     C_3   0.686610 0.854741 0.806060 -0.017015
C83   C     C_3   0.145259 0.831869 0.806060 -0.017014
C84   C     C_3   0.168131 0.313390 0.806060 -0.017014
Cr1   Cr    Cr6+3 0.164410 0.584450 0.499910 1.175231
Cr2   Cr    Cr6+3 0.415550 0.579960 0.499910 1.175231
Cr3   Cr    Cr6+3 0.420040 0.835590 0.499910 1.175231
Cr4   Cr    Cr6+3 0.156760 0.076070 0.017830 1.142528
Cr5   Cr    Cr6+3 0.923930 0.080690 0.017830 1.142528
Cr6   Cr    Cr6+3 0.919310 0.843240 0.017830 1.142528
H1    H     H_    0.523209 0.838574 0.811888 0.138514
H2    H     H_    0.161427 0.684635 0.811888 0.138513
H3    H     H_    0.315364 0.476791 0.811888 0.138513
H4    H     H_    0.481240 0.701234 0.728035 0.166197
H5    H     H_    0.298766 0.780005 0.728035 0.166197
H6    H     H_    0.219994 0.518761 0.728035 0.166197
H7    H     H_    0.521365 0.710220 0.811084 0.147180
H8    H     H_    0.289780 0.811145 0.811084 0.147180
H9    H     H_    0.188854 0.478635 0.811084 0.147180
H10   H     H_    0.828750 0.836857 0.789254 0.079175
H11   H     H_    0.163143 0.991893 0.789254 0.079175
H12   H     H_    0.008107 0.171249 0.789254 0.079175
H13   H     H_    0.588525 0.673935 0.218008 0.140528
H14   H     H_    0.326065 0.914590 0.218008 0.140528
H15   H     H_    0.085410 0.411475 0.218008 0.140528
H16   H     H_    0.646075 0.691005 0.132650 0.183473
H17   H     H_    0.308995 0.955070 0.132650 0.183474
H18   H     H_    0.044929 0.353924 0.132650 0.183474
H19   H     H_    0.604390 0.960904 0.291892 0.194487
H20   H     H_    0.039097 0.643486 0.291892 0.194487
H21   H     H_    0.356514 0.395611 0.291892 0.194487
H22   H     H_    0.694722 0.709356 0.289746 0.191310
H23   H     H_    0.290644 0.985366 0.289746 0.191310
H24   H     H_    0.014634 0.305278 0.289746 0.191310
H25   H     H_    0.504358 0.835984 0.728428 0.212231
H26   H     H_    0.164017 0.668375 0.728428 0.212230
H27   H     H_    0.331625 0.495642 0.728428 0.212231
H28   H     H_    0.651513 0.676654 0.376616 0.207495
H29   H     H_    0.323346 0.974858 0.376616 0.207495
H30   H     H_    0.025142 0.348487 0.376616 0.207495
H31   H     H_    0.812465 0.978088 0.708886 0.090575
H32   H     H_    0.021912 0.834377 0.708886 0.090575
H33   H     H_    0.165624 0.187536 0.708886 0.090575
H34   H     H_    0.701404 0.014408 0.794575 0.208464
H35   H     H_    0.985592 0.686995 0.794575 0.208464
H36   H     H_    0.313005 0.298597 0.794575 0.208464
H37   H     H_    0.829122 0.016684 0.790215 0.086973
H38   H     H_    0.983315 0.812437 0.790215 0.086973
H39   H     H_    0.187563 0.170878 0.790215 0.086973
H40   H     H_    0.789572 0.795711 0.709037 0.122822
H41   H     H_    0.204289 0.993861 0.709037 0.122822
H42   H     H_    0.006139 0.210428 0.709037 0.122822
H43   H     H_    0.709593 0.711475 0.805938 0.167013
H44   H     H_    0.288525 0.998118 0.805938 0.167013
H45   H     H_    0.001881 0.290406 0.805937 0.167013
O1    O     O_R   0.137310 0.468260 0.552980 -0.467747
O2    O     O_R   0.531740 0.669050 0.552980 -0.467747
O3    O     O_R   0.330950 0.862690 0.552980 -0.467747
O4    O     O_R   0.180530 0.983530 0.965090 -0.508364
O5    O     O_R   0.016470 0.197000 0.965090 -0.508364
O6    O     O_R   0.803000 0.819470 0.965090 -0.508364
O7    O     O_R   0.174120 0.688790 0.549730 -0.471476
O8    O     O_R   0.311210 0.485330 0.549730 -0.471477
O9    O     O_R   0.514670 0.825880 0.549730 -0.471476
O10   O     O_R   0.139940 0.470480 0.446230 -0.474343
O11   O     O_R   0.529520 0.669460 0.446230 -0.474343
O12   O     O_R   0.330540 0.860060 0.446230 -0.474344
O13   O     O_R   0.176560 0.690850 0.450770 -0.442615
O14   O     O_R   0.309150 0.485710 0.450770 -0.442616
O15   O     O_R   0.514290 0.823440 0.450770 -0.442616
O16   O     O_3   0.333333 0.666667 0.499990 -0.351046
O17   O     O_3   0.000000 0.000000 0.017910 -0.279258
O18   O     O_R   0.149710 0.171070 0.967700 -0.495146
O19   O     O_R   0.828930 0.978640 0.967700 -0.495146
O20   O     O_R   0.021360 0.850290 0.967700 -0.495146
O21   O     O_R   0.178510 0.985930 0.071830 -0.467414
O22   O     O_R   0.014070 0.192580 0.071830 -0.467414
O23   O     O_R   0.807420 0.821490 0.071830 -0.467414
O24   O     O_R   0.147830 0.173300 0.066650 -0.440316
O25   O     O_R   0.826700 0.974530 0.066650 -0.440317
O26   O     O_R   0.025470 0.852170 0.066650 -0.440317
S1    S     S_3+6 0.632540 0.017748 0.391913 0.065821
O27   O     O_2   0.521375 0.006964 0.397910 -0.287241
O28   O     O_2   0.685150 0.030473 0.441256 -0.235742
O29   O     O_3   0.711847 0.130536 0.358301 -0.449451
H46   H     H_    0.714313 0.192202 0.376978 0.380732
S2    S     S_3+6 0.982252 0.614792 0.391912 0.065821
O30   O     O_2   0.993036 0.514412 0.397910 -0.287241
O31   O     O_2   0.969527 0.654678 0.441256 -0.235742
O32   O     O_3   0.869464 0.581312 0.358301 -0.449451
H47   H     H_    0.807798 0.522112 0.376978 0.380732
S3    S     S_3+6 0.385208 0.367460 0.391912 0.065821
O33   O     O_2   0.485588 0.478625 0.397910 -0.287241
O34   O     O_2   0.345323 0.314849 0.441256 -0.235742
O35   O     O_3   0.418689 0.288153 0.358301 -0.449452
H48   H     H_    0.477889 0.285687 0.376978 0.380732
S4    S     S_3+6 0.795638 0.080677 0.238233 0.070950
O36   O     O_2   0.727104 0.132149 0.250778 -0.233662
O37   O     O_2   0.843287 0.063202 0.284371 -0.215199
O38   O     O_3   0.900476 0.167417 0.202520 -0.491922
H49   H     H_    0.895062 0.235027 0.201085 0.373508
S5    S     S_3+6 0.919323 0.714960 0.238233 0.070950
O39   O     O_2   0.867851 0.594955 0.250778 -0.233662
O40   O     O_2   0.936797 0.780085 0.284370 -0.215200
O41   O     O_3   0.832583 0.733059 0.202519 -0.491922
H50   H     H_    0.764974 0.660036 0.201085 0.373508
S6    S     S_3+6 0.285040 0.204363 0.238233 0.070950
O42   O     O_2   0.405046 0.272897 0.250778 -0.233662
O43   O     O_2   0.219916 0.156713 0.284370 -0.215200
O44   O     O_3   0.266942 0.099525 0.202519 -0.491922
H51   H     H_    0.339965 0.104938 0.201085 0.373508
S7    S     S_3+6 0.705109 0.060609 0.122606 0.050502
O45   O     O_2   0.816567 0.156200 0.110939 -0.248598
O46   O     O_2   0.643561 0.013492 0.075595 -0.297105
O47   O     O_3   0.635020 0.104724 0.156665 -0.486657
H52   H     H_    0.633410 0.162889 0.136771 0.375274
S8    S     S_3+6 0.939392 0.644501 0.122606 0.050502
O48   O     O_2   0.843800 0.660367 0.110939 -0.248597
O49   O     O_2   0.986509 0.630069 0.075594 -0.297105
O50   O     O_3   0.895277 0.530296 0.156665 -0.486658
H53   H     H_    0.837113 0.470522 0.136771 0.375274
S9    S     S_3+6 0.355499 0.294891 0.122606 0.050502
O51   O     O_2   0.339633 0.183433 0.110939 -0.248597
O52   O     O_2   0.369930 0.356439 0.075594 -0.297105
O53   O     O_3   0.469704 0.364981 0.156665 -0.486657
H54   H     H_    0.529478 0.366590 0.136771 0.375274
S10   S     S_3+6 0.691081 0.046494 0.694603 0.061960
O54   O     O_2   0.785433 0.125442 0.663044 -0.213682
O55   O     O_2   0.591315 0.986098 0.662657 -0.219847
O56   O     O_3   0.664512 0.118145 0.736350 -0.462414
H55   H     H_    0.645458 0.165900 0.716950 0.426863
S11   S     S_3+6 0.953507 0.644588 0.694603 0.061960
O57   O     O_2   0.874558 0.659991 0.663044 -0.213683
O58   O     O_2   0.013902 0.605217 0.662657 -0.219847
O59   O     O_3   0.881855 0.546367 0.736350 -0.462414
H56   H     H_    0.834101 0.479559 0.716950 0.426864
S12   S     S_3+6 0.355413 0.308920 0.694603 0.061960
O60   O     O_2   0.340010 0.214568 0.663044 -0.213682
O61   O     O_2   0.394783 0.408686 0.662658 -0.219847
O62   O     O_3   0.453633 0.335488 0.736350 -0.462413
H57   H     H_    0.520442 0.354541 0.716950 0.426863
S13   S     S_3+6 0.633989 0.618249 0.719323 0.034217
O63   O     O_2   0.603903 0.593375 0.666233 -0.171574
O64   O     O_2   0.703715 0.569656 0.733634 -0.231610
O65   O     O_3   0.519802 0.558833 0.753897 -0.550921
H58   H     H_    0.542082 0.541227 0.785491 0.351886
S14   S     S_3+6 0.381750 0.015740 0.719323 0.034216
O66   O     O_2   0.406625 0.010528 0.666233 -0.171574
O67   O     O_2   0.430343 0.134058 0.733634 -0.231610
O68   O     O_3   0.441167 0.960969 0.753898 -0.550923
H59   H     H_    0.458773 0.000855 0.785491 0.351887
S15   S     S_3+6 0.984260 0.366011 0.719323 0.034216
O69   O     O_2   0.989472 0.396097 0.666233 -0.171574
O70   O     O_2   0.865942 0.296285 0.733634 -0.231610
O71   O     O_3   0.039030 0.480198 0.753897 -0.550922
H60   H     H_    0.999145 0.457918 0.785491 0.351887

loop_
_geom_bond_atom_site_label_1
_geom_bond_atom_site_label_2
_ccdc_geom_bond_type
C70   H37   S    
C58   C62   S    
C15   C18   T    
C40   H28   S    
Cr6   O23   S    
O44   H51   S    
C2    C18   S    
C24   C42   A    
C9    H42   S    
C24   C27   A    
C36   O15   A    
C81   C84   S    
C6    C9    S    
C44   H14   S    
C72   H39   S    
S2    O31   D    
O29   H46   S    
O53   H54   S    
S3    O33   D    
S12   O62   S    
S6    O44   S    
C45   C57   A    
C33   C39   A    
C20   O19   A    
C9    S15   S    
C69   S12   S    
C50   C59   A    
Cr4   O21   S    
Cr1   O10   S    
C63   O21   A    
C37   C40   A    
C4    C7    S    
C5    C83   S    
C10   C73   T    
C23   C26   A    
C15   C78   S    
O32   H47   S    
C69   H33   S    
Cr2   O11   S    
C12   C84   S    
C51   S9    S    
C35   O10   A    
C14   C77   S    
S8    O49   D    
C52   S4    S    
C7    H40   S    
C1    O7    A    
Cr2   O2    S    
S5    O39   D    
C34   O13   A    
C50   S8    S    
Cr5   O17   S    
O41   H50   S    
S14   O66   D    
C45   H15   S    
O50   H53   S    
C37   H22   S    
C66   H27   S    
S10   O56   S    
O71   H60   S    
C62   O23   A    
C3    O2    A    
C32   C38   A    
Cr3   O9    S    
C39   C42   A    
C79   H1    S    
C44   C47   A    
C39   H24   S    
S4    O37   D    
C65   C80   S    
Cr3   O16   S    
C46   C58   A    
C27   C30   A    
C2    O8    A    
Cr4   O17   S    
C14   C17   T    
C43   H13   S    
C69   C78   S    
S8    O48   D    
C80   C83   S    
C67   H31   S    
O62   H57   S    
C8    S14   S    
S3    O34   D    
Cr2   O8    S    
C48   C60   A    
S2    O32   S    
S1    O28   D    
S13   O63   D    
C21   O20   A    
C5    H44   S    
C66   C78   S    
C5    H11   S    
C26   S2    S    
C50   C53   A    
C6    C84   S    
S9    O51   D    
Cr6   O26   S    
S10   O54   D    
C24   C35   S    
S7    O47   S    
C29   H20   S    
C65   C77   S    
C38   C41   A    
Cr6   O17   S    
Cr2   O14   S    
C68   H32   S    
S2    O30   D    
C49   S7    S    
C38   H23   S    
C19   O5    A    
C81   H9    S    
S13   O65   S    
C11   C83   S    
S12   O60   D    
C47   C59   A    
C21   C74   S    
S9    O53   S    
S15   O71   S    
C2    O1    A    
C49   C58   A    
C31   C37   A    
C72   H36   S    
C60   C61   S    
C25   C28   A    
S5    O41   S    
S7    O46   D    
C80   H2    S    
C69   C72   S    
O59   H56   S    
Cr1   O16   S    
Cr4   O4    S    
C6    H45   S    
C61   O22   A    
C5    C8    S    
S1    O29   S    
C81   H3    S    
C34   O12   A    
C44   C56   A    
O35   H48   S    
C13   C76   S    
C25   S1    S    
S4    O38   S    
C22   C40   A    
C8    H41   S    
S15   O70   D    
O65   H58   S    
C64   C76   S    
C41   H29   S    
S13   O64   D    
C72   C84   S    
S9    O52   D    
C36   O11   A    
S14   O67   D    
C22   C25   A    
S11   O58   D    
O56   H55   S    
C47   H17   S    
C54   S6    S    
C4    H10   S    
C8    C77   S    
C19   O18   A    
C65   H26   S    
C62   O25   A    
C71   H38   S    
C13   C16   T    
S12   O61   D    
C21   O4    A    
Cr3   O3    S    
C68   S11   S    
Cr1   O13   S    
C67   S10   S    
O38   H49   S    
Cr5   O25   S    
C66   H6    S    
S1    O27   D    
C45   C48   A    
C43   C55   A    
C68   C77   S    
C63   O26   A    
C23   C34   S    
C33   C57   S    
C30   C33   A    
C80   H8    S    
S11   O59   S    
C59   C63   S    
C20   O6    A    
C79   H7    S    
C28   C31   A    
C3    O9    A    
C49   C52   A    
S10   O55   D    
C11   C74   T    
Cr1   O7    S    
C79   C82   S    
C52   C55   A    
Cr5   O22   S    
C7    C76   S    
C51   C60   A    
C28   H19   S    
C29   C32   A    
C22   C36   S    
C1    C17   S    
C23   C41   A    
C30   H21   S    
C67   C70   S    
Cr4   O18   S    
C51   C54   A    
C61   O24   A    
C64   H4    S    
S6    O42   D    
C53   S5    S    
S7    O45   D    
C66   C81   S    
S8    O50   S    
Cr3   O15   S    
C42   H30   S    
Cr5   O19   S    
C48   H18   S    
Cr4   O24   S    
C68   C71   S    
C46   H16   S    
C19   C75   S    
S15   O69   D    
C64   C79   S    
C10   C82   S    
C20   C73   S    
C7    S13   S    
C9    C78   S    
C6    H12   S    
O68   H59   S    
C70   C82   S    
C43   C46   A    
S5    O40   D    
S6    O43   D    
Cr6   O6    S    
C3    C16   S    
Cr1   O1    S    
S3    O35   S    
O47   H52   S    
C70   H34   S    
C65   H5    S    
S14   O68   S    
C4    C82   S    
S11   O57   D    
C26   C29   A    
S4    O36   D    
Cr3   O12   S    
C12   C75   T    
C53   C56   A    
C64   H25   S    
C71   H35   S    
Cr5   O5    S    
C71   C83   S    
C67   C76   S    
C35   O14   A    
C31   C55   S    
Cr6   O20   S    
Cr2   O16   S    
C27   S3    S    
C32   C56   S    
C1    O3    A    
C4    H43   S    
C54   C57   A    
