data_mof_unit_11173.cif
_audit_creation_date              2012-12-10T20:58:05-0500
_audit_creation_method            fapswitch 2.2
_symmetry_space_group_name_H-M    P1
_symmetry_Int_Tables_number       1
_space_group_crystal_system       triclinic
_cell_length_a                    18.190919
_cell_length_b                    18.274136
_cell_length_c                    18.371015
_cell_angle_alpha                 120.141954
_cell_angle_beta                  89.94576
_cell_angle_gamma                 119.863024
_cell_volume                      4319.95807574

loop_
_atom_site_label
_atom_site_type_symbol
_atom_type_description
_atom_site_fract_x
_atom_site_fract_y
_atom_site_fract_z
_atom_type_partial_charge
C1    C     C_R   0.358936 0.220031 0.361074 0.499238
C2    C     C_3   0.800409 0.942697 0.701510 -0.034452
C3    C     C_3   0.699673 0.897687 0.696465 0.044441
C4    C     C_R   0.641111 0.781040 0.638855 0.493168
C5    C     C_3   0.799739 0.102560 0.801599 0.044166
C6    C     C_3   0.754659 0.057884 0.854225 -0.242309
C7    C     C_3   0.858061 0.062466 0.762883 -0.225987
C8    C     C_3   0.675770 0.389864 0.237616 -0.233338
C9    C     C_3   0.735508 0.389864 0.177789 -0.232020
C10   C     C_3   0.683522 0.536029 0.246588 -0.234126
C11   C     C_3   0.799432 0.574530 0.360168 -0.229888
C12   C     C_3   0.280168 0.581815 0.360560 -0.230310
C13   C     C_3   0.698575 0.500109 0.302247 0.064834
C14   C     C_3   0.799964 0.500109 0.200769 0.068167
C15   C     C_3   0.743325 0.536068 0.186801 -0.234358
C16   C     C_R   0.360098 0.501417 0.641521 0.512138
C17   C     C_3   0.858782 0.574742 0.300841 -0.233415
C18   C     C_R   0.368870 0.176089 0.588919 -0.107941
C19   C     C_R   0.356056 0.128946 0.497618 -0.065345
C20   C     C_R   0.280454 0.099275 0.440549 0.063955
C21   C     C_R   0.217204 0.115483 0.475470 -0.081149
C22   C     C_R   0.229849 0.161689 0.566589 -0.112028
C23   C     C_3   0.300104 0.500733 0.302344 0.069165
C24   C     C_R   0.305750 0.192304 0.623347 -0.099455
C25   C     C_R   0.214385 0.944237 0.288095 -0.160390
C26   C     C_R   0.194481 0.892356 0.195701 0.016211
C27   C     C_R   0.228013 0.948996 0.158023 -0.036490
C28   C     C_R   0.640763 0.499952 0.359457 0.496792
C29   C     C_R   0.282116 0.055837 0.214181 -0.160043
C30   C     C_R   0.302130 0.107698 0.306543 0.016438
C31   C     C_R   0.267094 0.051122 0.344135 -0.035778
C32   C     C_R   0.265694 0.882012 0.017790 -0.080043
C33   C     C_R   0.246109 0.837895 0.926244 -0.109536
C34   C     C_3   0.197821 0.500333 0.200799 0.069009
C35   C     C_R   0.168410 0.812843 0.877556 -0.097247
C36   C     C_R   0.110371 0.832446 0.920377 -0.107959
C37   C     C_R   0.129734 0.876742 0.011890 -0.063943
C38   C     C_R   0.207288 0.901212 0.060993 0.066076
C39   C     C_R   0.913323 0.695427 0.614182 -0.103844
C40   C     C_R   0.641945 0.500111 0.639940 0.489375
C41   C     C_R   0.861849 0.621751 0.631150 -0.095997
C42   C     C_R   0.844488 0.651525 0.712302 0.088117
C43   C     C_R   0.880895 0.756910 0.777476 0.164212
C44   C     C_R   0.932979 0.830166 0.759704 -0.109812
C45   C     C_3   0.149046 0.392558 0.183726 -0.234961
C46   C     C_R   0.948678 0.799402 0.678270 -0.099825
C47   C     C_R   0.842122 0.570903 0.785917 -0.134764
C48   C     C_R   0.799245 0.500304 0.807806 0.019650
C49   C     C_R   0.704542 0.430610 0.774939 -0.028216
C50   C     C_R   0.655666 0.431364 0.718482 -0.158179
C51   C     C_R   0.698557 0.501526 0.696141 0.009886
C52   C     C_R   0.358088 0.500319 0.359445 0.496981
C53   C     C_R   0.793177 0.572877 0.730642 -0.010004
C54   C     C_R   0.614225 0.250899 0.734781 -0.115907
C55   C     C_R   0.562464 0.179081 0.754154 0.133194
C56   C     C_3   0.220694 0.581849 0.301235 -0.229945
C57   C     C_R   0.550933 0.214174 0.839048 0.108110
C58   C     C_R   0.589186 0.320286 0.900798 -0.149298
C59   C     C_R   0.639234 0.390545 0.880109 -0.106476
C60   C     C_R   0.653059 0.356404 0.797565 0.035506
C61   C     C_R   0.424229 0.818790 0.743641 -0.066284
C62   C     C_R   0.396099 0.745867 0.763299 0.182232
C63   C     C_R   0.309032 0.652783 0.714128 0.084913
C64   C     C_3   0.347492 0.527890 0.240689 -0.236399
C65   C     C_R   0.251111 0.635442 0.647981 -0.122979
C66   C     C_R   0.279956 0.708728 0.629261 -0.139166
C67   C     C_3   0.664028 0.940743 0.662721 -0.223353
C68   C     C_R   0.366457 0.800025 0.676811 -0.101635
C69   C     C_R   0.221679 0.566309 0.780810 -0.168848
C70   C     C_R   0.193283 0.496409 0.803601 0.006616
C71   C     C_R   0.220473 0.428548 0.772901 -0.024914
C72   C     C_R   0.275692 0.433305 0.721087 -0.142785
C73   C     C_R   0.304531 0.503603 0.698789 0.032501
C74   C     C_R   0.278109 0.572158 0.730240 -0.004770
C75   C     C_R   0.251974 0.368079 0.857913 0.153910
C76   C     C_3   0.287089 0.527064 0.180641 -0.235252
C77   C     C_R   0.224905 0.287759 0.868357 -0.048945
C78   C     C_3   0.725132 0.060588 0.721953 -0.232792
C79   C     C_R   0.142181 0.191129 0.812605 0.142905
C80   C     C_R   0.085094 0.175093 0.747019 -0.120360
C81   C     C_R   0.110034 0.254026 0.736824 -0.136703
C82   C     C_R   0.192899 0.350304 0.791605 0.060561
C83   C     C_R   0.857162 0.499946 0.142941 0.494902
C84   C     C_R   0.137756 0.498678 0.860828 0.498871
C85   C     C_R   0.856880 0.218994 0.861615 0.493251
C86   C     C_R   0.138380 0.779997 0.141160 0.500436
C87   C     C_R   0.855814 0.500284 0.862645 0.503567
C88   C     C_3   0.209299 0.392711 0.243277 -0.233197
C89   C     C_3   0.697271 0.938079 0.793087 -0.258203
C90   C     C_R   0.139760 0.499980 0.142978 0.496737
C91   C     C_2   0.813817 0.904203 0.611168 0.555250
C92   C     C_3   0.783913 0.780713 0.861990 -0.292368
C93   C     C_3   0.430342 0.018538 0.632752 -0.298505
C94   C     C_2   0.501114 0.143199 0.865857 0.565053
C95   C     C_3   0.446623 0.808979 0.916839 -0.326419
C96   C     C_3   0.403229 0.482113 0.972696 -0.323605
C97   C     C_3   0.171018 0.073069 0.807900 -0.314251
H1    H     H_    0.362753 0.471115 0.197890 0.130074
H2    H     H_    0.711154 0.083995 0.881385 0.141174
H3    H     H_    0.825414 0.917388 0.733367 0.109814
H4    H     H_    0.412551 0.605613 0.281720 0.106007
H5    H     H_    0.891751 0.095862 0.726306 0.149811
H6    H     H_    0.912284 0.090571 0.818129 0.115150
H7    H     H_    0.722628 0.910016 0.820844 0.094685
H8    H     H_    0.806925 0.087211 0.911919 0.107148
H9    H     H_    0.603846 0.334470 0.194754 0.146557
H10   H     H_    0.686322 0.362654 0.276286 0.101916
H11   H     H_    0.774933 0.362635 0.187517 0.101455
H12   H     H_    0.157824 0.564616 0.317985 0.124866
H13   H     H_    0.691973 0.334520 0.106491 0.152031
H14   H     H_    0.611742 0.483709 0.203968 0.134982
H15   H     H_    0.323294 0.604061 0.192057 0.106431
H16   H     H_    0.700183 0.483902 0.115705 0.127325
H17   H     H_    0.818221 0.654645 0.407568 0.165027
H18   H     H_    0.812083 0.549782 0.400274 0.119060
H19   H     H_    0.900343 0.550857 0.313071 0.123374
H20   H     H_    0.905537 0.654892 0.319628 0.134145
H21   H     H_    0.699730 0.615204 0.291812 0.112528
H22   H     H_    0.788419 0.615263 0.203180 0.106284
H23   H     H_    0.173951 0.371692 0.286164 0.104956
H24   H     H_    0.315628 0.228620 0.693954 0.114032
H25   H     H_    0.427757 0.200231 0.633050 0.096958
H26   H     H_    0.405341 0.116775 0.471581 0.093030
H27   H     H_    0.272710 0.469040 0.109352 0.132899
H28   H     H_    0.158463 0.092680 0.432188 0.096696
H29   H     H_    0.180972 0.174127 0.593225 0.107231
H30   H     H_    0.187851 0.901541 0.317369 0.141857
H31   H     H_    0.308070 0.098539 0.184854 0.145256
H32   H     H_    0.326045 0.901099 0.054906 0.091074
H33   H     H_    0.291154 0.823313 0.892937 0.107292
H34   H     H_    0.084821 0.371882 0.198174 0.102681
H35   H     H_    0.153385 0.778626 0.806736 0.109145
H36   H     H_    0.050555 0.813607 0.882712 0.107891
H37   H     H_    0.084373 0.891710 0.044462 0.098664
H38   H     H_    0.988689 0.856293 0.664980 0.132431
H39   H     H_    0.221253 0.332796 0.200221 0.133774
H40   H     H_    0.926452 0.672073 0.551568 0.098673
H41   H     H_    0.835500 0.541450 0.581183 0.094333
H42   H     H_    0.961107 0.911040 0.809169 0.095835
H43   H     H_    0.914685 0.625209 0.811565 0.144230
H44   H     H_    0.583073 0.377168 0.693005 0.143961
H45   H     H_    0.594684 0.914341 0.665015 0.134440
H46   H     H_    0.623063 0.224181 0.670004 0.097882
H47   H     H_    0.580951 0.349450 0.965773 0.140125
H48   H     H_    0.132057 0.332350 0.112338 0.135590
H49   H     H_    0.667908 0.471841 0.928739 0.108951
H50   H     H_    0.388781 0.856433 0.661981 0.154278
H51   H     H_    0.490673 0.890454 0.780537 0.133092
H52   H     H_    0.184104 0.564442 0.610100 0.099538
H53   H     H_    0.235362 0.694537 0.577572 0.099915
H54   H     H_    0.201738 0.619019 0.804211 0.139245
H55   H     H_    0.295865 0.380843 0.697822 0.150961
H56   H     H_    0.658956 0.910168 0.591930 0.162968
H57   H     H_    0.267020 0.299564 0.920096 0.112645
H58   H     H_    0.245457 0.564040 0.405231 0.127688
H59   H     H_    0.021811 0.100544 0.702625 0.120241
H60   H     H_    0.065458 0.239485 0.684793 0.110257
H61   H     H_    0.344126 0.660451 0.403767 0.125715
H62   H     H_    0.256442 0.660406 0.315826 0.126309
H63   H     H_    0.809980 0.903316 0.500974 0.328785
H64   H     H_    0.921617 0.862095 0.913599 0.235950
H65   H     H_    0.777487 0.804863 0.929087 0.131668
H66   H     H_    0.725792 0.699510 0.812677 0.167517
H67   H     H_    0.756029 0.088640 0.681168 0.133140
H68   H     H_    0.782603 0.831263 0.846072 0.127475
H69   H     H_    0.559781 0.057692 0.648632 0.231856
H70   H     H_    0.401375 0.935090 0.584516 0.125575
H71   H     H_    0.430501 0.050129 0.594468 0.121280
H72   H     H_    0.387267 0.026350 0.674964 0.170179
H73   H     H_    0.444760 0.123081 0.954776 0.333972
H74   H     H_    0.522399 0.803788 0.832984 0.236242
H75   H     H_    0.494179 0.817876 0.963560 0.139694
H76   H     H_    0.377531 0.758030 0.913664 0.156114
H77   H     H_    0.461810 0.886395 0.943113 0.134391
H78   H     H_    0.683372 0.090041 0.747108 0.153145
H79   H     H_    0.337475 0.530015 0.932685 0.257436
H80   H     H_    0.467435 0.558750 0.001611 0.140746
H81   H     H_    0.416492 0.422054 0.936739 0.151870
H82   H     H_    0.379537 0.480849 0.027997 0.128833
H83   H     H_    0.047497 0.051872 0.793094 0.241597
H84   H     H_    0.145124 0.012208 0.819962 0.142548
H85   H     H_    0.241327 0.136222 0.853662 0.159990
H86   H     H_    0.169786 0.039156 0.737580 0.140401
H87   H     H_    0.627072 0.907347 0.792758 0.117423
N1    N     N_2   0.867527 0.789836 0.861664 -0.530655
N2    N     N_2   0.521026 0.072044 0.687209 -0.491578
N3    N     N_2   0.456316 0.764271 0.829703 -0.515848
N4    N     N_2   0.337480 0.466007 0.911659 -0.521707
N5    N     N_2   0.115105 0.110921 0.824102 -0.527912
O1    O     O_3   0.500000 0.500000 0.500000 -0.439831
O2    O     O_R   0.113800 0.731630 0.056520 -0.532064
O3    O     O_R   0.819390 0.439310 0.886160 -0.535695
O4    O     O_R   0.383400 0.268380 0.323710 -0.555373
O5    O     O_R   0.115110 0.560720 0.179280 -0.553941
O6    O     O_R   0.941380 0.560750 0.885620 -0.552766
O7    O     O_R   0.115110 0.439270 0.057830 -0.545469
O8    O     O_R   0.942690 0.268390 0.886930 -0.547741
O9    O     O_R   0.114340 0.731630 0.178520 -0.555883
O10   O     O_R   0.820160 0.439310 0.057830 -0.548029
O11   O     O_R   0.113800 0.560730 0.885620 -0.548199
O12   O     O_R   0.383400 0.560740 0.616060 -0.533023
O13   O     O_R   0.555060 0.731630 0.615290 -0.554217
O14   O     O_R   0.383950 0.439280 0.616600 -0.547823
O15   O     O_R   0.677590 0.560710 0.444390 -0.530614
O16   O     O_R   0.556370 0.439260 0.616600 -0.552661
O17   O     O_R   0.382640 0.439290 0.322940 -0.549287
O18   O     O_R   0.678360 0.560700 0.616060 -0.540794
O19   O     O_R   0.382640 0.560750 0.444390 -0.550155
O20   O     O_2   0.840867 0.849047 0.584667 -0.531020
O21   O     O_R   0.797838 0.933632 0.559254 -0.741995
O22   O     O_2   0.481493 0.055129 0.821852 -0.534840
O23   O     O_R   0.555060 0.439270 0.322940 -0.552622
O24   O     O_R   0.477843 0.177953 0.943105 -0.740606
O25   O     O_R   0.383950 0.268380 0.445700 -0.533003
O26   O     O_R   0.677590 0.731610 0.615290 -0.513811
O27   O     O_3   0.997750 0.500010 0.002220 -0.434675
O28   O     O_R   0.942690 0.560750 0.179280 -0.554305
O29   O     O_R   0.114340 0.439270 0.886160 -0.536325
O30   O     O_R   0.820160 0.268410 0.886930 -0.543171
Zn1   Zn    Zn3+2 0.456040 0.586770 0.543190 0.927215
Zn2   Zn    Zn3+2 0.456820 0.413240 0.543960 0.930115
Zn3   Zn    Zn3+2 0.631110 0.586750 0.543190 0.956298
Zn4   Zn    Zn3+2 0.456040 0.413240 0.369660 0.915394
Zn5   Zn    Zn3+2 0.041710 0.413240 0.959030 0.928238
Zn6   Zn    Zn3+2 0.866640 0.413270 0.959030 0.926886
Zn7   Zn    Zn3+2 0.040930 0.586780 0.958260 0.931057
Zn8   Zn    Zn3+2 0.041710 0.586770 0.132560 0.908007

loop_
_geom_bond_atom_site_label_1
_geom_bond_atom_site_label_2
_ccdc_geom_bond_type
C33   H33   S    
O19   Zn1   S    
C66   C68   A    
C63   C65   A    
C34   C56   S    
C8    C13   S    
C27   C29   A    
C41   C42   A    
C96   N4    S    
C35   C36   A    
C91   O20   D    
O8    Zn5   S    
C36   H36   S    
C39   H40   S    
C81   C82   A    
C23   C52   S    
C95   N3    S    
C97   H85   S    
C39   C41   A    
H73   O24   S    
C54   C60   A    
C84   O11   A    
C9    H11   S    
C78   H67   S    
C12   C23   S    
C93   H72   S    
C26   C27   A    
C37   C38   A    
C49   C60   S    
C52   O17   A    
C36   C37   A    
C95   H77   S    
C66   H53   S    
C56   H62   S    
C10   C15   S    
O1    Zn3   S    
C42   C53   S    
C30   C31   A    
C83   O28   A    
C22   H29   S    
H83   N5    S    
C43   N1    S    
C27   C38   S    
C86   O2    A    
O14   Zn2   S    
C18   C19   A    
C73   C74   A    
C55   N2    S    
O13   Zn1   S    
C49   C50   A    
C11   H17   S    
C12   H61   S    
C1    C30   S    
H64   N1    S    
C33   C35   A    
C46   H38   S    
C40   O16   A    
C92   H68   S    
C11   C17   S    
C2    C7    S    
C93   H71   S    
C8    C9    S    
C72   H55   S    
C7    H5    S    
C47   H43   S    
C47   C48   A    
C15   H16   S    
C13   C28   S    
C80   H59   S    
C70   C71   A    
C32   C38   A    
C96   H80   S    
C88   H23   S    
C16   O14   A    
C11   H18   S    
C95   H75   S    
C50   H44   S    
C76   H15   S    
C47   C53   A    
C71   C82   S    
C5    C85   S    
C93   N2    S    
C64   H1    S    
C54   H46   S    
C40   O18   A    
C2    H3    S    
C94   O22   D    
C4    O26   A    
C7    H6    S    
C21   C22   A    
C65   H52   S    
C14   C17   S    
C2    C91   S    
C67   C78   S    
C14   C83   S    
C91   O21   S    
C32   H32   S    
C44   C46   A    
H79   N4    S    
C77   C79   A    
C64   H4    S    
C3    C89   S    
O27   Zn8   S    
C81   H60   S    
C25   H30   S    
C16   C73   S    
C28   O15   A    
C89   H87   S    
C10   H14   S    
C45   C88   S    
C88   H39   S    
O1    Zn2   S    
C5    C7    S    
C92   N1    S    
C72   C73   A    
C25   C26   A    
C45   H48   S    
O27   Zn7   S    
C8    H9    S    
C51   C53   A    
C69   H54   S    
O5    Zn8   S    
C1    O4    A    
C9    C14   S    
O27   Zn5   S    
C29   C30   A    
C10   H21   S    
O25   Zn2   S    
C77   H57   S    
O10   Zn6   S    
C4    O13   A    
C34   C90   S    
C90   O5    A    
O4    Zn4   S    
O17   Zn4   S    
C26   C86   S    
C19   H26   S    
C62   C63   A    
C14   C15   S    
C50   C51   A    
C64   C76   S    
C48   C87   S    
C69   C74   A    
C34   C45   S    
O11   Zn7   S    
O30   Zn6   S    
C97   H84   S    
C75   C77   A    
C41   H41   S    
O7    Zn5   S    
C68   H50   S    
C84   O29   A    
C18   H25   S    
C39   C46   A    
C92   H66   S    
C85   O8    A    
C23   C64   S    
C86   O9    A    
C45   H34   S    
C44   H42   S    
C57   C94   S    
C55   C57   A    
C43   C44   A    
C78   H78   S    
C18   C24   A    
C58   C59   A    
C42   C43   A    
C12   H58   S    
C21   H28   S    
C3    C4    S    
C6    C89   S    
O26   Zn3   S    
C56   H12   S    
C8    H10   S    
C70   C84   S    
O9    Zn8   S    
C92   H65   S    
C9    H13   S    
O28   Zn8   S    
C54   C55   A    
O3    Zn6   S    
C94   O24   S    
O6    Zn7   S    
O15   Zn3   S    
H69   N2    S    
C25   C31   A    
C61   H51   S    
C3    C67   S    
O12   Zn1   S    
C80   C81   A    
C10   C13   S    
O1    Zn1   S    
C23   C88   S    
C75   C82   A    
O29   Zn5   S    
C63   C74   S    
C17   H20   S    
C28   O23   A    
C40   C51   S    
H63   O21   S    
O27   Zn6   S    
H74   N3    S    
C67   H56   S    
C97   N5    S    
C32   C33   A    
C19   C20   A    
C2    C3    S    
C85   O30   A    
C87   O6    A    
C71   C72   A    
C89   H7    S    
O1    Zn4   S    
C6    H2    S    
C11   C13   S    
C61   C68   A    
C57   C58   A    
C5    C6    S    
C48   C49   A    
O16   Zn2   S    
C24   H24   S    
C12   C56   S    
C6    H8    S    
C15   H22   S    
C22   C24   A    
C96   H82   S    
C95   H76   S    
C61   C62   A    
C69   C70   A    
C75   N4    S    
C76   H27   S    
C79   C80   A    
C59   H49   S    
C58   H47   S    
C59   C60   A    
C90   O7    A    
C20   C21   A    
C93   H70   S    
O18   Zn3   S    
C65   C66   A    
C79   N5    S    
C29   H31   S    
C1    O25   A    
C37   H37   S    
C62   N3    S    
C97   H86   S    
O2    Zn7   S    
C96   H81   S    
C5    C78   S    
C67   H45   S    
C83   O10   A    
C35   H35   S    
C20   C31   S    
C16   O12   A    
C17   H19   S    
C34   C76   S    
C87   O3    A    
O23   Zn4   S    
C52   O19   A    
