data_mof_unit_21548.cif
_audit_creation_date              2012-12-11T14:08:37-0500
_audit_creation_method            fapswitch 2.2
_symmetry_space_group_name_H-M    P1
_symmetry_Int_Tables_number       1
_space_group_crystal_system       triclinic
_cell_length_a                    28.159205
_cell_length_b                    7.189164
_cell_length_c                    17.281034
_cell_angle_alpha                 90.230639
_cell_angle_beta                  102.041854
_cell_angle_gamma                 89.980116
_cell_volume                      3421.38361374

loop_
_atom_site_label
_atom_site_type_symbol
_atom_type_description
_atom_site_fract_x
_atom_site_fract_y
_atom_site_fract_z
_atom_type_partial_charge
O1    O     O_R   0.000700 0.436510 0.857920 -0.518674
O2    O     O_R   0.999300 0.563490 0.142080 -0.518622
O3    O     O_R   0.999300 0.936510 0.642080 -0.519098
O4    O     O_R   0.000700 0.063490 0.357920 -0.517262
O5    O     O_R   0.930080 0.766380 0.721890 -0.545865
O6    O     O_R   0.069920 0.233620 0.278110 -0.543020
O7    O     O_R   0.069920 0.266380 0.778110 -0.545129
O8    O     O_R   0.930080 0.733620 0.221890 -0.545872
C1    C     C_R   0.910652 0.597377 0.709179 0.717484
C2    C     C_R   0.089318 0.402595 0.291606 0.722024
C3    C     C_R   0.089361 0.097489 0.790941 0.719130
C4    C     C_R   0.910621 0.902492 0.209153 0.713923
O9    O     O_R   0.996180 0.766230 0.862310 -0.526722
O10   O     O_R   0.003820 0.233770 0.137690 -0.527765
O11   O     O_R   0.003820 0.266230 0.637690 -0.526391
O12   O     O_R   0.996180 0.733770 0.362310 -0.527803
O13   O     O_R   0.065870 0.936460 0.783500 -0.539654
O14   O     O_R   0.934130 0.063540 0.216500 -0.541167
O15   O     O_R   0.934130 0.436460 0.716500 -0.540391
O16   O     O_R   0.065870 0.563540 0.283500 -0.539799
C5    C     C_R   0.998852 0.596118 0.894426 0.677129
C6    C     C_R   0.001121 0.403899 0.105564 0.674020
C7    C     C_R   0.001040 0.095791 0.605625 0.677159
C8    C     C_R   0.998957 0.904219 0.394372 0.680801
O17   O     O_3   0.022790 0.603020 0.723980 -0.374161
O18   O     O_3   0.977210 0.396980 0.276020 -0.375783
O19   O     O_3   0.977210 0.103020 0.776020 -0.374898
O20   O     O_3   0.022790 0.896980 0.223980 -0.372409
V1    V     V_3+5 0.995770 0.877900 0.754830 1.457734
V2    V     V_3+5 0.004230 0.122100 0.245170 1.464418
V3    V     V_3+5 0.004230 0.377900 0.745170 1.458853
V4    V     V_3+5 0.995770 0.622100 0.254830 1.457222
C9    C     C_2   0.995247 0.081227 0.518250 0.129081
C10   C     C_2   0.004759 0.918833 0.481745 0.126753
C11   C     C_2   0.004523 0.581654 0.981881 0.124040
C12   C     C_2   0.995406 0.418490 0.018102 0.127669
C13   C     C_R   0.683328 0.026301 0.036352 0.765370
C14   C     C_R   0.315374 0.996372 0.974118 0.733597
C15   C     C_R   0.317008 0.433775 0.477412 0.746768
C16   C     C_R   0.684061 0.471763 0.534741 0.750457
O21   O     O_2   0.712745 0.076389 0.987523 -0.449104
O22   O     O_2   0.285216 0.970267 0.024411 -0.482576
O23   O     O_2   0.288442 0.398951 0.529424 -0.457261
O24   O     O_2   0.713760 0.427171 0.485482 -0.476228
N1    N     N_R   0.702982 0.962012 0.110235 -0.567639
N2    N     N_R   0.296648 0.034339 0.896364 -0.558212
N3    N     N_R   0.296936 0.447113 0.398637 -0.559691
N4    N     N_R   0.703285 0.535612 0.609103 -0.562318
C17   C     C_R   0.674440 0.918786 0.162773 0.730112
C18   C     C_R   0.326096 0.044476 0.842638 0.734483
C19   C     C_R   0.325593 0.462266 0.343856 0.717704
C20   C     C_R   0.674455 0.574394 0.661838 0.733218
C21   C     C_R   0.782084 0.089617 0.175183 -0.049502
C22   C     C_R   0.218072 0.911946 0.826035 -0.069384
C23   C     C_R   0.223556 0.285237 0.328267 -0.073222
C24   C     C_R   0.782164 0.410741 0.675491 -0.068908
C25   C     C_R   0.832461 0.076347 0.199270 -0.185583
C26   C     C_R   0.167781 0.925525 0.800505 -0.167344
C27   C     C_R   0.173216 0.272103 0.302133 -0.148328
C28   C     C_R   0.832502 0.424368 0.699870 -0.177548
C29   C     C_R   0.829788 0.765087 0.144494 -0.299293
C30   C     C_R   0.169716 0.233157 0.858349 -0.277101
C31   C     C_R   0.163865 0.570509 0.362354 -0.278408
C32   C     C_R   0.830039 0.733079 0.643676 -0.283315
C33   C     C_R   0.779104 0.778836 0.118476 0.439998
C34   C     C_R   0.220322 0.219696 0.885540 0.487377
C35   C     C_R   0.214358 0.585390 0.388964 0.484550
C36   C     C_R   0.779386 0.719129 0.617552 0.481468
C37   C     C_R   0.755041 0.943075 0.134163 0.246828
C38   C     C_R   0.244766 0.056152 0.869638 0.211636
C39   C     C_R   0.244697 0.439821 0.372335 0.203507
C40   C     C_R   0.755247 0.555891 0.633715 0.228289
C41   C     C_R   0.602078 0.989121 0.062319 -0.101461
C42   C     C_R   0.397198 0.002412 0.948798 -0.104965
C43   C     C_R   0.397926 0.460469 0.449745 -0.108413
C44   C     C_R   0.602713 0.496176 0.561327 -0.104154
C45   C     C_R   0.632770 0.037664 0.010517 -0.043733
C46   C     C_R   0.365822 0.985775 0.002115 -0.033337
C47   C     C_R   0.367215 0.454428 0.504502 -0.047928
C48   C     C_R   0.633625 0.455142 0.508888 -0.032540
C49   C     C_R   0.612511 0.096628 0.933734 0.056896
C50   C     C_R   0.385299 0.960381 0.082502 0.067351
C51   C     C_R   0.387086 0.466663 0.585399 0.061803
C52   C     C_R   0.613703 0.397074 0.431657 0.045972
C53   C     C_R   0.622856 0.935341 0.141177 -0.153722
C54   C     C_R   0.377213 0.020197 0.866803 -0.153253
C55   C     C_R   0.377275 0.457421 0.367396 -0.156847
C56   C     C_R   0.623163 0.548515 0.640666 -0.156837
C57   C     C_R   0.856931 0.913923 0.184377 -0.108426
C58   C     C_R   0.142995 0.086109 0.816448 -0.131617
C59   C     C_R   0.142814 0.414447 0.319017 -0.135229
C60   C     C_R   0.857030 0.585687 0.684361 -0.126797
H1    H     H_    0.848290 0.639594 0.132518 0.155650
H2    H     H_    0.150868 0.357273 0.870929 0.178343
H3    H     H_    0.140753 0.681006 0.375929 0.174724
H4    H     H_    0.848659 0.857439 0.631041 0.175186
H5    H     H_    0.635343 0.140136 0.893892 0.222008
H6    H     H_    0.361847 0.948484 0.124499 0.221989
H7    H     H_    0.363985 0.466443 0.628227 0.227452
H8    H     H_    0.636782 0.356828 0.391556 0.215555
C61   C     C_R   0.479809 0.023126 0.924535 -0.002185
C62   C     C_R   0.519467 0.955711 0.086938 -0.002067
C63   C     C_R   0.520207 0.509743 0.587344 -0.008455
C64   C     C_R   0.480413 0.453734 0.423986 -0.006451
C65   C     C_R   0.468037 0.968425 0.059467 0.059011
C66   C     C_R   0.530761 0.037725 0.954165 0.048757
C67   C     C_R   0.531591 0.444449 0.452917 0.070717
C68   C     C_R   0.469064 0.487051 0.560362 0.048477
C69   C     C_R   0.448486 0.997825 0.977670 0.089917
C70   C     C_R   0.550644 0.994809 0.034619 0.097140
C71   C     C_R   0.551386 0.483432 0.533928 0.079358
C72   C     C_R   0.449252 0.467675 0.477990 0.076469
C73   C     C_R   0.459444 0.022073 0.842724 -0.274269
C74   C     C_R   0.540724 0.905190 0.165251 -0.277440
C75   C     C_R   0.541119 0.557715 0.666265 -0.260844
C76   C     C_R   0.459540 0.451404 0.342438 -0.260361
C77   C     C_R   0.409257 0.012336 0.813262 0.448924
C78   C     C_R   0.591039 0.897866 0.193574 0.437939
C79   C     C_R   0.591321 0.574325 0.694090 0.429313
C80   C     C_R   0.409237 0.452170 0.313300 0.432103
O25   O     O_2   0.305783 0.084358 0.766969 -0.423313
O26   O     O_2   0.696448 0.857039 0.234673 -0.419654
O27   O     O_2   0.695804 0.641406 0.733417 -0.419645
O28   O     O_2   0.303644 0.485193 0.267583 -0.422864
C81   C     C_R   0.562582 0.096444 0.905915 -0.148787
C82   C     C_R   0.435178 0.952647 0.110850 -0.120937
C83   C     C_R   0.436842 0.482067 0.612985 -0.113931
C84   C     C_R   0.563777 0.393708 0.403785 -0.115116
H9    H     H_    0.148301 0.810400 0.767733 0.150341
H10   H     H_    0.852230 0.192915 0.230413 0.145264
H11   H     H_    0.852204 0.308903 0.731576 0.148007
H12   H     H_    0.158134 0.150841 0.268387 0.159409
H13   H     H_    0.236457 0.787353 0.812587 0.207139
H14   H     H_    0.763899 0.214953 0.188259 0.199361
H15   H     H_    0.763906 0.285985 0.688733 0.200597
H16   H     H_    0.246362 0.173678 0.314638 0.203211
H17   H     H_    0.482589 0.016210 0.800402 0.144934
H18   H     H_    0.518517 0.865423 0.205900 0.156550
H19   H     H_    0.518569 0.588460 0.707667 0.167096
H20   H     H_    0.482308 0.454912 0.299640 0.167027
H21   H     H_    0.549681 0.146763 0.846467 0.148545
H22   H     H_    0.446615 0.939248 0.174026 0.136266
H23   H     H_    0.448893 0.484367 0.676384 0.145722
H24   H     H_    0.551354 0.345487 0.343783 0.126293
O29   O     O_3   0.979005 0.238106 0.473956 -0.541713
C85   C     C_3   0.928469 0.256721 0.469240 0.123266
H25   H     H_    0.919115 0.256126 0.528815 0.109297
H26   H     H_    0.908533 0.141862 0.432879 0.098653
C86   C     C_3   0.911135 0.441022 0.430412 -0.617677
H27   H     H_    0.931380 0.557897 0.464459 0.231207
H28   H     H_    0.871799 0.458996 0.429084 0.175657
H29   H     H_    0.916753 0.443868 0.368822 0.223234
O30   O     O_3   0.021097 0.762033 0.526012 -0.543725
C87   C     C_3   0.071696 0.744559 0.531095 0.132220
H30   H     H_    0.091402 0.858147 0.568584 0.107001
H31   H     H_    0.081338 0.748471 0.471763 0.104076
C88   C     C_3   0.089035 0.558796 0.568458 -0.616113
H32   H     H_    0.069115 0.443110 0.533058 0.229372
H33   H     H_    0.128472 0.542199 0.570308 0.185190
H34   H     H_    0.082965 0.552316 0.629747 0.223302
O31   O     O_3   0.020436 0.739206 0.026490 -0.543181
C89   C     C_3   0.071028 0.758549 0.031928 0.133354
H35   H     H_    0.081035 0.751236 0.972876 0.105867
H36   H     H_    0.090910 0.647835 0.070528 0.106870
C90   C     C_3   0.087654 0.947139 0.067830 -0.618433
H37   H     H_    0.081161 0.957664 0.128788 0.225121
H38   H     H_    0.127115 0.964811 0.070231 0.175691
H39   H     H_    0.067626 0.059988 0.031116 0.230425
O32   O     O_3   0.979279 0.261253 0.973433 -0.541185
C91   C     C_3   0.928666 0.243056 0.968046 0.125178
H40   H     H_    0.908931 0.355671 0.930408 0.093730
H41   H     H_    0.918840 0.248016 0.027266 0.101881
C92   C     C_3   0.911579 0.056335 0.930688 -0.619576
H42   H     H_    0.931569 0.941595 0.966194 0.230197
H43   H     H_    0.872144 0.039153 0.928650 0.175233
H44   H     H_    0.917731 0.048719 0.869461 0.224825
S1    S     S_3+6 0.746591 0.589588 0.067008 0.053257
O33   O     O_2   0.711127 0.517195 0.113651 -0.307480
O34   O     O_2   0.718859 0.652608 0.987537 -0.254777
O35   O     O_3   0.784508 0.416789 0.054035 -0.497973
H45   H     H_    0.800140 0.459813 0.010988 0.339678
S2    S     S_3+6 0.251893 0.411104 0.936916 0.033703
O36   O     O_2   0.273901 0.356435 0.020538 -0.255924
O37   O     O_2   0.291610 0.471112 0.896340 -0.321564
O38   O     O_3   0.213423 0.589301 0.938731 -0.537241
H46   H     H_    0.229453 0.668996 0.983425 0.392779
S3    S     S_3+6 0.237998 0.790231 0.440211 0.029514
O39   O     O_2   0.252586 0.750924 0.527264 -0.264605
O40   O     O_2   0.281574 0.856429 0.410571 -0.325297
O41   O     O_3   0.195408 0.957658 0.426542 -0.538242
H47   H     H_    0.208620 0.056306 0.465261 0.379979
S4    S     S_3+6 0.747205 0.906604 0.565008 0.034312
O42   O     O_2   0.721920 0.840612 0.484253 -0.263332
O43   O     O_2   0.709842 0.977114 0.608574 -0.317175
O44   O     O_3   0.785609 0.080532 0.555645 -0.529677
H48   H     H_    0.775587 0.123632 0.500288 0.389774
S5    S     S_3+6 0.389742 0.960634 0.710800 0.062065
O45   O     O_2   0.354518 0.801023 0.700826 -0.263397
O46   O     O_2   0.364828 0.126174 0.667755 -0.295431
O47   O     O_3   0.436948 0.900972 0.670056 -0.518142
H49   H     H_    0.449587 0.019734 0.653533 0.333110
S6    S     S_3+6 0.610775 0.845842 0.295965 0.073548
O48   O     O_2   0.636632 0.661956 0.304247 -0.262298
O49   O     O_2   0.644995 0.994267 0.335915 -0.278998
O50   O     O_3   0.563768 0.831940 0.341984 -0.510225
H50   H     H_    0.554385 0.962529 0.349535 0.327654
S7    S     S_3+6 0.611056 0.617817 0.797403 0.078822
O51   O     O_2   0.648479 0.476145 0.832859 -0.247630
O52   O     O_2   0.633170 0.808657 0.809901 -0.291282
O53   O     O_3   0.564739 0.604309 0.845006 -0.502899
H51   H     H_    0.548443 0.726901 0.837160 0.330263
S8    S     S_3+6 0.389594 0.434114 0.208715 0.066841
O54   O     O_2   0.355513 0.272073 0.189008 -0.264711
O55   O     O_2   0.363367 0.608681 0.177028 -0.294483
O56   O     O_3   0.436618 0.401022 0.163896 -0.507908
H52   H     H_    0.449009 0.527252 0.156455 0.333563

loop_
_geom_bond_atom_site_label_1
_geom_bond_atom_site_label_2
_ccdc_geom_bond_type
C52   C84   A    
O1    C5    A    
O41   H47   S    
C23   C27   A    
O19   V1    S    
O13   V1    S    
O32   C91   S    
O12   C8    A    
O3    C7    A    
C11   C12   D    
C48   C52   A    
C21   C37   A    
C29   C57   A    
C42   C69   A    
O29   C85   S    
O4    V2    S    
C41   C70   A    
C90   H37   S    
C92   H42   S    
O7    C3    A    
C66   C81   A    
C43   C72   A    
C11   O31   S    
C25   C57   A    
C65   C82   A    
C32   C36   A    
C63   C71   A    
O10   V2    S    
C67   C84   A    
C14   O22   S    
N4    C20   A    
C86   H28   S    
C22   C26   A    
O4    C8    A    
C20   O27   S    
C29   H1    S    
C10   O30   S    
C91   H40   S    
C36   S4    S    
C26   H9    S    
C61   C69   A    
C23   H16   S    
C89   C90   S    
C31   H3    S    
O1    V3    S    
C61   C73   A    
C28   H11   S    
C62   C65   A    
O2    V4    S    
O3    V1    S    
C46   C50   A    
S2    O36   D    
C50   C82   A    
S3    O41   S    
C64   C76   A    
C1    O15   A    
C88   H32   S    
C2    O16   A    
O47   H49   S    
C24   C40   A    
S6    O50   S    
O2    C6    A    
S7    O53   S    
C16   C48   A    
O12   V4    S    
C63   C68   A    
O14   V2    S    
C45   C49   A    
C44   C56   A    
C87   H31   S    
C36   C40   A    
C68   C72   A    
O11   C7    A    
C34   S2    S    
O15   V3    S    
C90   H38   S    
C51   H7    S    
C19   O28   S    
C50   H6    S    
C31   C59   A    
C78   S6    S    
C18   O25   S    
C80   S8    S    
N4    C40   S    
O16   V4    S    
C1    C60   S    
C35   S3    S    
O31   C89   S    
C85   H26   S    
C28   C60   A    
C31   C35   A    
C27   H12   S    
O7    V3    S    
S6    O48   D    
C30   C34   A    
N1    C37   S    
S7    O51   D    
O8    V4    S    
S4    O44   S    
C17   C53   A    
C4    C57   S    
C20   C56   A    
C32   H4    S    
C87   C88   S    
C86   H29   S    
C81   H21   S    
C64   C72   A    
C21   C25   A    
O18   V4    S    
N3    C19   A    
C14   C46   A    
C7    C9    S    
O50   H50   S    
C22   H13   S    
C13   C45   A    
C82   H22   S    
C8    C10   S    
C76   C80   A    
S2    O38   S    
C15   C47   A    
S5    O47   S    
C63   C75   A    
O56   H52   S    
C30   H2    S    
O5    C1    A    
C62   C74   A    
C85   C86   S    
C84   H24   S    
C25   H10   S    
S5    O45   D    
C22   C38   A    
S8    O56   S    
N1    C17   A    
O8    C4    A    
S1    O35   S    
N3    C39   S    
C9    C10   D    
C12   O32   S    
O9    C5    A    
C83   H23   S    
C42   C54   A    
C56   C79   A    
C26   C58   A    
C41   C53   A    
C87   H30   S    
C74   C78   A    
C92   H43   S    
S6    O49   D    
C73   C77   A    
C43   C55   A    
O6    V2    S    
S8    O55   D    
C2    C59   S    
O53   H51   S    
C90   H39   S    
C75   C79   A    
C19   C55   A    
C73   H17   S    
C27   C59   A    
C62   C70   A    
C79   S7    S    
C32   C60   A    
C13   N1    A    
S3    O40   D    
O5    V1    S    
C24   H15   S    
C77   S5    S    
O35   H45   S    
C15   N3    A    
C85   H25   S    
C66   C70   A    
C92   H44   S    
O9    V1    S    
C61   C66   A    
C16   N4    A    
C65   C69   A    
C3    O13   A    
C51   C83   A    
C49   C81   A    
C67   C71   A    
O17   V3    S    
C21   H14   S    
C44   C48   A    
C75   H19   S    
O6    C2    A    
C52   H8    S    
C15   O23   S    
O11   V3    S    
C5    C11   S    
C88   H34   S    
C89   H35   S    
C6    C12   S    
N2    C18   A    
S4    O42   D    
O10   C6    A    
S5    O46   D    
C55   C80   A    
C89   H36   S    
C86   H27   S    
C14   N2    A    
C47   C51   A    
C3    C58   S    
O38   H46   S    
C34   C38   A    
C33   S1    S    
C44   C71   A    
C33   C37   A    
C17   O26   S    
C30   C58   A    
O20   V2    S    
C49   H5    S    
S1    O34   D    
C54   C77   A    
C35   C39   A    
C74   H18   S    
C68   C83   A    
C13   O21   S    
C53   C78   A    
S2    O37   D    
N2    C38   S    
C18   C54   A    
O44   H48   S    
C29   C33   A    
C16   O24   S    
C24   C28   A    
S8    O54   D    
C88   H33   S    
S1    O33   D    
C42   C46   A    
C4    O14   A    
S7    O52   D    
C41   C45   A    
S3    O39   D    
C91   H41   S    
O30   C87   S    
C43   C47   A    
C64   C67   A    
C23   C39   A    
C9    O29   S    
S4    O43   D    
C76   H20   S    
C91   C92   S    
