data_mof_unit_37692.cif
_audit_creation_date              2012-12-10T20:39:53-0500
_audit_creation_method            fapswitch 2.2
_symmetry_space_group_name_H-M    P1
_symmetry_Int_Tables_number       1
_space_group_crystal_system       triclinic
_cell_length_a                    22.94058
_cell_length_b                    10.730956
_cell_length_c                    9.901021
_cell_angle_alpha                 91.871412
_cell_angle_beta                  91.790073
_cell_angle_gamma                 91.587318
_cell_volume                      2433.88211403

loop_
_atom_site_label
_atom_site_type_symbol
_atom_type_description
_atom_site_fract_x
_atom_site_fract_y
_atom_site_fract_z
_atom_type_partial_charge
C1    C     C_R   0.499002 0.259596 0.497272 0.859769
C2    C     C_R   0.963396 0.281065 0.271613 -0.126108
C3    C     C_R   0.024041 0.282729 0.270987 -0.149406
C4    C     C_R   0.057031 0.316450 0.389026 -0.021504
C5    C     C_R   0.028813 0.340774 0.511411 -0.012819
C6    C     C_R   0.061711 0.371383 0.632025 -0.089473
C7    C     C_R   0.032118 0.388363 0.755372 -0.040149
C8    C     C_R   0.971201 0.392020 0.751984 -0.185763
C9    C     C_R   0.117590 0.331794 0.386498 0.519688
C10   C     C_R   0.122318 0.392351 0.621345 0.532778
C11   C     C_R   0.226377 0.516608 0.436561 -0.103081
C12   C     C_R   0.389035 0.499153 0.498405 0.919609
C13   C     C_R   0.285444 0.554230 0.438816 -0.026843
C14   C     C_R   0.326622 0.473374 0.495555 -0.092488
C15   C     C_R   0.308430 0.360224 0.549885 -0.225242
C16   C     C_R   0.249867 0.325503 0.548070 -0.052796
C17   C     C_R   0.208880 0.403460 0.491613 0.271031
C18   C     C_R   0.745324 0.320561 0.567889 0.021316
C19   C     C_R   0.688551 0.363773 0.572246 -0.248820
C20   C     C_R   0.672673 0.471755 0.505818 -0.113354
C21   C     C_R   0.714121 0.540609 0.434104 -0.068958
C22   C     C_R   0.771259 0.498803 0.432548 -0.141767
C23   C     C_R   0.497237 0.739602 0.501176 0.977408
C24   C     C_R   0.787112 0.390834 0.499064 0.211063
C25   C     C_R   0.484493 0.067979 0.614067 0.108757
C26   C     C_R   0.490720 0.126749 0.491401 -0.185749
C27   C     C_R   0.483838 0.055012 0.368218 -0.050067
C28   C     C_R   0.479128 0.926460 0.375098 -0.175519
C29   C     C_R   0.486146 0.869676 0.499839 -0.103249
C30   C     C_R   0.482883 0.940741 0.618584 0.115792
C31   C     C_3   0.520278 0.941799 0.744381 -0.429250
C32   C     C_3   0.521372 0.082531 0.741024 -0.421815
C33   C     C_R   0.469658 0.409731 0.064715 0.184295
C34   C     C_R   0.610981 0.498948 0.501893 0.971023
C35   C     C_R   0.533375 0.582591 0.080214 -0.077703
C36   C     C_R   0.533563 0.585279 0.937112 -0.005923
C37   C     C_R   0.471236 0.407226 0.922717 0.179233
C38   C     C_3   0.408172 0.372345 0.905544 -0.534547
C39   C     C_3   0.405110 0.380569 0.058969 -0.311086
C40   C     C_R   0.878320 0.383384 0.625220 0.567483
C41   C     C_R   0.874062 0.323674 0.390370 0.575647
C42   C     C_R   0.934713 0.312962 0.390369 -0.029061
C43   C     C_R   0.967430 0.339776 0.511353 -0.012521
C44   C     C_R   0.938864 0.371153 0.630702 -0.036081
H1    H     H_    0.939186 0.258618 0.177886 0.199871
H2    H     H_    0.804634 0.551999 0.382601 0.190062
H3    H     H_    0.476699 0.871133 0.281263 0.207014
H4    H     H_    0.563684 0.902653 0.725819 0.237792
H5    H     H_    0.497608 0.127411 0.824764 0.201616
H6    H     H_    0.565494 0.123714 0.724202 0.224306
H7    H     H_    0.382811 0.443352 0.851548 0.244166
H8    H     H_    0.339907 0.298160 0.593366 0.148899
H9    H     H_    0.236132 0.238744 0.591875 0.155970
N1    N     N_R   0.847514 0.361499 0.505833 -0.338037
N2    N     N_R   0.148294 0.372679 0.500320 -0.361131
N3    N     N_R   0.499610 0.499140 0.142800 -0.114311
N4    N     N_R   0.499610 0.499180 0.857150 -0.129603
O1    O     O_R   0.500010 0.316790 0.614690 -0.628142
O2    O     O_2   0.841881 0.299205 0.275649 -0.515001
O3    O     O_2   0.145595 0.309608 0.270629 -0.498211
O4    O     O_2   0.154924 0.438660 0.728064 -0.500561
O5    O     O_R   0.500000 0.316760 0.385350 -0.601115
O6    O     O_R   0.416160 0.499980 0.614700 -0.626614
O7    O     O_R   0.416150 0.499940 0.385360 -0.603084
O8    O     O_R   0.500000 0.683240 0.614650 -0.598450
O9    O     O_R   0.499990 0.683210 0.385310 -0.610462
O10   O     O_R   0.583850 0.500060 0.614640 -0.564083
O11   O     O_R   0.583840 0.500020 0.385300 -0.604048
O12   O     O_2   0.850489 0.419932 0.737306 -0.530704
Zn1   Zn    Zn3+2 0.500000 0.500020 0.653130 1.001085
Zn2   Zn    Zn3+2 0.500000 0.499980 0.346870 1.027188
H10   H     H_    0.655514 0.309978 0.622898 0.176713
C45   C     C_2   0.700171 0.657476 0.364187 0.932556
O13   O     O_2   0.657975 0.717952 0.395692 -0.622938
O14   O     O_R   0.736404 0.700136 0.263398 -0.770932
H11   H     H_    0.722695 0.780548 0.223606 0.368878
C46   C     C_2   0.487900 0.103846 0.230518 0.943247
O15   O     O_2   0.531581 0.162181 0.198342 -0.594637
O16   O     O_R   0.443950 0.071729 0.133702 -0.809383
H12   H     H_    0.452591 0.104750 0.041526 0.326080
H13   H     H_    0.496586 0.904748 0.831401 0.235349
H14   H     H_    0.559630 0.648450 0.142886 0.202204
H15   H     H_    0.044928 0.261346 0.176757 0.208863
C47   C     C_2   0.571451 0.686108 0.884583 0.893291
O17   O     O_2   0.593669 0.675975 0.775294 -0.574516
O18   O     O_R   0.585648 0.791631 0.967512 -0.823654
H16   H     H_    0.615529 0.849664 0.927065 0.362065
H17   H     H_    0.401472 0.275683 0.862965 0.194487
C48   C     C_2   0.367639 0.485830 0.105125 1.032601
O19   O     O_2   0.321884 0.461832 0.159892 -0.597784
O20   O     O_R   0.383867 0.609551 0.080899 -0.787057
H18   H     H_    0.354398 0.671049 0.114354 0.359931
H19   H     H_    0.393558 0.289766 0.103363 0.187536
C49   C     C_2   0.061923 0.397677 0.890560 0.992010
O21   O     O_2   0.099816 0.324455 0.920169 -0.545499
O22   O     O_R   0.044373 0.486184 0.986651 -0.790454
H20   H     H_    0.067472 0.482897 0.075394 0.360612
H21   H     H_    0.948915 0.409480 0.845429 0.216771
H22   H     H_    0.193277 0.576498 0.396274 0.180768
C50   C     C_2   0.301768 0.678367 0.385707 0.916166
O23   O     O_2   0.349675 0.727189 0.412849 -0.652617
O24   O     O_R   0.261541 0.740951 0.305474 -0.776566
H23   H     H_    0.277460 0.824369 0.275582 0.360582
C51   C     C_2   0.759507 0.201423 0.632899 0.973359
O25   O     O_2   0.727435 0.158974 0.717602 -0.606723
O26   O     O_R   0.808701 0.135875 0.595865 -0.790809
H24   H     H_    0.813283 0.056305 0.647145 0.361336

loop_
_geom_bond_atom_site_label_1
_geom_bond_atom_site_label_2
_ccdc_geom_bond_type
C28   H3    S    
C41   C42   A    
C19   C20   A    
C43   C44   A    
C1    O5    A    
C51   O26   S    
C7    C8    A    
C46   O15   D    
C26   C27   A    
C29   C30   A    
C18   C24   A    
C23   C29   S    
C23   O9    A    
C28   C29   A    
C47   O18   S    
C30   C31   S    
C12   O7    A    
O26   H24   S    
C24   N1    S    
C15   C16   A    
C21   C45   S    
C11   H22   S    
C18   C19   A    
C45   O13   D    
O7    Zn2   S    
C8    H21   S    
C16   H9    S    
C39   H19   S    
C33   C39   S    
C35   C36   A    
C16   C17   A    
C9    N2    A    
N4    Zn1   S    
C48   O20   S    
C17   N2    S    
C20   C34   S    
C33   N3    A    
C5    C43   A    
C21   C22   A    
C45   O14   S    
C19   H10   S    
C49   O21   D    
C51   O25   D    
C35   H14   S    
C46   O16   S    
C2    H1    S    
C38   C39   S    
C41   N1    A    
C40   O12   S    
C47   O17   D    
C41   O2    S    
C36   N4    A    
C34   O11   A    
O20   H18   S    
C12   O6    A    
O18   H16   S    
O1    Zn1   S    
C38   H7    S    
C25   C26   A    
C33   C37   A    
C38   H17   S    
O14   H11   S    
C37   C38   S    
O9    Zn2   S    
O6    Zn1   S    
N3    Zn2   S    
O22   H20   S    
C50   O24   S    
C18   C51   S    
C15   H8    S    
C49   O22   S    
C10   N2    A    
C32   H6    S    
C22   H2    S    
C12   C14   S    
C40   N1    A    
C31   H4    S    
C3    H15   S    
C1    C26   S    
C22   C24   A    
C10   O4    S    
C42   C43   A    
C3    C4    A    
C25   C30   A    
C7    C49   S    
C11   C17   A    
C35   N3    A    
C31   C32   S    
C8    C44   A    
C4    C5    A    
C27   C46   S    
C34   O10   A    
C6    C10   A    
C6    C7    A    
C31   H13   S    
C9    O3    S    
C23   O8    A    
C13   C50   S    
C36   C47   S    
C2    C3    A    
C4    C9    A    
C1    O1    A    
C11   C13   A    
C5    C6    A    
C2    C42   A    
O11   Zn2   S    
C50   O23   D    
O5    Zn2   S    
O24   H23   S    
C32   H5    S    
O16   H12   S    
C40   C44   A    
C20   C21   A    
C27   C28   A    
C14   C15   A    
O10   Zn1   S    
C48   O19   D    
C13   C14   A    
C39   C48   S    
C37   N4    A    
O8    Zn1   S    
C25   C32   S    
