data_mof_unit_19017.cif
_audit_creation_date              2012-12-11T16:14:50-0500
_audit_creation_method            fapswitch 2.2
_symmetry_space_group_name_H-M    P1
_symmetry_Int_Tables_number       1
_space_group_crystal_system       triclinic
_cell_length_a                    13.582601
_cell_length_b                    13.610309
_cell_length_c                    28.395285
_cell_angle_alpha                 90.789342
_cell_angle_beta                  90.44851
_cell_angle_gamma                 60.093314
_cell_volume                      4549.81678155

loop_
_atom_site_label
_atom_site_type_symbol
_atom_type_description
_atom_site_fract_x
_atom_site_fract_y
_atom_site_fract_z
_atom_type_partial_charge
C1    C     C_R   0.279224 0.621051 0.566277 0.548496
C2    C     C_1   0.638215 0.634304 0.612289 -0.010953
C3    C     C_3   0.721783 0.726646 0.758634 0.309844
C4    C     C_3   0.670877 0.682576 0.795075 0.022269
C5    C     C_3   0.768968 0.614407 0.730685 -0.125599
C6    C     C_3   0.655758 0.668079 0.703161 0.020193
C7    C     C_3   0.717549 0.569735 0.767543 -0.140399
C8    C     C_3   0.605117 0.624259 0.739717 0.288282
C9    C     C_1   0.682826 0.691781 0.845492 -0.024327
C10   C     C_1   0.647318 0.653816 0.652817 -0.043501
C11   C     C_1   0.635971 0.227708 0.610976 -0.007416
C12   C     C_R   0.621758 0.601123 0.566617 0.547220
C13   C     C_R   0.764344 0.178736 0.725402 0.008791
C14   C     C_R   0.772870 0.164126 0.774720 0.264751
C15   C     C_R   0.610385 0.134349 0.772913 -0.179812
C16   C     C_R   0.602692 0.147592 0.724284 -0.171818
C17   C     C_R   0.678804 0.169800 0.700310 -0.031582
C18   C     C_R   0.693615 0.144196 0.798336 0.021545
C19   C     C_1   0.700312 0.126371 0.848353 -0.031575
C20   C     C_1   0.658932 0.196215 0.651005 -0.059546
C21   C     C_1   0.707875 0.101073 0.889199 -0.015060
C22   C     C_1   0.226807 0.639919 0.611391 -0.011839
C23   C     C_R   0.600904 0.279262 0.565825 0.548114
C24   C     C_R   0.155457 0.581134 0.723932 -0.134463
C25   C     C_R   0.141469 0.587473 0.772798 -0.096457
C26   C     C_R   0.154355 0.758943 0.775069 -0.125792
C27   C     C_R   0.167097 0.753350 0.726274 -0.108966
C28   C     C_R   0.167947 0.664369 0.700650 0.027419
C29   C     C_R   0.142609 0.675544 0.798459 0.040463
C30   C     C_1   0.124855 0.684823 0.848405 -0.066612
C31   C     C_1   0.194633 0.652265 0.651464 -0.061988
C32   C     C_1   0.101152 0.699868 0.889563 -0.019527
C33   C     C_1   0.639815 0.631393 0.388689 -0.033978
C34   C     C_R   0.275652 0.621236 0.434875 0.537860
C35   C     C_R   0.721260 0.567854 0.269868 -0.130174
C36   C     C_R   0.721113 0.579141 0.221204 -0.162525
C37   C     C_R   0.594320 0.782558 0.229408 0.293361
C38   C     C_R   0.599449 0.770572 0.278741 -0.101522
C39   C     C_R   0.660659 0.663265 0.298773 -0.010850
C40   C     C_R   0.658407 0.685956 0.200808 0.046724
C41   C     C_1   0.670874 0.696063 0.151163 -0.020744
C42   C     C_1   0.652165 0.648939 0.348327 -0.075672
C43   C     C_1   0.690667 0.704228 0.110617 -0.011988
C44   C     C_1   0.628807 0.233406 0.386811 -0.013090
C45   C     C_R   0.620755 0.599924 0.434136 0.539310
C46   C     C_R   0.563558 0.201079 0.270341 -0.117194
C47   C     C_R   0.564736 0.194768 0.221087 0.012455
C48   C     C_R   0.742494 0.198431 0.221470 -0.121777
C49   C     C_R   0.740835 0.206703 0.270749 0.006842
C50   C     C_R   0.651932 0.203648 0.295174 0.018995
C51   C     C_R   0.657361 0.190287 0.196986 0.020563
C52   C     C_1   0.675083 0.160711 0.148151 -0.060845
C53   C     C_1   0.643399 0.212738 0.345454 -0.057217
C54   C     C_1   0.691614 0.121027 0.109241 -0.019618
C55   C     C_1   0.215438 0.641497 0.391828 -0.012019
C56   C     C_R   0.599801 0.277981 0.433362 0.542638
C57   C     C_R   0.165241 0.748836 0.279077 0.281630
C58   C     C_R   0.156843 0.751209 0.230037 -0.096574
C59   C     C_R   0.112787 0.599060 0.231468 -0.124718
C60   C     C_R   0.122215 0.595432 0.280417 -0.161953
C61   C     C_R   0.148518 0.670167 0.304108 0.048009
C62   C     C_R   0.133123 0.674787 0.206300 -0.004141
C63   C     C_1   0.118248 0.682620 0.156466 -0.053583
C64   C     C_1   0.177347 0.655262 0.352840 -0.023820
C65   C     C_1   0.095906 0.697775 0.115401 -0.007306
C66   C     C_R   0.720715 0.054861 0.935247 0.542415
C67   C     C_3   0.609034 0.781349 0.730610 -0.140054
C68   C     C_R   0.730735 0.717587 0.932315 0.546164
C69   C     C_R   0.056632 0.729572 0.936223 0.544858
C70   C     C_R   0.713770 0.058528 0.066544 0.546997
C71   C     C_R   0.725511 0.717910 0.064930 0.539843
C72   C     C_R   0.052439 0.728592 0.069030 0.545369
C73   C     C_3   0.557483 0.736515 0.767696 -0.134714
C74   C     C_1   0.699731 0.701607 0.886225 0.001682
Cr1   Cr    Cr6+3 0.413560 0.417690 0.499580 1.025114
Cr2   Cr    Cr6+3 0.418030 0.668340 0.500400 1.022006
Cr3   Cr    Cr6+3 0.668390 0.413960 0.499990 1.028304
Cr4   Cr    Cr6+3 0.919710 0.916540 0.003080 1.018756
Cr5   Cr    Cr6+3 0.665300 0.919470 0.999630 1.023386
Cr6   Cr    Cr6+3 0.916060 0.665490 0.000390 1.033599
H1    H     H_    0.471602 0.784471 0.783630 0.097461
H2    H     H_    0.535836 0.142286 0.705389 0.124146
H3    H     H_    0.157760 0.511047 0.704430 0.105334
H4    H     H_    0.131076 0.523312 0.790576 0.117999
H5    H     H_    0.154085 0.827963 0.794512 0.091765
H6    H     H_    0.178393 0.817149 0.708636 0.108540
H7    H     H_    0.769146 0.484655 0.284839 0.136283
H8    H     H_    0.771223 0.504542 0.199481 0.117887
H9    H     H_    0.555266 0.844587 0.301385 0.107314
H10   H     H_    0.493570 0.203481 0.289494 0.110018
H11   H     H_    0.564004 0.866362 0.714321 0.092278
H12   H     H_    0.810913 0.197688 0.201746 0.105223
H13   H     H_    0.168320 0.812542 0.210619 0.111731
H14   H     H_    0.089259 0.543502 0.213289 0.116565
H15   H     H_    0.110921 0.533514 0.299624 0.114665
H16   H     H_    0.760800 0.483726 0.783018 0.129489
H17   H     H_    0.855119 0.566477 0.714993 0.102921
H18   H     H_    0.550532 0.117124 0.790829 0.127888
O1    O     O_R   0.503010 0.303330 0.550820 -0.509901
O2    O     O_R   0.522480 0.657560 0.452870 -0.502444
O3    O     O_R   0.693670 0.502790 0.448900 -0.517822
O4    O     O_R   0.656970 0.319650 0.452000 -0.496706
O5    O     O_3   0.499990 0.499990 0.499990 -0.249105
O6    O     O_R   0.035380 0.825870 0.952240 -0.519642
O7    O     O_R   0.818010 0.012400 0.954990 -0.500371
O8    O     O_R   0.644810 0.033340 0.949080 -0.506301
O9    O     O_R   0.674910 0.816000 0.950960 -0.496579
O10   O     O_R   0.827060 0.642880 0.947470 -0.505490
O11   O     O_R   0.013800 0.673690 0.954100 -0.488833
O12   O     O_R   0.320040 0.522690 0.547470 -0.496333
O13   O     O_R   0.031250 0.825430 0.055080 -0.510751
O14   O     O_R   0.814180 0.011990 0.050320 -0.494112
O15   O     O_R   0.640680 0.032900 0.051920 -0.515257
O16   O     O_R   0.671090 0.815590 0.046300 -0.498019
O17   O     O_R   0.822940 0.642440 0.050310 -0.509860
O18   O     O_R   0.009970 0.673280 0.049430 -0.494733
O19   O     O_3   0.833690 0.833830 0.001040 -0.248073
O20   O     O_R   0.303930 0.694040 0.551750 -0.503608
O21   O     O_R   0.523510 0.657900 0.548240 -0.489630
O22   O     O_R   0.694770 0.503160 0.551780 -0.510990
O23   O     O_R   0.657990 0.319990 0.547370 -0.489434
O24   O     O_R   0.501900 0.302960 0.447930 -0.509720
O25   O     O_R   0.319020 0.522350 0.452090 -0.497649
O26   O     O_R   0.302820 0.693680 0.448870 -0.523990
O27   O     O_3   0.536613 0.888738 0.209104 -0.579466
C75   C     C_3   0.418777 0.941618 0.218866 -0.000358
H19   H     H_    0.383460 0.034534 0.217953 0.172001
H20   H     H_    0.399071 0.925496 0.254707 0.098728
C76   C     C_3   0.358191 0.907518 0.181911 -0.266065
H21   H     H_    0.384209 0.917012 0.146052 0.177861
H22   H     H_    0.383141 0.817078 0.186534 0.147509
C77   C     C_3   0.229367 0.980691 0.186266 -0.494354
H23   H     H_    0.201185 0.972529 0.221860 0.157016
H24   H     H_    0.187787 0.953085 0.159554 0.151030
H25   H     H_    0.202095 0.071118 0.180217 0.150468
C78   C     C_R   0.466947 0.197674 0.195522 0.024399
C79   C     C_R   0.355619 0.285317 0.204908 -0.111494
C80   C     C_R   0.264204 0.293187 0.178778 -0.120165
C81   C     C_R   0.282949 0.215478 0.142537 -0.122258
C82   C     C_R   0.392733 0.127300 0.133318 -0.101092
C83   C     C_R   0.483775 0.116518 0.160467 -0.048363
H26   H     H_    0.339743 0.348607 0.231860 0.111217
H27   H     H_    0.178714 0.359968 0.186225 0.105021
H28   H     H_    0.212185 0.222680 0.122030 0.110367
H29   H     H_    0.407115 0.065846 0.105770 0.121354
H30   H     H_    0.567100 0.044072 0.154280 0.159631
C84   C     C_R   0.832196 0.219269 0.294848 0.030647
C85   C     C_R   0.806593 0.300596 0.330941 -0.094396
C86   C     C_R   0.892086 0.316412 0.351036 -0.113877
C87   C     C_R   0.003221 0.254431 0.334274 -0.117448
C88   C     C_R   0.029322 0.175380 0.297864 -0.113856
C89   C     C_R   0.945281 0.155935 0.278954 -0.081154
H31   H     H_    0.720001 0.355741 0.342296 0.119751
H32   H     H_    0.871352 0.379442 0.378585 0.136781
H33   H     H_    0.068819 0.268621 0.349082 0.107918
H34   H     H_    0.114659 0.129445 0.284005 0.103533
H35   H     H_    0.968469 0.092612 0.251305 0.115369
O28   O     O_3   0.186395 0.825552 0.302985 -0.565184
C90   C     C_3   0.304841 0.783440 0.304552 0.003040
H36   H     H_    0.331432 0.808616 0.272288 0.125453
H37   H     H_    0.355509 0.688987 0.306754 0.108607
C91   C     C_3   0.334847 0.830588 0.348178 -0.236060
H38   H     H_    0.317856 0.795819 0.380093 0.202601
H39   H     H_    0.426534 0.802379 0.347611 0.117522
C92   C     C_3   0.268362 0.959541 0.351622 -0.398042
H40   H     H_    0.176168 0.990145 0.355003 0.208333
H41   H     H_    0.284232 0.997223 0.320304 0.120603
H42   H     H_    0.296200 0.987737 0.383369 0.126677
O29   O     O_3   0.543701 0.569570 0.726954 -0.570934
C93   C     C_3   0.506622 0.540610 0.768075 0.002055
H43   H     H_    0.436310 0.618244 0.784734 0.138464
H44   H     H_    0.576924 0.496764 0.793987 0.135127
C94   C     C_3   0.463212 0.460046 0.754817 -0.245383
H45   H     H_    0.389429 0.503372 0.730810 0.189698
H46   H     H_    0.530947 0.385579 0.735814 0.185613
C95   C     C_3   0.428888 0.419859 0.798383 -0.472649
H47   H     H_    0.503967 0.369957 0.821206 0.161365
H48   H     H_    0.392940 0.365509 0.787499 0.150008
H49   H     H_    0.364111 0.493237 0.819004 0.155322
O30   O     O_3   0.790020 0.773405 0.772762 -0.559689
C96   C     C_3   0.787739 0.849902 0.739024 0.017300
H50   H     H_    0.829662 0.894270 0.755367 0.163828
H51   H     H_    0.699648 0.916436 0.730680 0.129730
C97   C     C_3   0.852097 0.789499 0.693829 -0.280161
H52   H     H_    0.933437 0.713431 0.703155 0.189683
H53   H     H_    0.801140 0.761837 0.672584 0.145845
C98   C     C_3   0.875915 0.867186 0.663695 -0.466785
H54   H     H_    0.794953 0.942414 0.652909 0.159096
H55   H     H_    0.923123 0.820687 0.631564 0.153341
H56   H     H_    0.928291 0.895273 0.683601 0.150012
C99   C     C_R   0.842798 0.206216 0.700636 0.066016
C100  C     C_R   0.954616 0.120915 0.690985 -0.086528
C101  C     C_R   0.028498 0.146805 0.667277 -0.112029
C102  C     C_R   0.990906 0.257719 0.652795 -0.103767
C103  C     C_R   0.879301 0.342791 0.661902 -0.102835
C104  C     C_R   0.805276 0.317272 0.685737 -0.078044
H57   H     H_    0.984420 0.034544 0.701644 0.077983
H58   H     H_    0.114771 0.080817 0.660013 0.107556
H59   H     H_    0.048100 0.277656 0.634368 0.107947
H60   H     H_    0.850276 0.428335 0.650374 0.117628
H61   H     H_    0.718903 0.383555 0.692411 0.157738
O31   O     O_3   0.848437 0.184337 0.800201 -0.572587
C105  C     C_3   0.944414 0.080535 0.813168 0.004713
H62   H     H_    0.008875 0.052030 0.784745 0.133691
H63   H     H_    0.924627 0.011465 0.819650 0.126544
C106  C     C_3   0.994808 0.100133 0.858232 -0.246967
H64   H     H_    0.013100 0.170200 0.852779 0.176962
H65   H     H_    0.931955 0.125302 0.887233 0.178640
C107  C     C_3   0.104264 0.993985 0.872474 -0.476350
H66   H     H_    0.170302 0.970758 0.845021 0.133274
H67   H     H_    0.088474 0.922324 0.877514 0.173931
H68   H     H_    0.136132 0.010305 0.906112 0.152682

loop_
_geom_bond_atom_site_label_1
_geom_bond_atom_site_label_2
_ccdc_geom_bond_type
C9    C74   T    
C58   C62   A    
C15   C18   A    
C23   O1    A    
C79   H26   S    
C63   C65   T    
C34   O25   A    
C47   C78   S    
C27   H6    S    
Cr1   O24   S    
C33   C45   S    
O29   C93   S    
C14   C18   A    
Cr3   O3    S    
C35   C36   A    
C105  H62   S    
Cr3   O22   S    
C2    C12   S    
C107  H68   S    
C57   O28   S    
C7    C8    S    
C23   O23   A    
C96   H50   S    
C36   H8    S    
C7    H16   S    
C105  H63   S    
C38   H9    S    
C26   C27   A    
C92   H40   S    
Cr4   O7    S    
Cr1   O25   S    
C33   C42   T    
C19   C21   T    
C24   H3    S    
C77   H25   S    
C76   H21   S    
C37   C40   A    
C80   H27   S    
C26   H5    S    
C5    C6    S    
C21   C66   S    
C106  H65   S    
C96   C97   S    
C93   H43   S    
C68   C74   S    
C15   C16   A    
C12   O21   A    
Cr5   O19   S    
C17   C20   S    
C97   H52   S    
C49   C84   S    
C18   C19   S    
C46   C47   A    
C99   C104  A    
C98   H56   S    
C12   O22   A    
C69   O11   A    
C44   C53   T    
C48   C51   A    
C84   C85   A    
C16   C17   A    
Cr1   O12   S    
Cr6   O11   S    
C25   H4    S    
C34   O26   A    
C88   C89   A    
C90   H37   S    
Cr4   O13   S    
C67   C73   S    
C68   O9    A    
C91   H39   S    
C1    O20   A    
C76   C77   S    
Cr2   O5    S    
C95   H48   S    
C102  C103  A    
C72   O13   A    
C1    C22   S    
C92   H41   S    
C94   H45   S    
C13   C14   A    
Cr1   O5    S    
C41   C43   T    
Cr3   O4    S    
C35   H7    S    
C66   O8    A    
C4    C7    S    
C73   H1    S    
C52   C54   T    
C39   C42   S    
C37   O27   S    
C94   H46   S    
C70   O15   A    
C25   C29   A    
C38   C39   A    
C105  C106  S    
C11   C20   T    
C50   C53   S    
C22   C31   T    
Cr4   O6    S    
C99   C100  A    
Cr2   O21   S    
C3    O30   S    
Cr6   O18   S    
C36   C40   A    
Cr4   O19   S    
C24   C25   A    
O31   C105  S    
C96   H51   S    
C5    C7    S    
C106  H64   S    
C77   H23   S    
C6    C8    S    
C75   C76   S    
C100  H57   S    
Cr2   O20   S    
C51   C52   S    
Cr5   O8    S    
C60   C61   A    
C69   O6    A    
Cr2   O26   S    
C37   C38   A    
C61   C64   S    
C35   C39   A    
C86   H32   S    
C60   H15   S    
C29   C30   S    
C1    O12   A    
C91   C92   S    
C81   H28   S    
C44   C56   S    
C90   H36   S    
C54   C70   S    
Cr6   O17   S    
C71   O17   A    
C55   C64   T    
C62   C63   S    
C67   H11   S    
C107  H66   S    
C90   C91   S    
Cr5   O9    S    
C88   H34   S    
C82   C83   A    
C75   H20   S    
C4    C73   S    
Cr6   O10   S    
C70   O14   A    
C83   H30   S    
C40   C41   S    
C59   H14   S    
C5    H17   S    
C49   C50   A    
C92   H42   S    
C87   H33   S    
Cr5   O15   S    
O28   C90   S    
C15   H18   S    
Cr3   O5    S    
Cr2   O2    S    
C85   H31   S    
C66   O7    A    
C3    C4    S    
C2    C10   T    
C8    O29   S    
C103  H60   S    
C94   C95   S    
C72   O18   A    
Cr6   O19   S    
C95   H47   S    
C59   C62   A    
C43   C71   S    
C58   H13   S    
C28   C31   S    
C3    C67   S    
C24   C28   A    
C16   H2    S    
C78   C79   A    
C3    C5    S    
C45   O2    A    
C82   H29   S    
C6    C10   S    
C47   C51   A    
C81   C82   A    
C57   C61   A    
C32   C69   S    
C46   H10   S    
C91   H38   S    
C65   C72   S    
C34   C55   S    
C79   C80   A    
C46   C50   A    
C13   C99   S    
C97   C98   S    
C13   C17   A    
C100  C101  A    
C95   H49   S    
C84   C89   A    
C104  H61   S    
C56   O4    A    
C98   H54   S    
C6    C67   S    
C86   C87   A    
C30   C32   T    
C106  C107  S    
C57   C58   A    
O27   C75   S    
C93   H44   S    
C75   H19   S    
C48   C49   A    
C14   O31   S    
C11   C23   S    
C8    C73   S    
C107  H67   S    
C78   C83   A    
C97   H53   S    
C89   H35   S    
C85   C86   A    
Cr1   O1    S    
C98   H55   S    
Cr3   O23   S    
C80   C81   A    
C103  C104  A    
C102  H59   S    
C59   C60   A    
C71   O16   A    
C26   C29   A    
C77   H24   S    
C101  C102  A    
C48   H12   S    
Cr5   O16   S    
C27   C28   A    
C87   C88   A    
Cr4   O14   S    
C68   O10   A    
C4    C9    S    
O30   C96   S    
C101  H58   S    
C56   O24   A    
C76   H22   S    
C93   C94   S    
C45   O3    A    
