data_mof_unit_36366.cif
_audit_creation_date              2012-10-26T19:42:34-0400
_audit_creation_method            fapswitch 2.2
_symmetry_space_group_name_H-M    P1
_symmetry_Int_Tables_number       1
_space_group_crystal_system       triclinic
_cell_length_a                    19.336206
_cell_length_b                    10.814455
_cell_length_c                    9.588524
_cell_angle_alpha                 90.270059
_cell_angle_beta                  89.443475
_cell_angle_gamma                 92.340716
_cell_volume                      2003.27515442

loop_
_atom_site_label
_atom_site_type_symbol
_atom_type_description
_atom_site_fract_x
_atom_site_fract_y
_atom_site_fract_z
_atom_type_partial_charge
C1    C     C_R   0.495508 0.262572 0.499802 0.545730
C2    C     C_R   0.853719 0.491153 0.480971 0.046857
C3    C     C_R   0.402713 0.124006 0.693877 -0.118286
C4    C     C_R   0.367416 0.499505 0.500737 0.535622
C5    C     C_R   0.369107 0.060249 0.802385 -0.116370
C6    C     C_R   0.375137 0.932744 0.815090 0.008431
C7    C     C_R   0.411644 0.868929 0.712623 -0.096252
C8    C     C_R   0.449372 0.932465 0.605435 0.012781
C9    C     C_R   0.446851 0.062952 0.599939 0.023430
C10   C     C_R   0.487677 0.128403 0.498897 -0.000991
C11   C     C_R   0.524127 0.065037 0.396722 -0.154608
C12   C     C_R   0.291184 0.498316 0.502541 -0.001670
C13   C     C_R   0.524297 0.937734 0.397803 -0.157966
C14   C     C_R   0.489266 0.870680 0.502814 -0.001013
C15   C     C_R   0.592918 0.662361 0.143237 -0.099095
C16   C     C_R   0.495995 0.737115 0.500876 0.531144
C17   C     C_R   0.638555 0.741330 0.070644 -0.184004
C18   C     C_R   0.638236 0.742070 0.927012 -0.170250
C19   C     C_R   0.592377 0.663662 0.855115 -0.087653
C20   C     C_R   0.545513 0.580198 0.924736 0.153351
C21   C     C_R   0.545642 0.579864 0.074376 0.156288
C22   C     C_R   0.456243 0.424658 0.074421 -0.009801
C23   C     C_R   0.929608 0.488577 0.481861 0.328661
C24   C     C_R   0.456205 0.424826 0.926532 -0.006639
C25   C     C_R   0.632515 0.500347 0.499049 0.538480
C26   C     C_R   0.254218 0.484466 0.628639 -0.133102
C27   C     C_R   0.181477 0.481595 0.631758 0.001525
C28   C     C_R   0.145472 0.493246 0.504187 0.049309
C29   C     C_R   0.183014 0.509016 0.379182 -0.134809
C30   C     C_R   0.254906 0.510414 0.378099 -0.143716
C31   C     C_3   0.347301 0.865546 0.942708 -0.253638
C32   C     C_3   0.289657 0.769087 0.907914 -0.298644
C33   C     C_3   0.270535 0.691320 0.036035 -0.458304
C34   C     C_R   0.069444 0.490636 0.496251 0.327618
C35   C     C_3   0.145037 0.467088 0.772122 -0.249642
C36   C     C_3   0.108628 0.584887 0.816158 -0.292309
C37   C     C_3   0.073329 0.568657 0.958351 -0.443959
C38   C     C_3   0.848093 0.505267 0.212282 -0.248682
C39   C     C_3   0.849665 0.636214 0.150893 -0.290498
C40   C     C_3   0.869108 0.634990 0.996340 -0.450054
C41   C     C_R   0.818519 0.482365 0.609671 -0.134310
C42   C     C_R   0.746701 0.487111 0.616721 -0.145022
C43   C     C_R   0.708562 0.499379 0.494622 -0.003160
C44   C     C_R   0.743398 0.507818 0.365721 -0.126936
C45   C     C_R   0.815581 0.503521 0.356700 -0.000139
Cu1   Cu    Cu3+1 0.500000 0.499990 0.640660 0.905157
Cu2   Cu    Cu3+1 0.500000 0.500010 0.359340 0.915650
H1    H     H_    0.282187 0.475518 0.725222 0.113982
H2    H     H_    0.596096 0.673113 0.745273 0.185566
H3    H     H_    0.420121 0.363540 0.871909 0.102168
H4    H     H_    0.156441 0.518124 0.281070 0.116915
H5    H     H_    0.282075 0.520670 0.279427 0.124642
H6    H     H_    0.846943 0.473035 0.705602 0.121577
H7    H     H_    0.721114 0.480313 0.717554 0.133006
H8    H     H_    0.714322 0.516111 0.270367 0.131823
H9    H     H_    0.554611 0.114523 0.317851 0.137737
H10   H     H_    0.316789 0.644790 0.074522 0.156245
H11   H     H_    0.249629 0.750346 0.120315 0.162273
H12   H     H_    0.393413 0.221352 0.684846 0.128204
H13   H     H_    0.230835 0.618895 0.008456 0.137201
H14   H     H_    0.243330 0.816789 0.871667 0.163427
H15   H     H_    0.306473 0.705829 0.823745 0.164253
H16   H     H_    0.391068 0.819462 0.992611 0.155011
H17   H     H_    0.327019 0.932204 0.020183 0.140600
H18   H     H_    0.033033 0.492592 0.953847 0.161210
H19   H     H_    0.111600 0.546631 0.039069 0.147834
H20   H     H_    0.048485 0.655666 0.988753 0.152703
H21   H     H_    0.147084 0.663796 0.821362 0.159599
H22   H     H_    0.068794 0.608448 0.739354 0.189051
H23   H     H_    0.338850 0.111000 0.877266 0.095905
H24   H     H_    0.107959 0.386173 0.769995 0.175690
H25   H     H_    0.183014 0.445912 0.854162 0.120719
H26   H     H_    0.919576 0.591657 0.980230 0.157513
H27   H     H_    0.828707 0.582540 0.936239 0.149090
H28   H     H_    0.873144 0.731292 0.956561 0.148698
H29   H     H_    0.798015 0.676952 0.162081 0.158630
H30   H     H_    0.887885 0.696236 0.208226 0.189141
H31   H     H_    0.901074 0.469668 0.212069 0.165779
H32   H     H_    0.817130 0.441100 0.143973 0.137333
H33   H     H_    0.410002 0.769882 0.721052 0.156134
H34   H     H_    0.554487 0.891627 0.318840 0.125300
H35   H     H_    0.420389 0.362847 0.130039 0.113609
H36   H     H_    0.597053 0.670665 0.253045 0.178932
H37   H     H_    0.674193 0.802944 0.126608 0.113309
H38   H     H_    0.673630 0.804292 0.870537 0.122979
N1    N     N_R   0.037698 0.572651 0.414218 -0.244232
N2    N     N_R   0.968987 0.572102 0.407758 -0.246404
N3    N     N_R   0.961332 0.406212 0.563264 -0.236940
N4    N     N_R   0.030008 0.406737 0.569556 -0.243640
N5    N     N_R   0.500660 0.501210 0.147910 -0.243190
N6    N     N_R   0.500680 0.501290 0.852040 -0.244172
O1    O     O_R   0.499990 0.319640 0.618810 -0.496034
O2    O     O_R   0.500000 0.319660 0.381240 -0.498437
O3    O     O_R   0.400140 0.499970 0.618820 -0.521133
O4    O     O_R   0.400150 0.500000 0.381250 -0.502002
O5    O     O_R   0.500000 0.680340 0.618760 -0.535973
O6    O     O_R   0.500010 0.680360 0.381190 -0.516654
O7    O     O_R   0.599850 0.500000 0.618750 -0.513002
O8    O     O_R   0.599860 0.500030 0.381180 -0.520489

loop_
_geom_bond_atom_site_label_1
_geom_bond_atom_site_label_2
_ccdc_geom_bond_type
C33   H11   S    
C41   C42   A    
C19   C20   A    
C25   C43   S    
C7    C8    A    
C36   H22   S    
C26   C27   A    
C5    H23   S    
C22   H35   S    
C36   C37   S    
C32   H14   S    
C38   C39   S    
C16   O6    A    
Cu1   O1    S    
C38   H32   S    
C2    C41   A    
C13   H34   S    
Cu2   O8    S    
C40   H26   S    
C18   C19   A    
C34   N1    A    
C38   C45   S    
C25   O8    A    
C35   C36   S    
C8    C9    A    
C37   H18   S    
C33   H10   S    
C4    C12   S    
C9    C10   A    
C26   H1    S    
C6    C31   S    
Cu1   O7    S    
C35   H24   S    
C23   N2    A    
C13   C14   A    
C24   H3    S    
C21   N5    A    
C2    C45   A    
Cu2   O2    S    
C20   N6    A    
C16   O5    A    
C18   H38   S    
C31   H16   S    
C39   C40   S    
N1    N2    A    
C15   H36   S    
Cu1   N6    S    
C38   H31   S    
C27   C35   S    
C12   C26   A    
C43   C44   A    
C29   C30   A    
C3    C9    A    
C4    O4    A    
C19   H2    S    
C31   C32   S    
Cu1   O3    S    
C37   H19   S    
C17   C18   A    
C22   N5    A    
C39   H29   S    
N3    N4    A    
C41   H6    S    
C4    O3    A    
C35   H25   S    
C1    O1    A    
C23   N3    A    
Cu2   N5    S    
C14   C16   S    
C42   C43   A    
C24   N6    A    
C39   H30   S    
C2    C23   S    
C44   C45   A    
C29   H4    S    
C15   C17   A    
C30   H5    S    
Cu1   Cu2   S    
C28   C29   A    
C8    C14   A    
C12   C30   A    
C31   H17   S    
C1    C10   S    
C3    C5    A    
C36   H21   S    
C6    C7    A    
C33   H13   S    
Cu2   O6    S    
C40   H28   S    
C17   H37   S    
C32   C33   S    
C34   N4    A    
C32   H15   S    
C42   H7    S    
C11   C13   A    
C44   H8    S    
C5    C6    A    
C37   H20   S    
C40   H27   S    
C22   C24   A    
C10   C11   A    
C28   C34   S    
C25   O7    A    
C15   C21   A    
Cu1   O5    S    
C20   C21   A    
C1    O2    A    
C27   C28   A    
Cu2   O4    S    
C11   H9    S    
C7    H33   S    
C3    H12   S    
