data_mof_unit_36276.cif
_audit_creation_date              2012-12-10T20:44:47-0500
_audit_creation_method            fapswitch 2.2
_symmetry_space_group_name_H-M    P1
_symmetry_Int_Tables_number       1
_space_group_crystal_system       triclinic
_cell_length_a                    9.95254
_cell_length_b                    10.699958
_cell_length_c                    16.778307
_cell_angle_alpha                 88.560969
_cell_angle_beta                  96.92066
_cell_angle_gamma                 90.246487
_cell_volume                      1773.1722198

loop_
_atom_site_label
_atom_site_type_symbol
_atom_type_description
_atom_site_fract_x
_atom_site_fract_y
_atom_site_fract_z
_atom_type_partial_charge
C1    C     C_R   0.499789 0.260450 0.499474 0.877580
C2    C     C_R   0.652086 0.476016 0.787836 -0.209361
C3    C     C_R   0.528177 0.610372 0.139748 -0.259330
C4    C     C_R   0.536124 0.606887 0.223317 0.411211
C5    C     C_R   0.451030 0.520569 0.094733 0.271453
C6    C     C_R   0.465002 0.513064 0.260661 -0.067675
C7    C     C_R   0.384378 0.426649 0.215577 -0.230545
C8    C     C_R   0.375938 0.431719 0.132503 -0.160693
C9    C     C_R   0.615853 0.063194 0.533948 0.129997
C10   C     C_R   0.499102 0.128229 0.503617 -0.083991
C11   C     C_R   0.377905 0.064306 0.481986 -0.142875
C12   C     C_R   0.520048 0.500762 0.653283 0.870456
C13   C     C_R   0.377217 0.935779 0.483862 -0.197738
C14   C     C_R   0.499014 0.871304 0.504897 -0.105228
C15   C     C_R   0.615981 0.935291 0.534197 0.115353
C16   C     C_3   0.755485 0.929592 0.509997 -0.450705
C17   C     C_3   0.755493 0.071253 0.509852 -0.460787
C18   C     C_R   0.083621 0.489799 0.570064 0.011150
C19   C     C_R   0.054458 0.532808 0.432064 0.468345
C20   C     C_R   0.912202 0.524061 0.432054 -0.148869
C21   C     C_R   0.943071 0.496191 0.570250 0.103876
C22   C     C_3   0.943458 0.405979 0.638830 -0.511725
C23   C     C_R   0.500064 0.739543 0.500123 0.912609
C24   C     C_3   0.096279 0.394021 0.637812 0.337423
C25   C     C_R   0.480065 0.502550 0.346987 0.928422
C26   C     C_R   0.534918 0.516012 0.739410 -0.015992
C27   C     C_R   0.430410 0.574033 0.773448 -0.219639
C28   C     C_R   0.440559 0.587777 0.855487 -0.153108
C29   C     C_R   0.554887 0.542013 0.904587 0.320120
C30   C     C_R   0.662379 0.490055 0.870517 -0.169490
H1    H     H_    0.283501 0.887884 0.464060 0.211003
H2    H     H_    0.829209 0.887168 0.558028 0.217745
H3    H     H_    0.757516 0.890731 0.449277 0.233636
H4    H     H_    0.828764 0.110579 0.557966 0.243101
H5    H     H_    0.758034 0.114711 0.449128 0.220519
H6    H     H_    0.845114 0.541476 0.377464 0.222370
H7    H     H_    0.917946 0.452572 0.693354 0.157072
H8    H     H_    0.882343 0.321204 0.622417 0.239493
H9    H     H_    0.155816 0.428214 0.693349 0.075602
H10   H     H_    0.582689 0.681754 0.109756 0.157461
H11   H     H_    0.751090 0.455662 0.908301 0.153104
H12   H     H_    0.732999 0.430602 0.762221 0.155999
H13   H     H_    0.331333 0.353344 0.244802 0.187600
H14   H     H_    0.358229 0.631663 0.881029 0.155849
H15   H     H_    0.315461 0.363342 0.097606 0.163827
H16   H     H_    0.340624 0.608647 0.736706 0.155738
H17   H     H_    0.285957 0.113056 0.459116 0.206198
N1    N     N_2   0.560462 0.542638 0.988539 -0.185685
N2    N     N_2   0.448607 0.517046 0.011101 -0.182080
N3    N     N_R   0.142860 0.499130 0.500540 -0.129624
N4    N     N_R   0.857210 0.499170 0.500530 -0.120489
O1    O     O_R   0.614690 0.316790 0.499990 -0.631815
O2    O     O_R   0.385350 0.316760 0.500000 -0.547299
O3    O     O_R   0.627460 0.498860 0.616130 -0.624387
O4    O     O_R   0.398120 0.498820 0.616130 -0.617371
O5    O     O_R   0.614650 0.683240 0.500000 -0.611230
O6    O     O_R   0.385310 0.683210 0.500010 -0.590460
O7    O     O_R   0.601880 0.501180 0.383870 -0.603908
O8    O     O_R   0.372540 0.501140 0.383870 -0.542443
Zn1   Zn    Zn3+2 0.653130 0.500020 0.499990 0.978796
Zn2   Zn    Zn3+2 0.346870 0.499980 0.500010 1.073792
O9    O     O_3   0.611833 0.693289 0.269489 -0.755927
H18   H     H_    0.655421 0.751874 0.233686 0.348066
S1    S     S_3+6 0.103230 0.599044 0.341942 0.029060
O10   O     O_2   0.140661 0.495432 0.290215 -0.313283
O11   O     O_2   0.985669 0.668592 0.296745 -0.317631
O12   O     O_3   0.230802 0.701727 0.359137 -0.553589
H19   H     H_    0.253635 0.727280 0.305217 0.373538
S2    S     S_3+6 0.140597 0.239362 0.612502 0.022612
O13   O     O_2   0.290638 0.221443 0.631380 -0.275238
O14   O     O_2   0.070464 0.146543 0.662215 -0.331344
O15   O     O_3   0.091078 0.216861 0.514466 -0.583780
H20   H     H_    0.066552 0.127212 0.510733 0.365159

loop_
_geom_bond_atom_site_label_1
_geom_bond_atom_site_label_2
_ccdc_geom_bond_type
C14   C23   S    
C24   S2    S    
S2    O15   S    
C30   H11   S    
O6    Zn2   S    
O9    H18   S    
C7    H13   S    
C16   H3    S    
C16   H2    S    
C18   C21   A    
C25   O8    A    
C9    C10   A    
C11   H17   S    
C19   C20   A    
C21   N4    A    
C19   S1    S    
C2    C30   A    
S1    O10   D    
C9    C15   A    
C7    C8    A    
C2    C26   A    
S1    O11   D    
O3    Zn1   S    
C21   C22   S    
C6    C25   S    
C11   C13   A    
C19   N3    A    
C5    N2    S    
C26   C27   A    
C29   C30   A    
O1    Zn1   S    
C2    H12   S    
C18   C24   S    
C15   C16   S    
O4    Zn2   S    
C27   H16   S    
C9    C17   S    
C28   C29   A    
C28   H14   S    
C3    H10   S    
C6    C7    A    
C8    H15   S    
S2    O13   D    
C1    O1    A    
C22   C24   S    
O8    Zn2   S    
C12   O4    A    
S2    O14   D    
C17   H4    S    
C29   N1    S    
O7    Zn1   S    
O12   H19   S    
C22   H8    S    
S1    O12   S    
C4    O9    S    
C23   O5    A    
C24   H9    S    
C18   N3    A    
C4    C6    A    
C25   O7    A    
C10   C11   A    
C27   C28   A    
C23   O6    A    
N3    Zn2   S    
C5    C8    A    
C20   N4    A    
N1    N2    D    
C1    O2    A    
N4    Zn1   S    
C17   H5    S    
C13   C14   A    
C14   C15   A    
C22   H7    S    
O2    Zn2   S    
C13   H1    S    
C12   O3    A    
C1    C10   S    
O5    Zn1   S    
C16   C17   S    
C12   C26   S    
O15   H20   S    
C3    C5    A    
C3    C4    A    
C20   H6    S    
