data_mof_unit_58922.cif
_audit_creation_date              2012-12-11T17:39:32-0500
_audit_creation_method            fapswitch 2.2
_symmetry_space_group_name_H-M    P1
_symmetry_Int_Tables_number       1
_space_group_crystal_system       triclinic
_cell_length_a                    15.007068
_cell_length_b                    15.068905
_cell_length_c                    14.836625
_cell_angle_alpha                 109.051663
_cell_angle_beta                  109.991583
_cell_angle_gamma                 109.162064
_cell_volume                      2589.26330016

loop_
_atom_site_label
_atom_site_type_symbol
_atom_type_description
_atom_site_fract_x
_atom_site_fract_y
_atom_site_fract_z
_atom_type_partial_charge
C1    C     C_R   0.913315 0.903531 0.710846 -0.157351
C2    C     C_R   0.910836 0.686174 0.442177 -0.143875
C3    C     C_R   0.697635 0.794553 0.201081 -0.109800
C4    C     C_R   0.085427 0.293224 0.486772 0.273726
C5    C     C_R   0.303624 0.005990 0.598625 -0.163499
C6    C     C_R   0.633951 0.703533 0.199984 0.133319
C7    C     C_R   0.367385 0.066019 0.569003 0.064544
C8    C     C_R   0.004867 0.677816 0.464431 0.020995
C9    C     C_R   0.001240 0.944452 0.176406 0.057703
C10   C     C_R   0.542005 0.720278 0.435292 -0.163079
C11   C     C_R   0.533268 0.813671 0.460300 -0.152687
C12   C     C_R   0.991292 0.293720 0.428252 0.042585
C13   C     C_R   0.572981 0.887955 0.570390 0.112335
C14   C     C_R   0.616236 0.864827 0.654363 -0.224734
C15   C     C_R   0.623148 0.770117 0.628248 -0.124495
C16   C     C_R   0.253122 0.221563 0.814630 -0.139148
C17   C     C_R   0.587887 0.699029 0.519350 -0.067444
C18   C     C_R   0.501674 0.009371 0.612815 -0.248734
C19   C     C_R   0.478963 0.088349 0.598514 0.063619
C20   C     C_R   0.553770 0.170161 0.592482 0.045808
C21   C     C_R   0.643785 0.162975 0.590447 -0.251452
C22   C     C_R   0.655097 0.073617 0.586880 0.070751
C23   C     C_R   0.281534 0.323594 0.825521 0.127490
C24   C     C_R   0.582440 0.995593 0.597888 0.031555
C25   C     C_R   0.533444 0.265569 0.483935 -0.200723
C26   C     C_R   0.502467 0.335327 0.457334 -0.335541
C27   C     C_R   0.468836 0.395192 0.519828 0.627434
C28   C     C_R   0.750630 0.064954 0.474565 -0.131410
C29   C     C_R   0.478282 0.390959 0.615639 -0.208275
C30   C     C_R   0.511043 0.322007 0.643452 -0.232108
C31   C     C_R   0.534745 0.255520 0.575085 0.125024
C32   C     C_R   0.849577 0.165553 0.061835 -0.109252
C33   C     C_R   0.908211 0.263258 0.161032 -0.138654
C34   C     C_R   0.732290 0.053770 0.556848 0.032273
C35   C     C_R   0.858985 0.288512 0.223463 0.142050
C36   C     C_R   0.750710 0.215613 0.185580 -0.186116
C37   C     C_R   0.693196 0.117199 0.087624 -0.125742
C38   C     C_R   0.742193 0.092273 0.025368 -0.082877
C39   C     C_R   0.930072 0.483922 0.343806 -0.249194
C40   C     C_R   0.251800 0.312536 0.721731 -0.148894
C41   C     C_R   0.008998 0.579568 0.444158 0.153540
C42   C     C_R   0.081153 0.577205 0.532711 0.072625
C43   C     C_R   0.055153 0.479941 0.528944 -0.256041
C44   C     C_R   0.987435 0.386593 0.427801 0.081030
C45   C     C_R   0.697329 0.703474 0.292385 -0.136836
C46   C     C_R   0.924359 0.386532 0.332769 0.019259
C47   C     C_R   0.258666 0.672606 0.545878 0.527804
C48   C     C_R   0.371675 0.714398 0.603310 -0.275944
C49   C     C_R   0.426060 0.740148 0.713284 -0.101463
C50   C     C_R   0.367675 0.723234 0.767132 -0.132003
C51   C     C_R   0.255325 0.683167 0.712107 -0.240568
C52   C     C_R   0.770298 0.987619 0.578854 -0.086494
C53   C     C_R   0.199500 0.654450 0.600364 -0.009634
C54   C     C_2   0.365942 0.520558 0.933876 -0.126401
C55   C     C_2   0.341097 0.424445 0.929578 -0.188511
C56   C     C_R   0.303178 0.092883 0.503400 -0.153505
C57   C     C_2   0.462365 0.621746 0.029598 -0.109521
C58   C     C_2   0.517190 0.628520 0.126420 -0.214059
C59   C     C_R   0.361823 0.014110 0.960416 0.317752
C60   C     C_R   0.261307 0.952829 0.949225 -0.207000
C61   C     C_R   0.221796 0.004035 0.010026 -0.001790
C62   C     C_R   0.288243 0.114154 0.089977 -0.305546
C63   C     C_R   0.390118 0.174876 0.104357 0.586424
C64   C     C_R   0.904426 0.206175 0.405696 -0.201256
C65   C     C_R   0.426845 0.124063 0.039373 -0.335531
C66   C     C_R   0.104549 0.937420 0.078932 -0.242947
C67   C     C_R   0.094213 0.780137 0.534318 -0.113734
C68   C     C_R   0.004170 0.895756 0.074237 0.041558
C69   C     C_R   0.908788 0.828505 0.970129 0.028515
C70   C     C_R   0.913004 0.835351 0.879781 -0.242162
C71   C     C_R   0.011910 0.903665 0.891874 0.052464
C72   C     C_R   0.110598 0.944171 0.989877 0.095115
C73   C     C_R   0.815140 0.671633 0.990383 -0.134350
C74   C     C_R   0.720811 0.589102 0.970196 -0.100664
C75   C     C_R   0.619366 0.579454 0.913160 -0.088521
C76   C     C_R   0.093176 0.001356 0.802079 -0.137249
C77   C     C_R   0.612198 0.653101 0.877211 -0.123056
C78   C     C_R   0.910003 0.933419 0.187314 -0.120422
C79   C     C_R   0.706390 0.735678 0.896862 -0.178693
C80   C     C_R   0.808560 0.744890 0.952737 0.120525
C81   C     C_R   0.006847 0.937295 0.807111 0.067064
C82   C     C_3   0.190952 0.347258 0.490931 -1.012392
C83   C     C_3   0.372275 0.420773 0.378421 0.140771
C84   C     C_3   0.305839 0.476459 0.352818 -0.222405
C85   C     C_3   0.242702 0.434910 0.229176 -1.037003
C86   C     C_3   0.245419 0.714007 0.406186 0.147633
C87   C     C_3   0.155160 0.693175 0.300603 -0.235159
C88   C     C_3   0.196072 0.779793 0.270199 -1.018568
C89   C     C_R   0.092305 0.024118 0.279119 -0.119466
C90   C     C_3   0.398213 0.963051 0.886396 -1.031281
C91   C     C_3   0.486291 0.349762 0.141461 0.157599
C92   C     C_3   0.610114 0.404043 0.190311 -0.267069
C93   C     C_3   0.643728 0.444634 0.119039 -1.042919
H1    H     H_    0.831935 0.841321 0.678806 0.109249
H2    H     H_    0.513167 0.664343 0.350751 0.116001
H3    H     H_    0.500277 0.830780 0.394835 0.120996
H4    H     H_    0.648006 0.921616 0.739607 0.119050
H5    H     H_    0.657113 0.752219 0.692276 0.113808
H6    H     H_    0.446185 0.946339 0.617786 0.121347
H7    H     H_    0.700517 0.222692 0.582855 0.133179
H8    H     H_    0.552777 0.216370 0.430665 0.142135
H9    H     H_    0.503388 0.340279 0.386780 0.181261
H10   H     H_    0.456085 0.438434 0.666686 0.140630
H11   H     H_    0.513122 0.316887 0.715224 0.142276
H12   H     H_    0.327167 0.145142 0.471080 0.118245
H13   H     H_    0.697355 0.015846 0.949577 0.092977
H14   H     H_    0.266047 0.202322 0.880271 0.090120
H15   H     H_    0.887877 0.145943 0.014128 0.112030
H16   H     H_    0.992324 0.318331 0.190171 0.126575
H17   H     H_    0.712515 0.233003 0.234082 0.106197
H18   H     H_    0.611440 0.059547 0.061342 0.128389
H19   H     H_    0.877691 0.486228 0.274313 0.131925
H20   H     H_    0.103814 0.477398 0.600650 0.136202
H21   H     H_    0.415212 0.720308 0.559587 0.158741
H22   H     H_    0.513010 0.770510 0.756120 0.121374
H23   H     H_    0.179561 0.805171 0.570404 0.092751
H24   H     H_    0.409315 0.739775 0.851260 0.108776
H25   H     H_    0.730030 0.110682 0.436438 0.098279
H26   H     H_    0.210558 0.666901 0.753961 0.139378
H27   H     H_    0.329287 0.524219 0.859208 0.118530
H28   H     H_    0.375716 0.418405 0.002491 0.116115
H29   H     H_    0.498475 0.684744 0.012323 0.115731
H30   H     H_    0.480280 0.569770 0.147668 0.120248
H31   H     H_    0.505555 0.170186 0.049692 0.148173
H32   H     H_    0.210638 0.867723 0.887977 0.139810
H33   H     H_    0.259342 0.153786 0.138955 0.144017
H34   H     H_    0.825310 0.881352 0.124575 0.116232
H35   H     H_    0.262066 0.375334 0.699963 0.114430
H36   H     H_    0.179952 0.974713 0.155209 0.134844
H37   H     H_    0.838282 0.788975 0.801276 0.121831
H38   H     H_    0.893119 0.677320 0.033676 0.111068
H39   H     H_    0.726368 0.532014 0.997834 0.123177
H40   H     H_    0.546364 0.514803 0.896742 0.119160
H41   H     H_    0.533525 0.645830 0.833925 0.111370
H42   H     H_    0.700232 0.793520 0.870655 0.096421
H43   H     H_    0.778895 0.970862 0.645300 0.123341
H44   H     H_    0.819057 0.178376 0.355494 0.118599
H45   H     H_    0.176818 0.055873 0.301758 0.094051
H46   H     H_    0.178474 0.035709 0.853916 0.119558
H47   H     H_    0.668377 0.652866 0.324892 0.091375
H48   H     H_    0.173993 0.322929 0.405319 0.249741
H49   H     H_    0.230581 0.436398 0.540697 0.263214
H50   H     H_    0.246923 0.319539 0.526360 0.248428
H51   H     H_    0.314930 0.331947 0.333278 0.106205
H52   H     H_    0.430797 0.438970 0.348289 0.123465
H53   H     H_    0.247732 0.463377 0.383496 0.228951
H54   H     H_    0.360926 0.564471 0.395321 0.210149
H55   H     H_    0.299842 0.450958 0.197237 0.262868
H56   H     H_    0.827348 0.621333 0.394195 0.106152
H57   H     H_    0.195548 0.476861 0.213416 0.279788
H58   H     H_    0.184840 0.346693 0.184568 0.265370
H59   H     H_    0.311725 0.709039 0.391413 0.121763
H60   H     H_    0.277581 0.797036 0.472278 0.092531
H61   H     H_    0.125042 0.612672 0.231737 0.195809
H62   H     H_    0.085818 0.692886 0.312324 0.204733
H63   H     H_    0.223298 0.860521 0.336595 0.278406
H64   H     H_    0.129020 0.761848 0.192762 0.268890
H65   H     H_    0.265213 0.781445 0.257403 0.266738
H66   H     H_    0.429015 0.915053 0.916173 0.253615
H67   H     H_    0.669007 0.827861 0.150397 0.086981
H68   H     H_    0.464758 0.024636 0.887231 0.249268
H69   H     H_    0.329131 0.910782 0.800075 0.257248
H70   H     H_    0.464690 0.413880 0.166605 0.093067
H71   H     H_    0.443639 0.307444 0.049435 0.094432
H72   H     H_    0.649893 0.472433 0.274772 0.174631
H73   H     H_    0.639244 0.346514 0.197162 0.206071
H74   H     H_    0.619688 0.375176 0.041366 0.269913
H75   H     H_    0.733355 0.498323 0.164005 0.266159
H76   H     H_    0.603849 0.490723 0.097813 0.277659
H77   H     H_    0.331204 0.984477 0.661543 0.103287
H78   H     H_    0.595467 0.627102 0.500052 0.123553
N1    N     N_R   0.941940 0.944580 0.650780 -0.042239
N2    N     N_R   0.204460 0.150250 0.707090 -0.038750
N3    N     N_R   0.794270 0.003240 0.446420 -0.041812
N4    N     N_R   0.204920 0.207570 0.650770 -0.040835
N5    N     N_R   0.793810 0.945920 0.502740 -0.041252
N6    N     N_R   0.943620 0.152590 0.446420 -0.051598
N7    N     N_R   0.055110 0.000900 0.707100 -0.041303
N8    N     N_R   0.795080 0.792430 0.349230 -0.040290
N9    N     N_R   0.206190 0.054080 0.497260 -0.038415
N10   N     N_R   0.056380 0.847410 0.553580 -0.041504
N11   N     N_R   0.944890 0.999100 0.292900 -0.041681
N12   N     N_R   0.058060 0.055420 0.349220 -0.038198
N13   N     N_R   0.943200 0.791100 0.497260 -0.036591
N14   N     N_R   0.795540 0.849750 0.292910 -0.047692
N15   N     N_R   0.205730 0.996760 0.553580 -0.036576
N16   N     N_R   0.056800 0.208900 0.502740 -0.054069
Ni1   Ni    Ni4+2 0.869690 0.869690 0.500000 0.216038
Ni2   Ni    Ni4+2 0.130310 0.130310 0.500000 0.209976
Ni3   Ni    Ni4+2 0.129250 0.998840 0.629170 0.213181
Ni4   Ni    Ni4+2 0.870750 0.001160 0.370830 0.212610
O1    O     O_3   0.430181 0.461201 0.493791 -0.673453
O2    O     O_3   0.202402 0.634056 0.432885 -0.676498
O3    O     O_3   0.453511 0.282800 0.185269 -0.693755

loop_
_geom_bond_atom_site_label_1
_geom_bond_atom_site_label_2
_ccdc_geom_bond_type
C11   H3    S    
C16   N2    A    
C66   C68   A    
C87   C88   S    
C73   H38   S    
N15   Ni3   S    
N6    Ni4   S    
C6    C45   A    
C54   H27   S    
C27   C29   A    
C50   H24   S    
C41   C42   A    
C6    C58   S    
C35   C36   A    
C85   H55   S    
C82   H49   S    
C3    C6    A    
C28   N3    A    
C63   C65   A    
C39   C41   A    
C93   H76   S    
C26   C27   A    
C37   C38   A    
C90   H69   S    
C18   C24   A    
C88   H63   S    
C4    N16   A    
C48   H21   S    
C36   C37   A    
C86   H60   S    
C76   C81   A    
C74   H39   S    
N9    Ni2   S    
C42   C53   S    
C83   H51   S    
N7    Ni3   S    
C76   H46   S    
C10   C17   A    
C1    C81   A    
C23   C40   A    
C40   H35   S    
N12   Ni2   S    
N2    Ni3   S    
C70   H37   S    
C29   H10   S    
C18   C19   A    
C73   C74   A    
C65   H31   S    
C90   H66   S    
C85   H57   S    
C55   H28   S    
C67   N10   A    
C16   H14   S    
C57   H29   S    
C83   H52   S    
C92   H72   S    
C66   C72   A    
C83   C84   S    
C93   H75   S    
C68   C69   A    
C51   H26   S    
C5    H77   S    
N14   Ni4   S    
C70   C71   A    
C32   C38   A    
C4    C12   A    
C29   C30   A    
C42   C43   A    
C52   N5    A    
N3    Ni4   S    
C47   C53   A    
C66   H36   S    
C2    H56   S    
C77   C79   A    
C28   C34   A    
C59   C60   A    
C13   C14   A    
C91   H70   S    
C61   C62   A    
C5    N15   A    
C82   H48   S    
C78   H34   S    
C3    N14   A    
C44   C46   A    
N5    Ni1   S    
C64   H44   S    
N2    N4    A    
C22   C34   S    
C87   H61   S    
N16   Ni2   S    
C74   C75   A    
C90   H68   S    
C83   O1    S    
C8    C41   S    
C26   H9    S    
C9    C89   A    
C91   C92   S    
C5    C7    A    
C91   O3    S    
C86   C87   S    
C1    H1    S    
N8    Ni1   S    
C25   C26   A    
C45   H47   S    
N13   Ni1   S    
C13   C24   S    
C60   C61   A    
C78   N11   A    
C59   C90   S    
C27   O1    S    
C38   H13   S    
C67   H23   S    
C85   H58   S    
C62   C63   A    
C86   H59   S    
N10   Ni3   S    
C47   C48   A    
C17   H78   S    
C50   C51   A    
C58   H30   S    
C63   O3    S    
C2    N13   A    
C88   H64   S    
C84   C85   S    
C75   C77   A    
N9    N15   A    
C39   C46   A    
C61   C72   S    
C48   C49   A    
C49   H22   S    
C49   C50   A    
C16   C23   A    
C7    C19   S    
C43   C44   A    
C32   H15   S    
C3    H67   S    
C52   H43   S    
C22   C24   A    
C91   H71   S    
C33   H16   S    
C77   H41   S    
C15   H5    S    
C89   N12   A    
C14   H4    S    
C62   H33   S    
C56   N9    A    
C84   H54   S    
N1    N7    A    
C15   C17   A    
C54   C55   D    
C60   H32   S    
N10   N13   A    
C21   H7    S    
C34   C52   A    
C25   C31   A    
C47   O2    S    
C2    C8    A    
C82   H50   S    
C18   H6    S    
N4    Ni2   S    
C40   N4    A    
C75   H40   S    
C23   C55   S    
N8    N14   A    
C87   H62   S    
C84   H53   S    
C79   H42   S    
C1    N1    A    
C76   N7    A    
N6    N16   A    
C71   C81   S    
C32   C33   A    
C19   C20   A    
C9    C68   S    
C71   C72   A    
C86   O2    S    
C28   H25   S    
C59   C65   A    
C36   H17   S    
C64   N6    A    
C11   C13   A    
C25   H8    S    
C57   C58   D    
C30   C31   A    
C10   H2    S    
N1    Ni1   S    
C12   C64   A    
C92   C93   S    
C33   C35   A    
C73   C80   A    
C7    C56   A    
C9    C78   A    
C69   C70   A    
N3    N5    A    
C56   H12   S    
C37   H18   S    
C10   C11   A    
C45   N8    A    
C88   H65   S    
C79   C80   A    
C92   H73   S    
C4    C82   S    
C20   C21   A    
C93   H74   S    
C8    C67   A    
C12   C44   S    
C89   H45   S    
N11   Ni4   S    
C30   H11   S    
C14   C15   A    
C69   C80   S    
C51   C53   A    
C21   C22   A    
C35   C46   S    
C54   C57   S    
C43   H20   S    
N11   N12   A    
C39   H19   S    
C20   C31   S    
