data_mof_unit_48392.cif
_audit_creation_date              2012-12-11T14:47:33-0500
_audit_creation_method            fapswitch 2.2
_symmetry_space_group_name_H-M    P1
_symmetry_Int_Tables_number       1
_space_group_crystal_system       triclinic
_cell_length_a                    19.470525
_cell_length_b                    6.965114
_cell_length_c                    19.407697
_cell_angle_alpha                 90.040045
_cell_angle_beta                  95.921019
_cell_angle_gamma                 90.147288
_cell_volume                      2617.91239475

loop_
_atom_site_label
_atom_site_type_symbol
_atom_type_description
_atom_site_fract_x
_atom_site_fract_y
_atom_site_fract_z
_atom_type_partial_charge
O1    O     O_R   0.673510 0.377480 0.186100 -0.535605
O2    O     O_R   0.326490 0.622520 0.813900 -0.535607
O3    O     O_R   0.826490 0.877480 0.313900 -0.536694
O4    O     O_R   0.173510 0.122520 0.686100 -0.536694
O5    O     O_R   0.807790 0.705750 0.184090 -0.523165
O6    O     O_R   0.192210 0.294250 0.815910 -0.523161
O7    O     O_R   0.692210 0.205750 0.315910 -0.522758
O8    O     O_R   0.307790 0.794250 0.684090 -0.522757
C1    C     C_1   0.478152 0.994631 0.521227 -0.000476
C2    C     C_1   0.521848 0.005368 0.478773 -0.000470
C3    C     C_1   0.021850 0.494499 0.978780 -0.000935
C4    C     C_1   0.978150 0.505501 0.021220 -0.000932
C5    C     C_R   0.830893 0.538332 0.166278 0.718000
C6    C     C_R   0.169107 0.461668 0.833722 0.718011
C7    C     C_R   0.669109 0.038137 0.333718 0.718913
C8    C     C_R   0.330891 0.961863 0.666282 0.718932
O9    O     O_R   0.672870 0.707110 0.178120 -0.536497
O10   O     O_R   0.327130 0.292890 0.821880 -0.536498
O11   O     O_R   0.827130 0.207110 0.321880 -0.537143
O12   O     O_R   0.172870 0.792890 0.678120 -0.537142
O13   O     O_R   0.690610 0.878650 0.307880 -0.522459
O14   O     O_R   0.309390 0.121350 0.692120 -0.522460
O15   O     O_R   0.809390 0.378650 0.192120 -0.522311
O16   O     O_R   0.190610 0.621350 0.807880 -0.522313
C9    C     C_R   0.647986 0.538347 0.160768 0.717793
C10   C     C_R   0.352013 0.461654 0.839234 0.717795
C11   C     C_R   0.852296 0.038986 0.339039 0.717515
C12   C     C_R   0.147704 0.961014 0.660960 0.717519
C13   C     C_1   0.382900 0.972128 0.614294 -0.215652
C14   C     C_1   0.617100 0.027872 0.385706 -0.215652
C15   C     C_1   0.117104 0.471642 0.885727 -0.214487
C16   C     C_1   0.882896 0.528358 0.114273 -0.214485
O17   O     O_3   0.755980 0.544260 0.292580 -0.360533
O18   O     O_3   0.244020 0.455740 0.707420 -0.360533
O19   O     O_3   0.744020 0.044260 0.207420 -0.359629
O20   O     O_3   0.255980 0.955740 0.792580 -0.359633
V1    V     V_3+5 0.748890 0.818640 0.242100 1.387725
V2    V     V_3+5 0.251110 0.181360 0.757900 1.387710
V3    V     V_3+5 0.751110 0.318640 0.257900 1.387372
V4    V     V_3+5 0.248890 0.681360 0.742100 1.387358
C17   C     C_R   0.085489 0.965127 0.608970 -0.171560
C18   C     C_R   0.914512 0.034878 0.391028 -0.171540
C19   C     C_R   0.414188 0.468478 0.891048 -0.167728
C20   C     C_R   0.585809 0.531537 0.108957 -0.167661
C21   C     C_1   0.426393 0.982084 0.571614 0.002276
C22   C     C_1   0.573607 0.017916 0.428386 0.002290
C23   C     C_1   0.073613 0.481680 0.928405 0.001676
C24   C     C_1   0.926387 0.518320 0.071595 0.001682
C25   C     C_R   0.034146 0.130344 0.425720 0.131527
C26   C     C_R   0.965852 0.869697 0.574281 0.131530
C27   C     C_R   0.462562 0.590789 0.079531 0.131431
C28   C     C_R   0.537438 0.409326 0.920468 0.131416
C29   C     C_R   0.973173 0.145680 0.379923 0.122605
C30   C     C_R   0.026828 0.854314 0.620070 0.122645
C31   C     C_R   0.523460 0.614003 0.125099 0.118193
C32   C     C_R   0.476536 0.385956 0.874921 0.118300
C33   C     C_R   0.916608 0.918908 0.451017 0.105435
C34   C     C_R   0.083390 0.081126 0.548987 0.105451
C35   C     C_R   0.587486 0.437557 0.044592 0.107939
C36   C     C_R   0.412518 0.562558 0.955398 0.107984
C37   C     C_R   0.969857 0.946938 0.506499 -0.000292
C38   C     C_R   0.030142 0.053107 0.493503 -0.000266
C39   C     C_R   0.532002 0.461871 0.991062 -0.001324
C40   C     C_R   0.468000 0.538274 0.008932 -0.001241
N1    N     N_3   0.130884 0.238639 0.547171 -0.683598
H1    H     H_    0.181428 0.186686 0.555115 0.221006
H2    H     H_    0.122683 0.334476 0.586968 0.253721
N2    N     N_3   0.869108 0.761410 0.452844 -0.683593
H3    H     H_    0.818565 0.813376 0.444896 0.220997
H4    H     H_    0.877305 0.665552 0.413052 0.253727
N3    N     N_3   0.358174 0.696837 0.963803 -0.686732
H5    H     H_    0.310538 0.627171 0.953717 0.214172
H6    H     H_    0.360846 0.807707 0.927893 0.253657
N4    N     N_3   0.641842 0.303335 0.036161 -0.686720
H7    H     H_    0.689472 0.373028 0.046255 0.214150
H8    H     H_    0.639184 0.192416 0.072054 0.253658
N5    N     N_3   0.026327 0.734956 0.680444 -0.680317
H9    H     H_    0.042228 0.815689 0.724705 0.216076
H10   H     H_    0.060686 0.621414 0.676590 0.242427
N6    N     N_3   0.973680 0.264970 0.319532 -0.680302
H11   H     H_    0.939320 0.378518 0.323364 0.242423
H12   H     H_    0.957787 0.184187 0.275281 0.216086
N7    N     N_3   0.480175 0.289158 0.809952 -0.679307
H13   H     H_    0.461330 0.380025 0.769517 0.214457
H14   H     H_    0.448916 0.166785 0.808822 0.239513
N8    N     N_3   0.519806 0.710541 0.190117 -0.679284
H15   H     H_    0.551078 0.832898 0.191325 0.239493
H16   H     H_    0.538624 0.619496 0.230509 0.214501
C41   C     C_3   0.102450 0.178454 0.396988 -0.282324
C42   C     C_3   0.116149 0.043915 0.336915 -0.326144
C43   C     C_3   0.185055 0.090282 0.309466 -0.777423
H17   H     H_    0.185086 0.240239 0.289997 0.236377
H18   H     H_    0.228280 0.071909 0.350959 0.228992
H19   H     H_    0.193321 0.991556 0.266148 0.223417
H20   H     H_    0.117210 0.892715 0.355380 0.193384
H21   H     H_    0.074975 0.055902 0.293247 0.223116
H22   H     H_    0.101829 0.330594 0.379656 0.196614
H23   H     H_    0.147676 0.159568 0.435186 0.198603
C44   C     C_3   0.897543 0.821624 0.603011 -0.282297
C45   C     C_3   0.883883 0.956029 0.663135 -0.326199
C46   C     C_3   0.814911 0.909923 0.690494 -0.777451
H24   H     H_    0.771731 0.928777 0.648986 0.228997
H25   H     H_    0.814739 0.759865 0.709848 0.236371
H26   H     H_    0.806693 0.008472 0.733876 0.223428
H27   H     H_    0.925010 0.943661 0.706830 0.223157
H28   H     H_    0.882947 0.107301 0.644752 0.193420
H29   H     H_    0.852323 0.840703 0.564819 0.198626
H30   H     H_    0.898130 0.669440 0.620291 0.196586
C47   C     C_3   0.393784 0.600045 0.111058 -0.284113
C48   C     C_3   0.388004 0.439077 0.164556 -0.325730
C49   C     C_3   0.318328 0.444161 0.194174 -0.774557
H31   H     H_    0.311457 0.583873 0.220209 0.234927
H32   H     H_    0.275571 0.422939 0.152334 0.229531
H33   H     H_    0.315979 0.327338 0.232786 0.225217
H34   H     H_    0.393783 0.297409 0.139337 0.195932
H35   H     H_    0.429144 0.451951 0.208263 0.221760
H36   H     H_    0.388352 0.742940 0.135437 0.196623
H37   H     H_    0.348706 0.578758 0.072827 0.201286
C50   C     C_3   0.606223 0.400090 0.888950 -0.283976
C51   C     C_3   0.611921 0.560592 0.835254 -0.325878
C52   C     C_3   0.681720 0.555984 0.805872 -0.774701
H38   H     H_    0.724317 0.578476 0.847784 0.229560
H39   H     H_    0.688953 0.415960 0.780182 0.234922
H40   H     H_    0.683958 0.672217 0.767016 0.225239
H41   H     H_    0.570933 0.546787 0.791448 0.221894
H42   H     H_    0.605839 0.702452 0.860233 0.196002
H43   H     H_    0.651267 0.421975 0.927181 0.201328
H44   H     H_    0.611757 0.257006 0.864748 0.196546

loop_
_geom_bond_atom_site_label_1
_geom_bond_atom_site_label_2
_ccdc_geom_bond_type
C34   C38   A    
C1    C21   S    
C46   H24   S    
O5    V1    S    
C5    C16   S    
C3    C23   S    
C49   H31   S    
O10   C10   A    
C6    C15   S    
C4    C24   S    
C47   H36   S    
C42   H20   S    
C27   C31   A    
N5    H9    S    
C44   H30   S    
C45   H27   S    
O17   V3    S    
N4    H8    S    
C32   N7    S    
O18   V4    S    
O19   V1    S    
C17   C34   A    
C18   C29   A    
O12   V4    S    
C51   H42   S    
C43   H18   S    
C20   C35   A    
O14   V2    S    
C12   C17   S    
C5    O15   A    
C6    O16   A    
C48   C49   S    
C52   H40   S    
O16   V4    S    
C44   C45   S    
N2    H3    S    
N1    H2    S    
C10   C19   S    
O6    V2    S    
C49   H33   S    
O11   C11   A    
C1    C2    T    
O5    C5    A    
C30   N5    S    
C50   H44   S    
O7    C7    A    
C27   C47   S    
C15   C23   T    
O1    C9    A    
C16   C24   T    
C9    C20   S    
O4    C12   A    
C47   H37   S    
N5    H10   S    
N4    H7    S    
O20   V4    S    
C29   N6    S    
C49   H32   S    
C43   H17   S    
N3    H6    S    
N8    H15   S    
O12   C12   A    
C36   N3    S    
C8    C13   S    
C18   C33   A    
C13   C21   T    
O19   V3    S    
C2    C22   S    
O6    C6    A    
C34   N1    S    
N7    H13   S    
C50   C51   S    
C26   C44   S    
O2    C10   A    
O9    V1    S    
C33   C37   A    
C35   N4    S    
C52   H38   S    
O11   V3    S    
C19   C36   A    
N6    H12   S    
N7    H14   S    
O4    V2    S    
C46   H26   S    
C33   N2    S    
C48   H35   S    
C51   C52   S    
C7    C14   S    
C46   H25   S    
C26   C37   A    
C8    O14   A    
C25   C38   A    
O18   V2    S    
C35   C39   A    
C14   C22   T    
C27   C40   A    
C25   C41   S    
N6    H11   S    
C28   C39   A    
C3    C4    T    
C42   H21   S    
C44   H29   S    
C45   H28   S    
C41   H23   S    
C36   C40   A    
O9    C9    A    
C31   N8    S    
O3    C11   A    
O10   V2    S    
N3    H5    S    
C26   C30   A    
C47   C48   S    
C43   H19   S    
C11   C18   S    
C42   C43   S    
C25   C29   A    
O20   V2    S    
C45   C46   S    
C51   H41   S    
C20   C31   A    
N8    H16   S    
C37   C38   A    
O17   V1    S    
C17   C30   A    
C52   H39   S    
O1    V3    S    
C39   C40   A    
C28   C50   S    
O2    V4    S    
C19   C32   A    
C7    O13   A    
O13   V1    S    
O3    V1    S    
O8    C8    A    
N1    H1    S    
C41   H22   S    
N2    H4    S    
O7    V3    S    
O8    V4    S    
C41   C42   S    
C48   H34   S    
O15   V3    S    
C28   C32   A    
C50   H43   S    
