data_mof_unit_33174.cif
_audit_creation_date              2012-12-10T19:10:07-0500
_audit_creation_method            fapswitch 2.2
_symmetry_space_group_name_H-M    P1
_symmetry_Int_Tables_number       1
_space_group_crystal_system       triclinic
_cell_length_a                    11.071031
_cell_length_b                    10.893153
_cell_length_c                    9.796035
_cell_angle_alpha                 88.615593
_cell_angle_beta                  91.723912
_cell_angle_gamma                 93.813445
_cell_volume                      1177.94638149

loop_
_atom_site_label
_atom_site_type_symbol
_atom_type_description
_atom_site_fract_x
_atom_site_fract_y
_atom_site_fract_z
_atom_type_partial_charge
C1    C     C_R   0.502283 0.263378 0.501828 0.837524
C2    C     C_R   0.200141 0.515892 0.981257 -0.529768
C3    C     C_R   0.935168 0.537771 0.386320 -0.141850
C4    C     C_R   0.872722 0.498998 0.502631 -0.088909
C5    C     C_R   0.941489 0.454703 0.613730 0.079283
C6    C     C_R   0.066700 0.447647 0.607124 -0.256989
C7    C     C_R   0.128690 0.489771 0.492781 -0.100923
C8    C     C_R   0.060483 0.527632 0.378004 0.101638
C9    C     C_R   0.909655 0.544415 0.832411 0.329155
C10   C     C_R   0.883743 0.529014 0.972922 0.300034
C11   C     C_R   0.830033 0.414555 0.021492 0.355551
C12   C     C_R   0.262892 0.495893 0.497788 0.793992
C13   C     C_R   0.806497 0.316807 0.929949 -0.277195
C14   C     C_R   0.841623 0.327560 0.795997 0.378429
C15   C     C_R   0.893328 0.441375 0.748466 -0.116405
C16   C     C_R   0.485650 0.058712 0.622841 0.094528
C17   C     C_R   0.510124 0.130409 0.505332 -0.129783
C18   C     C_R   0.532027 0.070888 0.384895 -0.269136
C19   C     C_R   0.506820 0.944931 0.374661 0.404067
C20   C     C_R   0.491096 0.871325 0.495107 -0.201094
C21   C     C_R   0.480938 0.930919 0.618478 0.085492
C22   C     C_3   0.373497 0.917938 0.707213 -0.513054
C23   C     C_R   0.494754 0.736832 0.497997 0.833727
C24   C     C_3   0.377499 0.057009 0.710944 0.331730
C25   C     C_R   0.529218 0.604560 0.070532 0.206201
C26   C     C_R   0.450175 0.401433 0.076610 0.515423
C27   C     C_R   0.450074 0.402446 0.927164 0.326619
C28   C     C_R   0.526867 0.604844 0.925292 0.115541
C29   C     C_3   0.637806 0.686238 0.916480 0.143675
C30   C     C_3   0.646162 0.679325 0.072759 0.126373
C31   C     C_R   0.737692 0.500979 0.501629 0.771726
C32   C     C_R   0.222475 0.624205 0.056638 0.329435
C33   C     C_R   0.178642 0.629195 0.188944 0.522507
C34   C     C_R   0.110763 0.526560 0.242339 -0.148510
C35   C     C_R   0.096853 0.415800 0.171374 0.525347
C36   C     C_R   0.138519 0.411082 0.038894 0.372621
Cu1   Cu    Cu3+1 0.499990 0.499980 0.640670 0.972734
Cu2   Cu    Cu3+1 0.500010 0.500020 0.359330 1.028107
H1    H     H_    0.233696 0.512189 0.879223 0.176107
H2    H     H_    0.763170 0.229159 0.960905 0.174292
H3    H     H_    0.553551 0.123232 0.293154 0.172314
H4    H     H_    0.292105 0.873881 0.654247 0.187137
H5    H     H_    0.396332 0.876632 0.808233 0.241672
H6    H     H_    0.400429 0.093924 0.813673 0.148050
H7    H     H_    0.706838 0.643029 0.859249 0.124937
H8    H     H_    0.715793 0.625101 0.122700 0.161768
H9    H     H_    0.885061 0.574749 0.301434 0.234682
H10   H     H_    0.117009 0.417157 0.695819 0.144275
N1    N     N_R   0.500790 0.500930 0.147930 -0.282161
N2    N     N_R   0.500790 0.500890 0.852020 -0.298123
O1    O     O_R   0.500000 0.319640 0.618810 -0.557129
O2    O     O_R   0.500010 0.319680 0.381230 -0.561775
O3    O     O_R   0.319640 0.499990 0.618790 -0.631854
O4    O     O_R   0.319650 0.500030 0.381210 -0.556781
O5    O     O_R   0.499990 0.680320 0.618770 -0.544207
O6    O     O_R   0.500000 0.680360 0.381190 -0.535187
O7    O     O_R   0.680350 0.499970 0.618790 -0.573493
O8    O     O_R   0.680360 0.500010 0.381210 -0.565562
O9    O     O_3   0.801983 0.405950 0.159637 -0.550656
C37   C     C_3   0.755742 0.288418 0.204557 -0.168727
H11   H     H_    0.818388 0.215837 0.184121 0.180875
H12   H     H_    0.664500 0.266900 0.158050 0.119605
H13   H     H_    0.746638 0.288567 0.316835 0.175944
O10   O     O_3   0.821668 0.225183 0.715425 -0.727130
H14   H     H_    0.844209 0.245486 0.620219 0.316718
O11   O     O_3   0.482371 0.902722 0.245388 -0.652044
H15   H     H_    0.417734 0.836203 0.250154 0.402187
O12   O     O_3   0.279095 0.109054 0.640385 -0.580081
C38   C     C_3   0.173370 0.091539 0.717238 -0.298970
H16   H     H_    0.190763 0.101850 0.828922 0.178053
H17   H     H_    0.127986 0.999687 0.697282 0.162715
H18   H     H_    0.109806 0.161428 0.683164 0.200020
O13   O     O_3   0.381614 0.313285 0.151703 -0.569063
C39   C     C_3   0.385050 0.192188 0.104534 -0.238564
H19   H     H_    0.365192 0.127494 0.190927 0.180437
H20   H     H_    0.474403 0.172869 0.063609 0.161540
H21   H     H_    0.310201 0.171388 0.029517 0.211300
O14   O     O_3   0.286155 0.726267 0.003301 -0.716280
H22   H     H_    0.303971 0.709701 0.907289 0.319985
O15   O     O_3   0.388309 0.308033 0.860334 -0.768895
H23   H     H_    0.349848 0.342489 0.777550 0.376273
O16   O     O_3   0.611097 0.802685 0.864826 -0.661686
H24   H     H_    0.690078 0.848162 0.848427 0.332625
O17   O     O_3   0.638225 0.793233 0.131837 -0.605546
H25   H     H_    0.720921 0.833960 0.132223 0.317441
O18   O     O_3   0.223719 0.721043 0.275379 -0.579955
C40   C     C_3   0.145618 0.817554 0.273528 -0.366080
H26   H     H_    0.183431 0.888416 0.345336 0.190388
H27   H     H_    0.054612 0.785478 0.310142 0.162562
H28   H     H_    0.140706 0.862617 0.170715 0.188786
O19   O     O_3   0.032529 0.315228 0.229108 -0.560867
C41   C     C_3   0.113226 0.228324 0.277778 -0.243325
H29   H     H_    0.064973 0.164644 0.350979 0.164529
H30   H     H_    0.193785 0.271213 0.333609 0.181687
H31   H     H_    0.141295 0.172325 0.192666 0.194319
O20   O     O_3   0.115154 0.303916 0.968279 -0.736485
H32   H     H_    0.156558 0.312067 0.880566 0.324637
O21   O     O_3   0.917743 0.661389 0.770788 -0.592369
C42   C     C_3   0.035827 0.698962 0.729119 -0.300773
H33   H     H_    0.107481 0.643241 0.773784 0.165652
H34   H     H_    0.057198 0.795314 0.759724 0.159376
H35   H     H_    0.038618 0.699662 0.616137 0.190850
O22   O     O_3   0.916731 0.615788 0.072266 -0.626004
C43   C     C_3   0.936044 0.739560 0.028709 -0.335098
H36   H     H_    0.930704 0.797939 0.118717 0.143976
H37   H     H_    0.865040 0.771015 0.957498 0.197827
H38   H     H_    0.027747 0.757206 0.988480 0.211485

loop_
_geom_bond_atom_site_label_1
_geom_bond_atom_site_label_2
_ccdc_geom_bond_type
C40   H26   S    
C16   C21   A    
O13   C39   S    
C35   C36   A    
C43   H37   S    
C7    C8    A    
Cu2   N1    S    
C25   C28   A    
C26   C27   A    
C9    O21   S    
C39   H20   S    
C37   H13   S    
C31   O8    A    
C2    C32   A    
C10   O22   S    
Cu1   Cu2   S    
C18   C19   A    
C5    C6    A    
Cu1   O1    S    
Cu2   O2    S    
O21   C42   S    
C26   O13   S    
C19   O11   S    
C37   H12   S    
C34   C35   A    
C38   H17   S    
C13   H2    S    
Cu2   O8    S    
C28   N2    A    
C2    H1    S    
C19   C20   A    
O12   C38   S    
C39   H21   S    
C9    C10   A    
C12   O3    A    
C27   N2    A    
Cu1   O3    S    
O11   H15   S    
O9    C37   S    
C16   C24   S    
C21   C22   S    
C11   O9    S    
C43   H36   S    
C33   C34   A    
C7    C12   S    
C39   H19   S    
C23   O6    A    
O17   H25   S    
C3    C8    A    
C26   N1    A    
O19   C41   S    
O18   C40   S    
C16   C17   A    
Cu1   O7    S    
C41   H31   S    
C29   H7    S    
C37   H11   S    
C38   H18   S    
C33   O18   S    
C29   C30   S    
C36   O20   S    
C22   H5    S    
Cu2   O4    S    
C20   C23   S    
C14   O10   S    
O20   H32   S    
C41   H30   S    
C17   C18   A    
C8    C34   S    
C1    O1    A    
C6    H10   S    
C42   H34   S    
C27   O15   S    
C40   H27   S    
C24   H6    S    
C22   C24   S    
C18   H3    S    
C3    C4    A    
C2    C36   A    
C25   C30   S    
C28   C29   S    
O14   H22   S    
C30   H8    S    
O15   H23   S    
C23   O5    A    
C6    C7    A    
C1    C17   S    
C42   H33   S    
O10   H14   S    
C31   O7    A    
C9    C15   A    
C29   O16   S    
C32   C33   A    
Cu1   N2    S    
C11   C13   A    
C22   H4    S    
C3    H9    S    
C41   H29   S    
C30   O17   S    
C38   H16   S    
C1    O2    A    
C25   N1    A    
C5    C15   S    
C4    C31   S    
C10   C11   A    
C24   O12   S    
C32   O14   S    
Cu1   O5    S    
C4    C5    A    
C42   H35   S    
Cu2   O6    S    
C20   C21   A    
O16   H24   S    
C40   H28   S    
O22   C43   S    
C14   C15   A    
C13   C14   A    
C43   H38   S    
C12   O4    A    
C35   O19   S    
