data_mof_unit_55135.cif
_audit_creation_date              2012-12-10T20:42:37-0500
_audit_creation_method            fapswitch 2.2
_symmetry_space_group_name_H-M    P1
_symmetry_Int_Tables_number       1
_space_group_crystal_system       triclinic
_cell_length_a                    8.909896
_cell_length_b                    10.678862
_cell_length_c                    9.877779
_cell_angle_alpha                 89.579639
_cell_angle_beta                  90.024888
_cell_angle_gamma                 90.109493
_cell_volume                      939.81937595

loop_
_atom_site_label
_atom_site_type_symbol
_atom_type_description
_atom_site_fract_x
_atom_site_fract_y
_atom_site_fract_z
_atom_type_partial_charge
C1    C     C_R   0.503925 0.260213 0.500661 0.887610
C2    C     C_R   0.596388 0.938679 0.390290 0.178668
C3    C     C_R   0.531053 0.872003 0.500376 -0.131478
C4    C     C_R   0.494610 0.935199 0.618736 0.091875
C5    C     C_3   0.358686 0.925229 0.707080 -0.464459
C6    C     C_3   0.357409 0.067246 0.709175 -0.485043
C7    C     C_R   0.411089 0.418152 0.071734 0.220881
C8    C     C_R   0.598712 0.571449 0.071347 -0.138107
C9    C     C_R   0.598295 0.571904 0.927463 -0.124733
C10   C     C_R   0.411218 0.418058 0.929345 0.212623
C11   C     C_3   0.244312 0.409768 0.923543 -0.508959
C12   C     C_R   0.218742 0.499980 0.499967 0.936297
C13   C     C_3   0.244160 0.409981 0.077294 -0.503160
C14   C     C_R   0.507398 0.739984 0.499373 0.882159
C15   C     C_R   0.781277 0.500130 0.500031 0.925886
C16   C     C_1   0.065416 0.500037 0.499968 -0.216552
C17   C     C_1   0.934614 0.500101 0.500026 -0.204616
C18   C     C_R   0.493289 0.062491 0.620737 0.140210
C19   C     C_R   0.526922 0.129251 0.503726 -0.151634
C20   C     C_R   0.592167 0.068998 0.393136 -0.229870
H1    H     H_    0.632408 0.122800 0.306943 0.171696
H2    H     H_    0.205586 0.319623 0.879964 0.199698
H3    H     H_    0.191828 0.495172 0.120705 0.223186
H4    H     H_    0.205224 0.319981 0.122437 0.202632
H5    H     H_    0.260439 0.884075 0.653843 0.197555
H6    H     H_    0.384841 0.882465 0.807292 0.209614
H7    H     H_    0.258492 0.109009 0.657149 0.196299
H8    H     H_    0.382932 0.106597 0.810533 0.204525
H9    H     H_    0.677009 0.630471 0.124982 0.150431
H10   H     H_    0.675442 0.632071 0.872822 0.149461
H11   H     H_    0.191976 0.494806 0.878403 0.224545
N1    N     N_R   0.499010 0.499140 0.142800 -0.106476
N2    N     N_R   0.499010 0.499180 0.857150 -0.106747
O1    O     O_R   0.500020 0.316790 0.614690 -0.613688
O2    O     O_R   0.500000 0.316760 0.385350 -0.622731
O3    O     O_R   0.285350 0.500020 0.614650 -0.618755
O4    O     O_R   0.285340 0.499980 0.385310 -0.615994
O5    O     O_R   0.500000 0.683240 0.614650 -0.620508
O6    O     O_R   0.499980 0.683210 0.385310 -0.614081
O7    O     O_R   0.714660 0.500020 0.614690 -0.618134
O8    O     O_R   0.714650 0.499980 0.385350 -0.621428
Zn1   Zn    Zn3+2 0.500010 0.500020 0.653130 0.940914
Zn2   Zn    Zn3+2 0.499990 0.499980 0.346870 0.937247
C21   C     C_3   0.664316 0.875983 0.268602 -0.882626
H12   H     H_    0.574350 0.835063 0.204950 0.254619
H13   H     H_    0.727752 0.943617 0.204477 0.223899
H14   H     H_    0.744156 0.802132 0.301743 0.237250

loop_
_geom_bond_atom_site_label_1
_geom_bond_atom_site_label_2
_ccdc_geom_bond_type
O4    Zn2   S    
C7    C10   A    
C12   O3    A    
C11   C13   S    
C11   H2    S    
O3    Zn1   S    
C19   C20   A    
O1    Zn1   S    
C21   H14   S    
C4    C18   A    
O7    Zn1   S    
C2    C3    A    
C11   H11   S    
C20   H1    S    
C9    N2    A    
C4    C5    S    
O8    Zn2   S    
C15   O8    A    
C6    H7    S    
C3    C14   S    
C9    H10   S    
C5    H5    S    
N2    Zn1   S    
N1    Zn2   S    
C21   H13   S    
C1    O1    A    
O5    Zn1   S    
C10   N2    A    
C5    C6    S    
C6    C18   S    
C15   O7    A    
C1    C19   S    
C14   O5    A    
C10   C11   S    
C8    H9    S    
C2    C20   A    
C5    H6    S    
C8    N1    A    
C7    C13   S    
O2    Zn2   S    
C21   H12   S    
C13   H3    S    
C18   C19   A    
C12   O4    A    
C15   C17   S    
C1    O2    A    
C16   C17   T    
O6    Zn2   S    
C7    N1    A    
C14   O6    A    
C6    H8    S    
C3    C4    A    
C12   C16   S    
C13   H4    S    
C2    C21   S    
C8    C9    A    
