data_mof_unit_66183.cif
_audit_creation_date              2012-12-10T18:26:44-0500
_audit_creation_method            fapswitch 2.2
_symmetry_space_group_name_H-M    P1
_symmetry_Int_Tables_number       1
_space_group_crystal_system       triclinic
_cell_length_a                    25.799606
_cell_length_b                    25.790804
_cell_length_c                    22.140618
_cell_angle_alpha                 90.000182
_cell_angle_beta                  54.400492
_cell_angle_gamma                 90.000213
_cell_volume                      11978.839088

loop_
_atom_site_label
_atom_site_type_symbol
_atom_type_description
_atom_site_fract_x
_atom_site_fract_y
_atom_site_fract_z
_atom_type_partial_charge
C1    C     C_R   0.849476 0.750045 0.301031 0.820073
C2    C     C_R   0.849476 0.249955 0.301031 0.820077
C3    C     C_R   0.349476 0.250045 0.301031 0.820021
C4    C     C_R   0.349476 0.749954 0.301030 0.820043
C5    C     C_3   0.504297 0.705830 0.551510 -0.435212
C6    C     C_3   0.504105 0.293942 0.551898 -0.435112
C7    C     C_3   0.004513 0.205586 0.551074 -0.435357
C8    C     C_3   0.004512 0.794412 0.551078 -0.435355
C9    C     C_3   0.551030 0.749276 0.499736 0.147444
C10   C     C_3   0.551016 0.250705 0.499766 0.147427
C11   C     C_3   0.051051 0.249258 0.499694 0.147301
C12   C     C_3   0.051050 0.750742 0.499695 0.147304
C13   C     C_3   0.449377 0.748774 0.499622 0.125178
C14   C     C_3   0.449362 0.251210 0.499654 0.125181
C15   C     C_3   0.949400 0.248759 0.499575 0.125084
C16   C     C_3   0.949399 0.751241 0.499576 0.125083
C17   C     C_3   0.510280 0.740095 0.419748 -0.368910
C18   C     C_3   0.510230 0.260193 0.419852 -0.369010
C19   C     C_3   0.010346 0.240455 0.419617 -0.368573
C20   C     C_3   0.010345 0.759549 0.419618 -0.368576
C21   C     C_3   0.444686 0.704736 0.551140 0.430924
C22   C     C_3   0.444497 0.295045 0.551527 0.431036
C23   C     C_3   0.944929 0.204471 0.550648 0.430765
C24   C     C_3   0.944927 0.795526 0.550653 0.430765
C25   C     C_3   0.468814 0.730483 0.956831 -0.392817
C26   C     C_3   0.468507 0.268667 0.956832 -0.392848
C27   C     C_3   0.966777 0.237298 0.956832 -0.392998
C28   C     C_3   0.967653 0.766027 0.956831 -0.392893
C29   C     C_3   0.531082 0.805493 0.956958 -0.393802
C30   C     C_3   0.531970 0.194667 0.956958 -0.393787
C31   C     C_3   0.038001 0.303847 0.956966 -0.393889
C32   C     C_3   0.034684 0.695249 0.956961 -0.393927
C33   C     C_3   0.487977 0.805471 0.043121 -0.392595
C34   C     C_3   0.488865 0.194688 0.043122 -0.392553
C35   C     C_3   0.994895 0.303826 0.043129 -0.392241
C36   C     C_3   0.991578 0.695269 0.043125 -0.392378
C37   C     C_1   0.389183 0.749938 0.221594 -0.150558
C38   C     C_1   0.389184 0.250062 0.221594 -0.150561
C39   C     C_1   0.889184 0.249938 0.221594 -0.150758
C40   C     C_1   0.889183 0.750061 0.221594 -0.150755
C41   C     C_3   0.536635 0.749996 0.926828 0.361864
C42   C     C_3   0.536634 0.250004 0.926828 0.361863
C43   C     C_3   0.036636 0.249994 0.926828 0.362028
C44   C     C_3   0.036636 0.750006 0.926828 0.362016
C45   C     C_R   0.650561 0.750000 0.698969 0.815373
C46   C     C_R   0.650561 0.250000 0.698969 0.815365
C47   C     C_R   0.150561 0.250000 0.698969 0.815307
C48   C     C_R   0.150561 0.750000 0.698969 0.815322
C49   C     C_3   0.425708 0.730462 0.042994 -0.392670
C50   C     C_3   0.425402 0.268688 0.042995 -0.392694
C51   C     C_3   0.923672 0.237278 0.042995 -0.392939
C52   C     C_3   0.924547 0.766047 0.042994 -0.392838
C53   C     C_3   0.463423 0.749959 0.073169 0.359891
C54   C     C_3   0.463424 0.250040 0.073169 0.359889
C55   C     C_3   0.963425 0.249958 0.073169 0.360015
C56   C     C_3   0.963424 0.750041 0.073169 0.360017
C57   C     C_3   0.521745 0.713967 0.043126 -0.393128
C58   C     C_3   0.521164 0.286722 0.043125 -0.393146
C59   C     C_3   0.016868 0.208793 0.043117 -0.393285
C60   C     C_3   0.019306 0.788785 0.043122 -0.393258
C61   C     C_3   0.564852 0.713990 0.956963 -0.395049
C62   C     C_3   0.564269 0.286701 0.956961 -0.395033
C63   C     C_3   0.059974 0.208814 0.956953 -0.394946
C64   C     C_3   0.062412 0.788764 0.956958 -0.394989
C65   C     C_1   0.422607 0.749941 0.154760 -0.135784
C66   C     C_1   0.422607 0.250058 0.154761 -0.135791
C67   C     C_1   0.922608 0.249941 0.154761 -0.135903
C68   C     C_1   0.922607 0.750058 0.154761 -0.135900
C69   C     C_1   0.577448 0.750012 0.845238 -0.138250
C70   C     C_1   0.577447 0.249988 0.845237 -0.138255
C71   C     C_1   0.077449 0.250009 0.845237 -0.138378
C72   C     C_1   0.077449 0.749990 0.845237 -0.138367
C73   C     C_1   0.610864 0.750014 0.778404 -0.153299
C74   C     C_1   0.610864 0.249987 0.778404 -0.153300
C75   C     C_1   0.110865 0.250011 0.778404 -0.153496
C76   C     C_1   0.110865 0.749988 0.778404 -0.153478
C77   C     C_3   0.738847 0.970251 0.442404 -0.386704
C78   C     C_3   0.738847 0.029749 0.442403 -0.386708
C79   C     C_3   0.302958 0.470034 0.421779 -0.398094
C80   C     C_3   0.302959 0.529966 0.421779 -0.398068
C81   C     C_3   0.696450 0.970035 0.577573 -0.401779
C82   C     C_3   0.696450 0.029965 0.577573 -0.401782
C83   C     C_3   0.184819 0.470041 0.523135 -0.401924
C84   C     C_3   0.184819 0.529959 0.523135 -0.401939
C85   C     C_3   0.815075 0.970029 0.478586 -0.394618
C86   C     C_3   0.815075 0.029972 0.478586 -0.394615
C87   C     C_3   0.263300 0.470239 0.556008 -0.390266
C88   C     C_3   0.263300 0.529762 0.556007 -0.390315
C89   C     C_R   0.749921 0.608600 0.500062 0.743734
C90   C     C_R   0.749921 0.391400 0.500062 0.743739
C91   C     C_R   0.249921 0.108600 0.500062 0.743708
C92   C     C_R   0.249921 0.891400 0.500062 0.743708
C93   C     C_3   0.750129 0.949133 0.499612 0.203289
C94   C     C_3   0.750129 0.050867 0.499612 0.203294
C95   C     C_3   0.250306 0.449132 0.500216 0.209427
C96   C     C_3   0.250306 0.550868 0.500216 0.209440
C97   C     C_3   0.774585 0.529967 0.422102 -0.399098
C98   C     C_3   0.774585 0.470032 0.422102 -0.399101
C99   C     C_3   0.274571 0.029967 0.422108 -0.399091
C100  C     C_3   0.274571 0.970033 0.422108 -0.399095
C101  C     C_3   0.792863 0.529967 0.522299 -0.400461
C102  C     C_3   0.792863 0.470033 0.522299 -0.400463
C103  C     C_3   0.292875 0.029967 0.522283 -0.400540
C104  C     C_3   0.292875 0.970033 0.522283 -0.400538
C105  C     C_3   0.681033 0.529757 0.556810 -0.386436
C106  C     C_3   0.681033 0.470243 0.556810 -0.386429
C107  C     C_3   0.181036 0.029757 0.556824 -0.386460
C108  C     C_3   0.181036 0.970243 0.556824 -0.386457
C109  C     C_3   0.749617 0.550879 0.500305 0.208385
C110  C     C_3   0.749618 0.449121 0.500305 0.208380
C111  C     C_3   0.249617 0.050879 0.500306 0.208473
C112  C     C_3   0.249618 0.949121 0.500306 0.208472
C113  C     C_R   0.750093 0.891430 0.499874 0.750797
C114  C     C_R   0.750093 0.108570 0.499873 0.750794
C115  C     C_R   0.250145 0.391430 0.499995 0.750122
C116  C     C_R   0.250145 0.608570 0.499995 0.750170
C117  C     C_R   0.891641 0.750450 0.499576 0.779121
C118  C     C_R   0.891641 0.249550 0.499575 0.779123
C119  C     C_R   0.391625 0.250433 0.499608 0.778527
C120  C     C_R   0.391632 0.749559 0.499595 0.778844
C121  C     C_R   0.608689 0.749791 0.499823 0.769120
C122  C     C_R   0.608682 0.250199 0.499839 0.769129
C123  C     C_R   0.108699 0.249779 0.499804 0.769094
C124  C     C_R   0.108699 0.750220 0.499805 0.769087
C125  C     C_3   0.516000 0.802030 0.527655 -0.414986
C126  C     C_3   0.516197 0.197841 0.527259 -0.414933
C127  C     C_3   0.015790 0.301891 0.528075 -0.414633
C128  C     C_3   0.015792 0.698108 0.528071 -0.414637
C129  C     C_3   0.455752 0.801549 0.528429 -0.517016
C130  C     C_3   0.455941 0.198325 0.528048 -0.516894
C131  C     C_3   0.955524 0.301395 0.528888 -0.517179
C132  C     C_3   0.955526 0.698603 0.528882 -0.517174
C133  C     C_3   0.569961 0.739243 0.420172 -0.405544
C134  C     C_3   0.569906 0.261051 0.420286 -0.405625
C135  C     C_3   0.070026 0.239565 0.420041 -0.405448
C136  C     C_3   0.070025 0.760438 0.420042 -0.405449
H1    H     H_    0.548164 0.833902 0.490996 0.189270
H2    H     H_    0.548486 0.166116 0.490334 0.189442
H3    H     H_    0.047809 0.333915 0.491678 0.189408
H4    H     H_    0.047812 0.666085 0.491672 0.189409
H5    H     H_    0.594160 0.700992 0.399752 0.162016
H6    H     H_    0.593941 0.299385 0.400182 0.162031
H7    H     H_    0.094365 0.201391 0.399299 0.162110
H8    H     H_    0.094364 0.798612 0.399303 0.162110
H9    H     H_    0.506814 0.703005 0.396653 0.189574
H10   H     H_    0.506616 0.297370 0.397047 0.189518
H11   H     H_    0.007047 0.203489 0.396143 0.189619
H12   H     H_    0.007045 0.796516 0.396149 0.189623
H13   H     H_    0.383562 0.755770 0.063595 0.162458
H14   H     H_    0.383664 0.242873 0.063598 0.162412
H15   H     H_    0.884967 0.266399 0.063604 0.162148
H16   H     H_    0.884120 0.738714 0.063599 0.162287
H17   H     H_    0.447314 0.755799 0.936160 0.161815
H18   H     H_    0.447416 0.242842 0.936163 0.161765
H19   H     H_    0.948719 0.266429 0.936169 0.161491
H20   H     H_    0.947872 0.738684 0.936164 0.161629
H21   H     H_    0.579208 0.820426 0.936384 0.163532
H22   H     H_    0.580331 0.180344 0.936384 0.163526
H23   H     H_    0.087707 0.313887 0.936392 0.163374
H24   H     H_    0.083704 0.682821 0.936387 0.163431
H25   H     H_    0.446975 0.832157 0.063726 0.161997
H26   H     H_    0.448293 0.167514 0.063726 0.162027
H27   H     H_    0.957498 0.334170 0.063739 0.162210
H28   H     H_    0.952382 0.666636 0.063731 0.162070
H29   H     H_    0.515455 0.820394 0.063820 0.164747
H30   H     H_    0.516577 0.180375 0.063821 0.164747
H31   H     H_    0.023953 0.313857 0.063829 0.164696
H32   H     H_    0.019950 0.682851 0.063824 0.164726
H33   H     H_    0.569199 0.673755 0.936297 0.162119
H34   H     H_    0.567970 0.326834 0.936295 0.162164
H35   H     H_    0.059298 0.169657 0.936281 0.162427
H36   H     H_    0.064145 0.828521 0.936290 0.162246
H37   H     H_    0.502284 0.810047 0.584616 0.156426
H38   H     H_    0.502524 0.189595 0.584149 0.156343
H39   H     H_    0.002062 0.309675 0.585094 0.156595
H40   H     H_    0.002063 0.690321 0.585090 0.156593
H41   H     H_    0.471395 0.690551 0.936164 0.164268
H42   H     H_    0.470449 0.308469 0.936164 0.164277
H43   H     H_    0.964389 0.198664 0.936159 0.164285
H44   H     H_    0.967645 0.805367 0.936161 0.164268
H45   H     H_    0.407640 0.690521 0.063599 0.164852
H46   H     H_    0.406697 0.308500 0.063599 0.164863
H47   H     H_    0.900637 0.198633 0.063594 0.164806
H48   H     H_    0.903892 0.805396 0.063597 0.164782
H49   H     H_    0.549842 0.727208 0.063827 0.163136
H50   H     H_    0.549469 0.274099 0.063824 0.163096
H51   H     H_    0.046329 0.217079 0.063816 0.162814
H52   H     H_    0.048186 0.778083 0.063822 0.162964
H53   H     H_    0.692349 0.956054 0.456189 0.172965
H54   H     H_    0.692350 0.043945 0.456189 0.172963
H55   H     H_    0.294901 0.455761 0.380423 0.178111
H56   H     H_    0.294901 0.544239 0.380423 0.178106
H57   H     H_    0.776861 0.956031 0.385671 0.174611
H58   H     H_    0.776861 0.043968 0.385671 0.174612
H59   H     H_    0.350442 0.455566 0.404372 0.156899
H60   H     H_    0.350442 0.544435 0.404372 0.156932
H61   H     H_    0.649338 0.955572 0.593693 0.149340
H62   H     H_    0.649338 0.044427 0.593692 0.149337
H63   H     H_    0.174229 0.455758 0.483954 0.176316
H64   H     H_    0.174229 0.544242 0.483954 0.176314
H65   H     H_    0.824472 0.955745 0.518812 0.177716
H66   H     H_    0.824472 0.044256 0.518812 0.177715
H67   H     H_    0.226103 0.456040 0.613076 0.171560
H68   H     H_    0.226104 0.543961 0.613075 0.171567
H69   H     H_    0.854321 0.955560 0.422635 0.156953
H70   H     H_    0.854321 0.044441 0.422635 0.156954
H71   H     H_    0.310232 0.456004 0.540841 0.175097
H72   H     H_    0.310233 0.543997 0.540839 0.174977
H73   H     H_    0.412876 0.808636 0.585951 0.153647
H74   H     H_    0.413097 0.191021 0.585517 0.153566
H75   H     H_    0.912628 0.308199 0.586491 0.153820
H76   H     H_    0.912630 0.691796 0.586484 0.153817
H77   H     H_    0.703369 0.955752 0.619864 0.175028
H78   H     H_    0.703368 0.044248 0.619863 0.175028
H79   H     H_    0.146341 0.455580 0.579473 0.148895
H80   H     H_    0.146341 0.544419 0.579473 0.148896
H81   H     H_    0.823861 0.544246 0.380275 0.178338
H82   H     H_    0.823861 0.455754 0.380275 0.178337
H83   H     H_    0.323845 0.044246 0.380271 0.178321
H84   H     H_    0.323845 0.955754 0.380271 0.178321
H85   H     H_    0.744037 0.544431 0.405334 0.150932
H86   H     H_    0.744037 0.455568 0.405334 0.150931
H87   H     H_    0.244013 0.044431 0.405352 0.150958
H88   H     H_    0.244013 0.955568 0.405352 0.150958
H89   H     H_    0.842527 0.544248 0.482601 0.176816
H90   H     H_    0.842528 0.455752 0.482601 0.176816
H91   H     H_    0.342538 0.044248 0.482575 0.176750
H92   H     H_    0.342538 0.955752 0.482575 0.176749
H93   H     H_    0.661792 0.543966 0.613714 0.173683
H94   H     H_    0.661792 0.456034 0.613714 0.173682
H95   H     H_    0.161805 0.043966 0.613725 0.173656
H96   H     H_    0.161805 0.956034 0.613725 0.173656
H97   H     H_    0.648782 0.543969 0.542333 0.173874
H98   H     H_    0.648782 0.456030 0.542333 0.173887
H99   H     H_    0.148775 0.043969 0.542360 0.173849
H100  H     H_    0.148775 0.956030 0.542360 0.173849
H101  H     H_    0.775618 0.544431 0.578452 0.148976
H102  H     H_    0.775618 0.455569 0.578452 0.148977
H103  H     H_    0.275641 0.044431 0.578432 0.148922
H104  H     H_    0.275641 0.955569 0.578432 0.148926
H105  H     H_    0.458673 0.833757 0.493094 0.202142
H106  H     H_    0.458982 0.166251 0.492467 0.202306
H107  H     H_    0.958258 0.333771 0.493886 0.202035
H108  H     H_    0.958263 0.666230 0.493877 0.202038
H109  H     H_    0.604176 0.769340 0.381256 0.182275
H110  H     H_    0.604252 0.231113 0.381125 0.182140
H111  H     H_    0.104129 0.269814 0.381380 0.182435
H112  H     H_    0.104129 0.730190 0.381379 0.182435
H113  H     H_    0.515297 0.771705 0.382451 0.173952
H114  H     H_    0.515371 0.228725 0.382309 0.173859
H115  H     H_    0.015229 0.272255 0.382636 0.174074
H116  H     H_    0.015229 0.727751 0.382634 0.174074
H117  H     H_    0.529019 0.667631 0.533258 0.198505
H118  H     H_    0.528667 0.332215 0.533970 0.198705
H119  H     H_    0.029420 0.167472 0.532505 0.198276
H120  H     H_    0.029417 0.832526 0.532512 0.198278
H121  H     H_    0.489114 0.712336 0.609405 0.136354
H122  H     H_    0.488949 0.287198 0.609738 0.136135
H123  H     H_    0.989270 0.211854 0.609036 0.136573
H124  H     H_    0.989269 0.788142 0.609039 0.136570
H125  H     H_    0.401937 0.713176 0.608776 0.053678
H126  H     H_    0.401776 0.286379 0.609090 0.053378
H127  H     H_    0.902120 0.212603 0.608364 0.054054
H128  H     H_    0.902119 0.787391 0.608368 0.054048
O1    O     O_3   0.750010 0.750010 0.500000 -0.466084
O2    O     O_3   0.750010 0.249990 0.500000 -0.466083
O3    O     O_3   0.250010 0.250010 0.500000 -0.466160
O4    O     O_3   0.250010 0.749990 0.500000 -0.466147
O5    O     O_R   0.697880 0.633160 0.542990 -0.651663
O6    O     O_R   0.697880 0.366840 0.542990 -0.651655
O7    O     O_R   0.197880 0.133160 0.542990 -0.651682
O8    O     O_R   0.197880 0.866840 0.542990 -0.651682
O9    O     O_R   0.740870 0.866870 0.457020 -0.652213
O10   O     O_R   0.740870 0.133130 0.457020 -0.652220
O11   O     O_R   0.240870 0.366870 0.457020 -0.649858
O12   O     O_R   0.240870 0.633130 0.457020 -0.649853
O13   O     O_R   0.862620 0.719400 0.336030 -0.639516
O14   O     O_R   0.862620 0.280600 0.336030 -0.639518
O15   O     O_R   0.362620 0.219400 0.336030 -0.639574
O16   O     O_R   0.362620 0.780600 0.336030 -0.639577
O17   O     O_R   0.698690 0.780630 0.663960 -0.647455
O18   O     O_R   0.698690 0.219370 0.663960 -0.647454
O19   O     O_R   0.198690 0.280630 0.663960 -0.647678
O20   O     O_R   0.198690 0.719370 0.663960 -0.647635
O21   O     O_R   0.801340 0.780670 0.336040 -0.640205
O22   O     O_R   0.801340 0.219330 0.336040 -0.640198
O23   O     O_R   0.301340 0.280670 0.336040 -0.640071
O24   O     O_R   0.301340 0.719330 0.336040 -0.640069
O25   O     O_R   0.637410 0.719360 0.663970 -0.640007
O26   O     O_R   0.637410 0.280640 0.663970 -0.640013
O27   O     O_R   0.137410 0.219360 0.663970 -0.639942
O28   O     O_R   0.137410 0.780640 0.663970 -0.639951
O29   O     O_R   0.802130 0.633170 0.457010 -0.649099
O30   O     O_R   0.802130 0.366830 0.457010 -0.649099
O31   O     O_R   0.302130 0.133170 0.457010 -0.649114
O32   O     O_R   0.302130 0.866830 0.457010 -0.649119
O33   O     O_R   0.759170 0.866860 0.542980 -0.644838
O34   O     O_R   0.759170 0.133140 0.542980 -0.644840
O35   O     O_R   0.259170 0.366860 0.542980 -0.646833
O36   O     O_R   0.259170 0.633140 0.542980 -0.646883
O37   O     O_R   0.888360 0.719380 0.456990 -0.654473
O38   O     O_R   0.888360 0.280620 0.456990 -0.654474
O39   O     O_R   0.388360 0.219380 0.456990 -0.654487
O40   O     O_R   0.388360 0.780620 0.456990 -0.654490
O41   O     O_R   0.654640 0.780660 0.457030 -0.649717
O42   O     O_R   0.654640 0.219340 0.457030 -0.649709
O43   O     O_R   0.154640 0.280660 0.457030 -0.649592
O44   O     O_R   0.154640 0.719340 0.457030 -0.649597
O45   O     O_R   0.845390 0.780640 0.542970 -0.628392
O46   O     O_R   0.845390 0.219360 0.542970 -0.628397
O47   O     O_R   0.345390 0.280640 0.542970 -0.627629
O48   O     O_R   0.345390 0.719360 0.542970 -0.627931
O49   O     O_R   0.611660 0.719380 0.543010 -0.651153
O50   O     O_R   0.611660 0.280620 0.543010 -0.651174
O51   O     O_R   0.111660 0.219380 0.543010 -0.651164
O52   O     O_R   0.111660 0.780620 0.543010 -0.651167
Zn1   Zn    Zn3+2 0.675530 0.706240 0.561430 0.945747
Zn2   Zn    Zn3+2 0.675530 0.293760 0.561430 0.945747
Zn3   Zn    Zn3+2 0.175530 0.206240 0.561430 0.945688
Zn4   Zn    Zn3+2 0.175530 0.793760 0.561430 0.945695
Zn5   Zn    Zn3+2 0.824490 0.706250 0.438570 0.951747
Zn6   Zn    Zn3+2 0.824490 0.293750 0.438570 0.951750
Zn7   Zn    Zn3+2 0.324490 0.206250 0.438570 0.951600
Zn8   Zn    Zn3+2 0.324490 0.793750 0.438570 0.951652
Zn9   Zn    Zn3+2 0.763090 0.793770 0.561410 0.957800
Zn10  Zn    Zn3+2 0.763090 0.206230 0.561410 0.957791
Zn11  Zn    Zn3+2 0.263090 0.293770 0.561410 0.957240
Zn12  Zn    Zn3+2 0.263090 0.706230 0.561410 0.957211
Zn13  Zn    Zn3+2 0.736940 0.793790 0.438590 0.950705
Zn14  Zn    Zn3+2 0.736940 0.206210 0.438590 0.950707
Zn15  Zn    Zn3+2 0.236940 0.293790 0.438590 0.951743
Zn16  Zn    Zn3+2 0.236940 0.706210 0.438590 0.951772
O53   O     O_3   0.440052 0.655828 0.524965 -0.598186
C137  C     C_3   0.403992 0.620829 0.584546 -0.330850
H129  H     H_    0.353215 0.633102 0.621049 0.181297
H130  H     H_    0.423911 0.616748 0.617368 0.145082
H131  H     H_    0.405592 0.582135 0.561634 0.183291
O54   O     O_3   0.439680 0.344062 0.525751 -0.598028
C138  C     C_3   0.403469 0.378820 0.585623 -0.330485
H132  H     H_    0.423343 0.382745 0.618513 0.144940
H133  H     H_    0.352738 0.366413 0.621994 0.181302
H134  H     H_    0.404939 0.417613 0.563032 0.183202
O55   O     O_3   0.940585 0.155699 0.523934 -0.598357
C139  C     C_3   0.904771 0.120366 0.583115 -0.331065
H135  H     H_    0.853922 0.132421 0.619788 0.181354
H136  H     H_    0.924749 0.116121 0.615855 0.145071
H137  H     H_    0.906602 0.081797 0.559763 0.183638
O56   O     O_3   0.940580 0.844299 0.523944 -0.598356
C140  C     C_3   0.904766 0.879630 0.583129 -0.331056
H138  H     H_    0.924748 0.883876 0.615865 0.145073
H139  H     H_    0.853918 0.867572 0.619805 0.181347
H140  H     H_    0.906591 0.918199 0.559781 0.183638
H141  H     H_    0.510727 0.832188 0.936291 0.161535
H142  H     H_    0.512046 0.167484 0.936291 0.161560
H143  H     H_    0.021251 0.334199 0.936304 0.161629
H144  H     H_    0.016135 0.666606 0.936296 0.161507
H145  H     H_    0.613596 0.727244 0.936392 0.161918
H146  H     H_    0.613222 0.274066 0.936389 0.161884
H147  H     H_    0.110083 0.217111 0.936381 0.161585
H148  H     H_    0.111940 0.778051 0.936386 0.161729
H149  H     H_    0.505442 0.673722 0.063731 0.162827
H150  H     H_    0.504217 0.326866 0.063730 0.162861
H151  H     H_    0.995544 0.169625 0.063716 0.162965
H152  H     H_    0.000390 0.828552 0.063725 0.162814

loop_
_geom_bond_atom_site_label_1
_geom_bond_atom_site_label_2
_ccdc_geom_bond_type
O50   Zn2   S    
C82   C94   S    
C107  H95   S    
C58   H50   S    
C7    H123  S    
C41   C61   S    
C47   O27   A    
C108  H100  S    
C48   O20   A    
C43   C63   S    
O53   C137  S    
C90   O30   A    
O1    Zn9   S    
C82   H62   S    
C55   C59   S    
C26   C50   S    
O3    Zn11  S    
O21   Zn13  S    
C103  H91   S    
C29   C33   S    
O26   Zn2   S    
C118  O38   A    
C101  H89   S    
C116  O12   A    
C77   H57   S    
O14   Zn6   S    
C84   H80   S    
O30   Zn6   S    
O3    Zn7   S    
C70   C74   T    
C9    C121  S    
C86   H66   S    
C57   H49   S    
C126  H38   S    
C108  C112  S    
C26   H42   S    
C60   H52   S    
C79   H55   S    
C80   H56   S    
O2    Zn2   S    
C88   H72   S    
O39   Zn7   S    
C104  H92   S    
C117  O45   A    
C62   H34   S    
C122  O50   A    
C25   C41   S    
C18   H10   S    
C28   C44   S    
C35   H27   S    
C106  H94   S    
C62   H146  S    
C33   H25   S    
C1    O13   A    
C3    O15   A    
O7    Zn3   S    
C23   H127  S    
C16   C20   S    
C13   C21   S    
C28   H44   S    
O2    Zn10  S    
C34   C54   S    
C98   H82   S    
C17   C133  S    
O20   Zn12  S    
C59   C63   S    
C61   H33   S    
C129  H73   S    
C41   C69   S    
C9    C133  S    
C14   C130  S    
C104  H104  S    
C43   C71   S    
O31   Zn7   S    
C52   H48   S    
C10   C122  S    
C57   C61   S    
C12   C128  S    
C31   H143  S    
C51   H47   S    
C15   C118  S    
C6    H122  S    
C60   C64   S    
C137  H131  S    
C22   H126  S    
O4    Zn4   S    
O56   C140  S    
C44   C72   S    
C51   C55   S    
C127  C131  S    
O16   Zn8   S    
C125  C129  S    
O5    Zn1   S    
C63   H147  S    
C14   C119  S    
C45   O25   A    
C96   C116  S    
C133  H5    S    
C88   H68   S    
C101  C109  S    
C134  H110  S    
C58   H150  S    
C6    C22   S    
C140  H138  S    
C48   C76   S    
C57   H149  S    
C36   H32   S    
C97   C98   S    
C85   H69   S    
C85   C86   S    
O12   Zn16  S    
C31   C43   S    
C32   C36   S    
C115  O35   A    
O43   Zn15  S    
C49   C53   S    
C20   H116  S    
C42   C70   S    
C79   H59   S    
C64   H148  S    
C5    H117  S    
C85   C93   S    
C132  H108  S    
C81   H77   S    
O48   Zn12  S    
C37   C65   T    
C107  C108  S    
C20   H12   S    
C59   H51   S    
C53   C65   S    
C42   C62   S    
C135  H7    S    
O10   Zn14  S    
O1    Zn1   S    
C50   H46   S    
O1    Zn13  S    
C27   C51   S    
O1    Zn5   S    
C99   H87   S    
C30   C34   S    
C101  H101  S    
C135  H111  S    
C113  O9    A    
C104  C112  S    
C137  H129  S    
C56   C68   S    
C9    C125  S    
O29   Zn5   S    
C8    H124  S    
C11   C127  S    
C5    C9    S    
C97   C109  S    
C83   C84   S    
O46   Zn10  S    
C8    C12   S    
C99   C111  S    
C5    H121  S    
C5    C21   S    
C20   C136  S    
C47   O19   A    
C49   H45   S    
O25   Zn1   S    
C140  H140  S    
C131  H75   S    
C46   O18   A    
O41   Zn13  S    
C124  O44   A    
C13   C120  S    
C26   C42   S    
C36   H28   S    
C108  H96   S    
C30   H142  S    
C113  O33   A    
C106  H98   S    
C29   C41   S    
C107  C111  S    
C33   H29   S    
C34   H26   S    
C2    O14   A    
O49   Zn1   S    
C54   C66   S    
C29   H141  S    
C13   C17   S    
C77   H53   S    
C14   C22   S    
O11   Zn15  S    
C128  H4    S    
C47   C75   S    
C34   H30   S    
C123  O51   A    
O2    Zn14  S    
C19   H115  S    
C32   H144  S    
C7    C23   S    
C98   H86   S    
C17   H113  S    
C8    C24   S    
C18   C134  S    
O3    Zn15  S    
C130  H74   S    
C6    C10   S    
C138  H134  S    
C15   C131  S    
C139  H135  S    
C100  H84   S    
C12   C136  S    
C122  O42   A    
C13   C129  S    
O8    Zn4   S    
C10   C126  S    
O47   Zn11  S    
C133  H109  S    
C58   C62   S    
C87   C88   S    
C88   C96   S    
C101  C102  S    
C98   C110  S    
O45   Zn9   S    
C1    O21   A    
C90   O6    A    
C77   C78   S    
C15   C19   S    
O4    Zn8   S    
C50   C54   S    
O33   Zn9   S    
C27   H43   S    
C81   H61   S    
O22   Zn14  S    
C25   H41   S    
C126  C130  S    
C19   C135  S    
O6    Zn2   S    
C102  H90   S    
C136  H112  S    
C103  C111  S    
C78   H58   S    
O15   Zn7   S    
C105  C109  S    
C92   O8    A    
C132  H76   S    
C69   C73   T    
C85   H65   S    
C51   H15   S    
C119  O47   A    
C127  H39   S    
C120  O48   A    
C105  H97   S    
C80   H60   S    
C87   H67   S    
C27   H19   S    
C128  H40   S    
C25   H17   S    
C21   O53   S    
C53   C57   S    
C92   C112  S    
C29   H21   S    
C125  H1    S    
C19   H11   S    
C56   C60   S    
C105  H93   S    
C64   H36   S    
C17   H9    S    
C79   C95   S    
C48   O28   A    
C11   C135  S    
C134  H6    S    
C63   H35   S    
C138  H132  S    
C139  H137  S    
C52   H16   S    
C93   C113  S    
C22   O54   S    
C99   H83   S    
C100  C112  S    
C118  O46   A    
C54   C58   S    
C97   H81   S    
C102  C110  S    
O17   Zn9   S    
C44   C64   S    
O19   Zn11  S    
C114  O10   A    
C78   C94   S    
O35   Zn11  S    
C7    H119  S    
C11   C123  S    
O24   Zn16  S    
C83   H79   S    
C105  C106  S    
C92   O32   A    
O3    Zn3   S    
O52   Zn4   S    
C136  H8    S    
C16   C117  S    
C89   O29   A    
C3    O23   A    
C129  H105  S    
C24   O56   S    
C91   O31   A    
C36   C56   S    
C8    H120  S    
O36   Zn12  S    
C16   C132  S    
C25   C49   S    
C27   C43   S    
C4    C37   S    
C103  H103  S    
C40   C68   T    
C117  O37   A    
C103  C104  S    
C114  O34   A    
C30   C42   S    
O27   Zn3   S    
C119  O39   A    
O28   Zn4   S    
C120  O40   A    
C59   H151  S    
C61   H145  S    
O55   C139  S    
C130  H106  S    
C14   C18   S    
C78   H54   S    
C72   C76   T    
C125  H37   S    
C86   H70   S    
C81   C82   S    
C94   C114  S    
C84   H64   S    
C7    C11   S    
C4    O24   A    
C89   O5    A    
C123  O43   A    
O38   Zn6   S    
C91   O7    A    
O42   Zn14  S    
C84   C96   S    
C137  H130  S    
C100  H88   S    
C121  O49   A    
C89   C109  S    
O34   Zn10  S    
C6    H118  S    
C45   C73   S    
C46   O26   A    
C91   C111  S    
C124  O52   A    
C86   C94   S    
C1    C40   S    
C82   H78   S    
C2    C39   S    
C38   C66   T    
C3    C38   S    
C95   C115  S    
C35   H31   S    
C80   C96   S    
C2    O22   A    
C15   C23   S    
O4    Zn12  S    
C140  H139  S    
O9    Zn13  S    
C127  H3    S    
C128  C132  S    
O2    Zn6   S    
C33   C53   S    
C102  H102  S    
C45   O17   A    
C35   C55   S    
O51   Zn3   S    
C87   C95   S    
C81   C93   S    
C50   H14   S    
O23   Zn15  S    
C99   C100  S    
C12   C124  S    
C83   C95   S    
C24   H128  S    
C32   C44   S    
O40   Zn8   S    
C87   H71   S    
C21   H125  S    
C138  H133  S    
C139  H136  S    
O4    Zn16  S    
O37   Zn5   S    
C26   H18   S    
C90   C110  S    
C83   H63   S    
C46   C74   S    
C77   C93   S    
C106  C110  S    
C30   H22   S    
C107  H99   S    
C126  H2    S    
O13   Zn5   S    
C39   C67   T    
C23   O55   S    
C10   C134  S    
O44   Zn16  S    
C55   C67   S    
C60   H152  S    
C49   H13   S    
C131  H107  S    
C71   C75   T    
C28   C52   S    
C121  O41   A    
C18   H114  S    
C4    O16   A    
C97   H85   S    
C31   C35   S    
C79   C80   S    
C115  O11   A    
C116  O36   A    
O18   Zn10  S    
C16   C24   S    
O54   C138  S    
O32   Zn8   S    
C28   H20   S    
C31   H23   S    
C52   C56   S    
C32   H24   S    
