data_mof_unit_62302.cif
_audit_creation_date              2012-10-26T17:26:23-0400
_audit_creation_method            fapswitch 2.2
_symmetry_space_group_name_H-M    P1
_symmetry_Int_Tables_number       1
_space_group_crystal_system       triclinic
_cell_length_a                    30.404207
_cell_length_b                    30.404069
_cell_length_c                    18.352457
_cell_angle_alpha                 90.000136
_cell_angle_beta                  89.994402
_cell_angle_gamma                 90.0
_cell_volume                      16965.2241963

loop_
_atom_site_label
_atom_site_type_symbol
_atom_type_description
_atom_site_fract_x
_atom_site_fract_y
_atom_site_fract_z
_atom_type_partial_charge
Br1   Br    Br    0.372729 0.055434 0.630101 -0.464687
Br2   Br    Br    0.444547 0.872769 0.130165 -0.434893
Br3   Br    Br    0.127230 0.444513 0.130102 -0.456585
Br4   Br    Br    0.444567 0.127235 0.130170 -0.454759
Br5   Br    Br    0.127250 0.555488 0.869906 -0.457460
Br6   Br    Br    0.555452 0.872769 0.869835 -0.434895
Br7   Br    Br    0.872772 0.444541 0.869863 -0.456593
Br8   Br    Br    0.555433 0.127234 0.869829 -0.454761
Br9   Br    Br    0.055404 0.372765 0.630186 -0.456717
Br10  Br    Br    0.627195 0.944591 0.630264 -0.428246
Br11  Br    Br    0.944588 0.627235 0.630195 -0.456776
Br12  Br    Br    0.627272 0.055445 0.369915 -0.464684
Br13  Br    Br    0.944596 0.372765 0.369814 -0.456711
Br14  Br    Br    0.372806 0.944602 0.369720 -0.428246
Br15  Br    Br    0.055412 0.627234 0.369805 -0.456781
Br16  Br    Br    0.872751 0.555460 0.130129 -0.457468
C1    C     C_R   0.226018 0.999955 0.499931 0.035091
C2    C     C_R   0.003839 0.202711 0.434279 -0.105644
C3    C     C_R   0.976173 0.656362 0.553405 0.129555
C4    C     C_R   0.656375 0.023831 0.446686 0.127805
C5    C     C_R   0.976176 0.343637 0.446599 0.129666
C6    C     C_R   0.343654 0.976168 0.446519 0.128173
C7    C     C_R   0.023827 0.656362 0.446595 0.129555
C8    C     C_R   0.843632 0.523848 0.053370 0.129653
C9    C     C_R   0.476156 0.843642 0.053388 0.126074
C10   C     C_R   0.156360 0.476141 0.053365 0.129667
C11   C     C_R   0.476164 0.156362 0.053394 0.129412
C12   C     C_R   0.156368 0.523860 0.946646 0.129657
C13   C     C_R   0.797283 0.996152 0.434333 -0.106514
C14   C     C_R   0.523844 0.843641 0.946612 0.126074
C15   C     C_R   0.843641 0.476154 0.946618 0.129663
C16   C     C_R   0.523836 0.156362 0.946606 0.129412
C17   C     C_R   0.366929 0.999999 0.499935 0.041847
C18   C     C_R   1.000000 0.366927 0.500000 0.044188
C19   C     C_R   0.633071 0.999999 0.500065 0.041848
C20   C     C_R   1.000000 0.633073 0.500000 0.044127
C21   C     C_R   0.866927 0.500000 0.999996 0.044226
C22   C     C_R   0.500000 0.866930 0.000000 0.039351
C23   C     C_R   0.133074 0.500000 0.000004 0.044222
C24   C     C_R   0.996163 0.797288 0.434279 -0.105819
C25   C     C_R   0.500000 0.133073 1.000000 0.043790
C26   C     C_R   0.274537 0.999971 0.499917 -0.033047
C27   C     C_R   1.000000 0.274536 0.500000 -0.032526
C28   C     C_R   0.725463 0.999971 0.500083 -0.033044
C29   C     C_R   1.000000 0.725464 0.500000 -0.032663
C30   C     C_R   0.774535 0.500001 0.999990 -0.032475
C31   C     C_R   0.500000 0.774539 0.000000 -0.033521
C32   C     C_R   0.225465 0.500001 0.000010 -0.032475
C33   C     C_R   0.500000 0.225464 1.000000 -0.032542
C34   C     C_R   0.797294 0.003762 0.565784 -0.105159
C35   C     C_R   0.996161 0.202711 0.565721 -0.105643
C36   C     C_R   0.202717 0.996134 0.565664 -0.106514
C37   C     C_R   0.003837 0.797288 0.565720 -0.105819
C38   C     C_R   0.702714 0.503805 0.934267 -0.105611
C39   C     C_R   0.496200 0.702713 0.934276 -0.106067
C40   C     C_R   0.297293 0.496218 0.934282 -0.105878
C41   C     C_R   1.000000 0.226017 0.500000 0.034988
C42   C     C_R   0.496174 0.297288 0.934279 -0.105651
C43   C     C_R   0.297287 0.503781 0.065737 -0.105611
C44   C     C_R   0.503799 0.702713 0.065724 -0.106066
C45   C     C_R   0.702708 0.496194 0.065714 -0.105878
C46   C     C_R   0.503826 0.297288 0.065721 -0.105652
C47   C     C_R   0.156883 0.003722 0.434217 -0.118740
C48   C     C_R   0.003768 0.156888 0.434255 -0.118857
C49   C     C_R   0.843107 0.996237 0.434286 -0.119148
C50   C     C_R   0.996233 0.843112 0.434255 -0.119025
C51   C     C_R   0.843117 0.003703 0.565786 -0.118741
C52   C     C_R   0.773982 0.999955 0.500069 0.035096
C53   C     C_R   0.996232 0.156888 0.565746 -0.118856
C54   C     C_R   0.156894 0.996218 0.565711 -0.119148
C55   C     C_R   0.003767 0.843112 0.565745 -0.119027
C56   C     C_R   0.656890 0.503733 0.934244 -0.118614
C57   C     C_R   0.496272 0.656889 0.934252 -0.119064
C58   C     C_R   0.343116 0.496289 0.934256 -0.119321
C59   C     C_R   0.496245 0.343112 0.934254 -0.118854
C60   C     C_R   0.343110 0.503709 0.065759 -0.118613
C61   C     C_R   0.503728 0.656889 0.065749 -0.119062
C62   C     C_R   0.656884 0.496265 0.065740 -0.119321
C63   C     C_R   1.000000 0.773982 0.500000 0.034979
C64   C     C_R   0.503755 0.343112 0.065745 -0.118856
C65   C     C_R   0.133573 0.999980 0.499976 0.015356
C66   C     C_R   1.000000 0.133573 0.500000 0.015333
C67   C     C_R   0.866427 0.999980 0.500024 0.015355
C68   C     C_R   0.000000 0.866427 0.500000 0.015329
C69   C     C_R   0.633573 0.499999 0.999993 0.015265
C70   C     C_R   0.500000 0.633574 0.000000 0.015316
C71   C     C_R   0.366428 0.499999 0.000007 0.015265
C72   C     C_R   0.500000 0.366427 1.000000 0.015325
C73   C     C_R   0.415055 1.000000 0.499972 0.590407
C74   C     C_R   0.726016 0.500000 0.999990 0.034962
C75   C     C_R   1.000000 0.415055 0.500000 0.591474
C76   C     C_R   0.584944 1.000000 0.500028 0.590403
C77   C     C_R   1.000000 0.584945 0.500000 0.591446
C78   C     C_R   0.915055 0.500000 0.999999 0.591464
C79   C     C_R   0.500000 0.915056 0.000000 0.588464
C80   C     C_R   0.084945 0.500000 0.000001 0.591452
C81   C     C_R   0.500000 0.084945 1.000000 0.591969
C82   C     C_R   0.499986 1.000000 0.360217 0.575730
C83   C     C_R   0.000002 0.500000 0.360218 0.576197
C84   C     C_R   0.500014 0.000000 0.639783 0.575731
C85   C     C_R   0.500000 0.726020 0.000000 0.035205
C86   C     C_R   0.999998 0.500000 0.639782 0.576197
C87   C     C_R   0.999999 0.500000 0.860217 0.576158
C88   C     C_R   0.500005 0.000000 0.860218 0.575640
C89   C     C_R   0.000001 0.500000 0.139783 0.576158
C90   C     C_R   0.499995 1.000000 0.139782 0.575640
C91   C     C_R   1.000000 0.914804 0.500000 0.551912
C92   C     C_R   0.085196 0.999995 0.499995 0.551968
C93   C     C_R   1.000000 0.085195 0.500000 0.552048
C94   C     C_R   0.914804 0.999995 0.500005 0.551971
C95   C     C_R   0.500000 0.414804 1.000000 0.552046
C96   C     C_R   0.273984 0.500000 0.000010 0.034967
C97   C     C_R   0.585195 0.500000 0.999997 0.551981
C98   C     C_R   0.500000 0.585196 0.000000 0.551901
C99   C     C_R   0.414805 0.500000 0.000003 0.551983
C100  C     C_1   0.499975 1.000000 0.282663 0.028640
C101  C     C_1   0.000005 0.500000 0.282663 0.030442
C102  C     C_1   0.500025 0.000000 0.717337 0.028640
C103  C     C_1   0.999995 0.500000 0.717337 0.030442
C104  C     C_1   0.999996 0.500000 0.782663 0.030434
C105  C     C_1   0.500021 0.000000 0.782663 0.028575
C106  C     C_1   0.000004 0.500000 0.217337 0.030434
C107  C     C_R   0.500000 0.273983 1.000000 0.034986
C108  C     C_1   0.499979 1.000000 0.217337 0.028574
C109  C     C_R   0.297772 0.023712 0.552902 -0.087938
C110  C     C_R   0.023723 0.297784 0.552992 -0.086997
C111  C     C_R   0.702201 0.976249 0.553069 -0.088324
C112  C     C_R   0.976274 0.702216 0.552996 -0.087174
C113  C     C_R   0.702227 0.023717 0.447106 -0.087938
C114  C     C_R   0.976276 0.297783 0.447009 -0.086997
C115  C     C_R   0.297799 0.976255 0.446922 -0.088323
C116  C     C_R   0.023726 0.702216 0.447004 -0.087174
C117  C     C_R   0.797779 0.523748 0.052957 -0.087112
C118  C     C_R   0.202707 0.003781 0.434219 -0.105159
C119  C     C_R   0.476256 0.797787 0.052975 -0.089374
C120  C     C_R   0.202213 0.476242 0.052957 -0.086977
C121  C     C_R   0.476265 0.202216 0.052984 -0.087117
C122  C     C_R   0.202221 0.523761 0.947061 -0.087112
C123  C     C_R   0.523744 0.797787 0.947025 -0.089374
C124  C     C_R   0.797787 0.476254 0.947025 -0.086976
C125  C     C_R   0.523735 0.202216 0.947015 -0.087117
C126  C     C_R   0.343625 0.023826 0.553321 0.127804
C127  C     C_R   0.023824 0.343638 0.553401 0.129666
C128  C     C_R   0.656345 0.976164 0.553473 0.128175
Cu1   Cu    Cu3+1 0.500000 0.044060 0.500000 1.112412
Cu2   Cu    Cu3+1 1.000000 0.000000 0.572510 0.954774
Cu3   Cu    Cu3+1 0.500000 0.500000 0.927490 0.954732
Cu4   Cu    Cu3+1 0.500000 0.500000 0.072510 0.954732
Cu5   Cu    Cu3+1 0.955940 0.500000 0.500000 1.110935
Cu6   Cu    Cu3+1 0.500000 0.955940 0.500000 1.102753
Cu7   Cu    Cu3+1 0.044060 0.500000 0.500000 1.110920
Cu8   Cu    Cu3+1 0.000000 0.544060 0.000000 1.110898
Cu9   Cu    Cu3+1 0.455940 0.000000 0.000000 1.107395
Cu10  Cu    Cu3+1 0.000000 0.455940 0.000000 1.111176
Cu11  Cu    Cu3+1 0.544060 0.000000 0.000000 1.107389
Cu12  Cu    Cu3+1 1.000000 0.000000 0.427490 0.954774
H1    H     H_    0.280283 0.042475 0.593858 0.154414
H2    H     H_    0.457478 0.780308 0.093923 0.154924
H3    H     H_    0.219690 0.457453 0.093886 0.154412
H4    H     H_    0.457495 0.219696 0.093942 0.154404
H5    H     H_    0.219704 0.542551 0.906134 0.154084
H6    H     H_    0.542521 0.780308 0.906077 0.154924
H7    H     H_    0.780311 0.457475 0.906082 0.154416
H8    H     H_    0.542504 0.219696 0.906057 0.154404
H9    H     H_    0.219919 0.007377 0.382898 0.126049
H10   H     H_    0.007450 0.219929 0.382968 0.125233
H11   H     H_    0.780063 0.992566 0.383024 0.123200
H12   H     H_    0.042484 0.280304 0.593955 0.154403
H13   H     H_    0.992554 0.780071 0.382968 0.125041
H14   H     H_    0.780081 0.007343 0.617108 0.126044
H15   H     H_    0.992550 0.219929 0.617033 0.125233
H16   H     H_    0.219938 0.992533 0.616971 0.123205
H17   H     H_    0.007446 0.780071 0.617031 0.125040
H18   H     H_    0.719933 0.507390 0.882952 0.125318
H19   H     H_    0.492621 0.719929 0.882960 0.123998
H20   H     H_    0.280078 0.492653 0.882964 0.125088
H21   H     H_    0.492575 0.280071 0.882967 0.125228
H22   H     H_    0.280067 0.507346 0.117056 0.125313
H23   H     H_    0.719670 0.957478 0.594029 0.155015
H24   H     H_    0.507379 0.719930 0.117040 0.123998
H25   H     H_    0.719922 0.492609 0.117028 0.125093
H26   H     H_    0.507425 0.280071 0.117033 0.125228
H27   H     H_    0.139758 0.006871 0.382743 0.139074
H28   H     H_    0.006926 0.139767 0.382775 0.138875
H29   H     H_    0.860223 0.993113 0.382795 0.138370
H30   H     H_    0.993077 0.860232 0.382775 0.138713
H31   H     H_    0.860242 0.006836 0.617262 0.139077
H32   H     H_    0.993074 0.139767 0.617226 0.138876
H33   H     H_    0.139777 0.993078 0.617199 0.138367
H34   H     H_    0.957511 0.719696 0.593962 0.154451
H35   H     H_    0.006923 0.860233 0.617224 0.138712
H36   H     H_    0.639772 0.506863 0.882763 0.139176
H37   H     H_    0.493147 0.639768 0.882769 0.138652
H38   H     H_    0.360238 0.493179 0.882770 0.138593
H39   H     H_    0.493099 0.360232 0.882774 0.138886
H40   H     H_    0.360228 0.506819 0.117244 0.139178
H41   H     H_    0.506853 0.639769 0.117231 0.138653
H42   H     H_    0.639762 0.493134 0.117223 0.138590
H43   H     H_    0.506901 0.360233 0.117225 0.138885
H44   H     H_    0.719716 0.042485 0.406158 0.154409
H45   H     H_    0.957516 0.280304 0.406046 0.154403
H46   H     H_    0.280329 0.957488 0.405955 0.155020
H47   H     H_    0.042489 0.719696 0.406037 0.154451
H48   H     H_    0.780296 0.542528 0.093898 0.154087
O1    O     O_R   0.435730 0.037210 0.500000 -0.479287
O2    O     O_R   0.462790 0.935730 0.000000 -0.482456
O3    O     O_R   0.064270 0.462790 0.000000 -0.480864
O4    O     O_R   0.537210 0.064270 0.000000 -0.480516
O5    O     O_R   0.064270 0.537210 0.000000 -0.480874
O6    O     O_R   0.537210 0.935730 0.000000 -0.482457
O7    O     O_R   0.935730 0.462790 0.000000 -0.480872
O8    O     O_R   0.462790 0.064270 0.000000 -0.480514
O9    O     O_R   0.500010 0.037210 0.394200 -0.488047
O10   O     O_R   0.962790 0.500010 0.394200 -0.489102
O11   O     O_R   0.499990 0.962790 0.394200 -0.490736
O12   O     O_R   0.962790 0.435730 0.500000 -0.480872
O13   O     O_R   0.037210 0.499990 0.394200 -0.489030
O14   O     O_R   0.499990 0.037210 0.605800 -0.488048
O15   O     O_R   0.037210 0.500010 0.605800 -0.489108
O16   O     O_R   0.500010 0.962790 0.605800 -0.490734
O17   O     O_R   0.962790 0.499990 0.605800 -0.489023
O18   O     O_R   0.000010 0.537210 0.894200 -0.489071
O19   O     O_R   0.462790 0.000010 0.894200 -0.511714
O20   O     O_R   0.999990 0.462790 0.894200 -0.489026
O21   O     O_R   0.537210 0.999990 0.894200 -0.467097
O22   O     O_R   0.999990 0.537210 0.105800 -0.489075
O23   O     O_R   0.564270 0.962790 0.500000 -0.483553
O24   O     O_R   0.537210 0.000010 0.105800 -0.511717
O25   O     O_R   0.000010 0.462790 0.105800 -0.489023
O26   O     O_R   0.462790 0.999990 0.105800 -0.467094
O27   O     O_R   0.999990 0.935750 0.438770 -0.510671
O28   O     O_R   0.064250 0.999990 0.438770 -0.510531
O29   O     O_R   0.000010 0.064250 0.438770 -0.510590
O30   O     O_R   0.935750 0.000010 0.438770 -0.510737
O31   O     O_R   0.000010 0.935750 0.561230 -0.510675
O32   O     O_R   0.935750 0.999990 0.561230 -0.510533
O33   O     O_R   0.999990 0.064250 0.561230 -0.510587
O34   O     O_R   0.037210 0.564270 0.500000 -0.480934
O35   O     O_R   0.064250 0.000010 0.561230 -0.510736
O36   O     O_R   0.499990 0.435750 0.938770 -0.510578
O37   O     O_R   0.564250 0.499990 0.938770 -0.509985
O38   O     O_R   0.500010 0.564250 0.938770 -0.510699
O39   O     O_R   0.435750 0.500010 0.938770 -0.511293
O40   O     O_R   0.500010 0.435750 0.061230 -0.510582
O41   O     O_R   0.435750 0.499990 0.061230 -0.509987
O42   O     O_R   0.499990 0.564250 0.061230 -0.510695
O43   O     O_R   0.564250 0.500010 0.061230 -0.511292
O44   O     O_R   0.564270 0.037210 0.500000 -0.479283
O45   O     O_R   0.037210 0.435730 0.500000 -0.480873
O46   O     O_R   0.435730 0.962790 0.500000 -0.483556
O47   O     O_R   0.962790 0.564270 0.500000 -0.480933
O48   O     O_R   0.935730 0.537210 0.000000 -0.480881

loop_
_geom_bond_atom_site_label_1
_geom_bond_atom_site_label_2
_ccdc_geom_bond_type
C8    C117  A    
Cu5   O47   S    
Cu7   O34   S    
C82   O11   A    
C58   H38   S    
C28   C111  A    
C51   C67   A    
C95   O40   A    
C31   C85   S    
C81   O8    A    
Cu8   O18   S    
C6    C115  A    
C94   O32   A    
C3    C112  A    
C87   C104  S    
Cu3   Cu4   S    
C4    C113  A    
Cu8   O5    S    
C36   H16   S    
Cu1   O1    S    
C56   C69   A    
Br9   C127  S    
C37   H17   S    
C88   O21   A    
Cu7   O45   S    
Cu3   O36   S    
C124  H7    S    
C23   C80   S    
C40   C58   A    
Br11  C3    S    
C42   C107  A    
C75   O12   A    
C47   C65   A    
C46   C64   A    
C37   C63   A    
C38   C74   A    
C113  H44   S    
C110  H12   S    
C3    C20   A    
Cu5   Cu7   S    
C87   O18   A    
C75   O45   A    
C9    C22   A    
C109  H1    S    
C10   C23   A    
C49   C67   A    
C46   H26   S    
C99   O41   A    
Cu3   O37   S    
C29   C112  A    
Br5   C12   S    
C110  C127  A    
C68   C91   S    
C14   C22   A    
C54   C65   A    
C115  H46   S    
Cu12  O28   S    
C1    C26   S    
C24   H13   S    
C25   C81   S    
Br1   C126  S    
C60   H40   S    
C26   C109  A    
C57   H37   S    
Cu5   O10   S    
C4    C19   A    
C20   C77   S    
C5    C18   A    
C73   O1    A    
Cu1   O14   S    
C83   O13   A    
C76   O23   A    
Cu12  O30   S    
C33   C125  A    
C22   C79   S    
C7    C116  A    
C16   C25   A    
Cu7   O13   S    
C26   C115  A    
C35   C41   A    
C58   C71   A    
Cu9   Cu11  S    
C34   C51   A    
Cu12  O29   S    
C88   O19   A    
C71   C99   S    
Cu1   Cu6   S    
C121  H4    S    
C59   H39   S    
C19   C128  A    
C48   H28   S    
C27   C110  A    
C19   C76   S    
C79   O2    A    
Br15  C7    S    
C65   C92   S    
C84   O14   A    
C78   O7    A    
Br16  C8    S    
C119  H2    S    
C24   C50   A    
C72   C95   S    
C84   C102  S    
Cu5   O17   S    
C1    C36   A    
C54   H33   S    
C46   C107  A    
Cu3   O38   S    
C51   H31   S    
C42   C59   A    
Cu6   O46   S    
Cu2   O32   S    
C27   C114  A    
C76   O44   A    
C44   C61   A    
C49   H29   S    
C18   C127  A    
C67   C94   S    
C47   H27   S    
C91   O27   A    
Br8   C16   S    
C47   C118  A    
C13   H11   S    
Br7   C15   S    
C34   H14   S    
Cu11  O4    S    
C73   O46   A    
C123  H6    S    
C40   H20   S    
C80   O3    A    
C88   C105  S    
C2    H10   S    
C28   C113  A    
C97   O43   A    
C64   H43   S    
C120  H3    S    
C90   O26   A    
C56   H36   S    
C102  C105  T    
C89   O25   A    
C18   C75   S    
C55   C68   A    
C99   O39   A    
C101  C106  T    
C66   C93   S    
Cu10  O7    S    
C17   C73   S    
C87   O20   A    
C83   C101  S    
C13   C52   A    
C11   C25   A    
C2    C41   A    
C82   C100  S    
C36   C54   A    
C53   H32   S    
C92   O35   A    
Cu3   O39   S    
C77   O34   A    
C39   H19   S    
Br12  C4    S    
C43   H22   S    
Cu4   O42   S    
C43   C96   A    
Cu8   O22   S    
C24   C63   A    
Br13  C5    S    
Cu11  O24   S    
C29   C63   S    
Br10  C128  S    
Cu6   O11   S    
Cu6   O23   S    
C5    C114  A    
C60   C71   A    
C48   C66   A    
C16   C125  A    
C114  H45   S    
C77   O47   A    
C86   O15   A    
C125  H8    S    
C13   C49   A    
C62   C69   A    
Br6   C14   S    
C82   O9    A    
Cu8   Cu10  S    
C61   C70   A    
C97   O37   A    
C21   C78   S    
C50   H30   S    
Cu10  O25   S    
Cu1   O9    S    
Cu9   O26   S    
C28   C52   S    
C109  C126  A    
C89   O22   A    
C118  H9    S    
C90   C108  S    
C44   C85   A    
C37   C55   A    
C12   C122  A    
Cu8   O48   S    
Br4   C11   S    
C45   C74   A    
C30   C124  A    
C33   C121  A    
C92   O28   A    
C8    C21   A    
C6    C17   A    
C91   O31   A    
C14   C123  A    
Cu11  O21   S    
C116  H47   S    
C80   O5    A    
C100  C108  T    
Cu1   O44   S    
C31   C119  A    
C79   O6    A    
C32   C120  A    
Br3   C10   S    
Cu10  O3    S    
C78   O48   A    
Cu9   O8    S    
C103  C104  T    
C98   O38   A    
Cu9   O19   S    
C30   C74   S    
C83   O10   A    
C93   O33   A    
C17   C126  A    
C44   H24   S    
C62   H42   S    
C39   C85   A    
C45   H25   S    
C95   O36   A    
C12   C23   A    
C32   C122  A    
C70   C98   S    
C111  H23   S    
Br14  C6    S    
C69   C97   S    
Cu5   O12   S    
C64   C72   A    
Cu2   O31   S    
Cu2   O33   S    
C122  H5    S    
Cu12  O27   S    
C2    C48   A    
Br2   C9    S    
C98   O42   A    
C112  H34   S    
C61   H41   S    
Cu11  O6    S    
C117  H48   S    
C38   H18   S    
C90   O24   A    
C35   H15   S    
Cu4   O41   S    
C11   C121  A    
C89   C106  S    
C53   C66   A    
C42   H21   S    
Cu7   O15   S    
C111  C128  A    
Cu4   O43   S    
C81   O4    A    
Cu10  O20   S    
C9    C119  A    
C57   C70   A    
C45   C62   A    
C10   C120  A    
C27   C41   S    
C50   C68   A    
Cu9   O2    S    
C39   C57   A    
C15   C21   A    
C59   C72   A    
C38   C56   A    
Cu2   O35   S    
C84   O16   A    
C29   C116  A    
C7    C20   A    
C31   C123  A    
C1    C118  A    
Cu4   O40   S    
Cu6   O16   S    
C32   C96   S    
C35   C53   A    
Cu2   Cu12  S    
C55   H35   S    
C15   C124  A    
C34   C52   A    
C43   C60   A    
C40   C96   A    
C86   C103  S    
C94   O30   A    
C86   O17   A    
C93   O29   A    
C30   C117  A    
C33   C107  S    
