data_mof_unit_41223.cif
_audit_creation_date              2013-03-05T15:50:59-0500
_audit_creation_method            fapswitch 2.2
_symmetry_space_group_name_H-M    P1
_symmetry_Int_Tables_number       1
_space_group_crystal_system       triclinic
_cell_length_a                    6.931551
_cell_length_b                    17.680034
_cell_length_c                    19.290695
_cell_angle_alpha                 109.418874
_cell_angle_beta                  90.087891
_cell_angle_gamma                 89.913947
_cell_volume                      2229.58718891

loop_
_atom_site_label
_atom_site_type_symbol
_atom_site_description
_atom_site_fract_x
_atom_site_fract_y
_atom_site_fract_z
_atom_type_partial_charge
O1    O     O_R   0.505810 0.439670 0.562310 -0.564019
O2    O     O_R   0.169070 0.404920 0.411210 -0.592581
O3    O     O_R   0.005550 0.560330 0.437690 -0.578254
C1    C     C_R   0.339128 0.382874 0.382476 1.127144
O4    O     O_R   0.175650 0.430000 0.560110 -0.581761
O5    O     O_R   0.012170 0.585580 0.587650 -0.607345
C2    C     C_R   0.345094 0.412962 0.579829 1.018363
O6    O     O_R   0.499180 0.414420 0.412350 -0.579052
O7    O     O_3   0.341430 0.551020 0.508860 -0.278230
V1    V     V_3+5 0.063930 0.490540 0.498360 1.301979
O8    O     O_R   0.682850 0.595080 0.588790 -0.597828
C3    C     C_R   0.851936 0.618688 0.616504 1.053899
O9    O     O_R   0.676280 0.570000 0.439890 -0.559920
C4    C     C_R   0.844874 0.585548 0.418936 1.037689
V2    V     V_3+5 0.564760 0.509460 0.501640 1.318873
O10   O     O_3   0.837130 0.448980 0.491140 -0.262516
C5    C     C_R   0.773067 0.886191 0.189021 0.406893
C6    C     C_R   0.913103 0.866598 0.132491 -0.421159
C7    C     C_R   0.038413 0.801083 0.123826 0.326039
C8    C     C_R   0.012741 0.750356 0.166667 -0.103828
C9    C     C_R   0.876392 0.771821 0.225227 0.050736
C10   C     C_R   0.753682 0.839332 0.236203 -0.149544
C11   C     C_R   0.119723 0.678130 0.152611 0.320913
C12   C     C_R   0.111423 0.635834 0.201668 -0.169499
C13   C     C_R   0.988618 0.659123 0.262541 -0.003160
C14   C     C_R   0.864281 0.725536 0.273143 -0.007528
C15   C     C_R   0.729727 0.745714 0.331744 -0.128585
C16   C     C_R   0.599218 0.809596 0.339126 0.265544
C17   C     C_R   0.613170 0.856703 0.293248 0.196918
C18   C     C_R   0.982630 0.614057 0.310536 0.357750
C19   C     C_R   0.854111 0.635332 0.370341 -0.463209
C20   C     C_R   0.732620 0.703149 0.382740 0.568025
H1    H     H_    0.196479 0.581540 0.189231 0.212259
C21   C     C_3   0.715838 0.779772 0.773794 0.457249
C22   C     C_3   0.790459 0.775969 0.697228 -0.314159
H2    H     H_    0.708957 0.795592 0.656607 0.185252
C23   C     C_3   0.865674 0.689868 0.685777 -0.280247
C24   C     C_3   0.789264 0.694936 0.761874 0.422848
C25   C     C_3   0.981699 0.729107 0.796540 0.191259
C26   C     C_3   0.062187 0.724482 0.720754 -0.198971
C27   C     C_3   0.986307 0.811285 0.733849 -0.063509
C28   C     C_3   0.908111 0.814791 0.810474 -0.366216
H3    H     H_    0.206359 0.700813 0.699096 0.180664
H4    H     H_    0.066848 0.858284 0.720112 0.233903
C29   C     C_3   0.452345 0.233198 0.307175 0.464781
C30   C     C_3   0.290494 0.187931 0.256121 0.276734
C31   C     C_3   0.412872 0.186272 0.188431 -0.446581
C32   C     C_3   0.578016 0.232070 0.240184 -0.314805
C33   C     C_3   0.480655 0.312331 0.243937 0.282039
C34   C     C_3   0.319110 0.266906 0.192812 0.293901
C35   C     C_3   0.193299 0.268158 0.259832 -0.329510
C36   C     C_3   0.358370 0.313764 0.311567 -0.370857
H5    H     H_    0.734003 0.217584 0.233463 0.200040
H6    H     H_    0.037309 0.282586 0.266824 0.208904
C37   C     C_R   0.300245 0.102395 0.801694 0.408706
C38   C     C_R   0.414176 0.130052 0.865673 -0.331224
C39   C     C_R   0.511899 0.202508 0.881625 -0.131433
C40   C     C_R   0.491629 0.250931 0.836949 -0.012747
C41   C     C_R   0.382141 0.222871 0.771087 -0.033067
C42   C     C_R   0.284516 0.148050 0.753066 -0.096201
C43   C     C_R   0.581953 0.326667 0.856990 0.329757
C44   C     C_R   0.576852 0.372033 0.809135 0.500994
C45   C     C_R   0.470322 0.344138 0.742276 -0.152990
C46   C     C_R   0.371837 0.269420 0.723401 -0.113071
C47   C     C_R   0.264577 0.240980 0.656688 -0.075412
C48   C     C_R   0.163523 0.167139 0.640066 0.198389
C49   C     C_R   0.173548 0.120987 0.687569 0.399799
C50   C     C_R   0.456286 0.390199 0.694462 0.377606
C51   C     C_R   0.355906 0.361538 0.627536 -0.503725
C52   C     C_R   0.264545 0.285839 0.607265 0.563579
H7    H     H_    0.602431 0.220826 0.930132 0.183292
O11   O     O_R   0.271890 0.085690 0.087580 -0.596135
O12   O     O_R   0.595690 0.070020 0.939870 -0.597936
O13   O     O_R   0.758900 0.914390 0.912370 -0.569015
C53   C     C_R   0.426455 0.083986 0.917473 1.047953
O14   O     O_R   0.602020 0.095100 0.088770 -0.590494
O15   O     O_R   0.765280 0.939660 0.062330 -0.581971
C54   C     C_R   0.432000 0.117055 0.117575 1.146189
O16   O     O_R   0.265520 0.060430 0.937620 -0.582872
O17   O     O_3   0.429560 0.949050 0.991100 -0.230918
V3    V     V_3+5 0.707160 0.009450 0.001650 1.330045
O18   O     O_R   0.094540 0.929890 0.060190 -0.543309
C55   C     C_R   0.925852 0.915472 0.082443 1.081410
O19   O     O_R   0.088200 0.904800 0.911290 -0.562309
C56   C     C_R   0.919714 0.883062 0.882181 1.081974
V4    V     V_3+5 0.206300 0.990390 0.998440 1.379305
O20   O     O_3   0.934030 0.050940 0.008900 -0.289463
N1    N     N_R   0.660531 0.957490 0.200920 0.241867
O21   O     O_R   0.492761 0.952899 0.169561 -0.315053
O22   O     O_R   0.740131 0.027399 0.230891 -0.359733
O23   O     O_3   0.534195 0.808255 0.802142 -0.658831
H8    H     H_    0.447710 0.797268 0.759045 0.333790
O24   O     O_3   0.685057 0.636946 0.779866 -0.594722
H9    H     H_    0.649048 0.661920 0.832264 0.382961
N2    N     N_R   0.091387 0.700727 0.847394 0.276692
O25   O     O_R   0.020995 0.645440 0.870731 -0.260807
O26   O     O_R   0.271115 0.721483 0.860367 -0.277339
N3    N     N_R   0.185411 0.122031 0.268101 0.272036
O27   O     O_R   0.096029 0.133609 0.330001 -0.264455
O28   O     O_R   0.172901 0.052784 0.216529 -0.322363
O29   O     O_3   0.519006 0.214897 0.368197 -0.683925
H10   H     H_    0.574720 0.160292 0.348063 0.395662
N4    N     N_R   0.585652 0.378851 0.233006 0.269985
O30   O     O_R   0.677600 0.368157 0.171802 -0.266737
O31   O     O_R   0.596370 0.447774 0.285110 -0.336952
N5    N     N_R   0.249428 0.286090 0.129322 0.261471
O32   O     O_R   0.069688 0.305394 0.125505 -0.293051
O33   O     O_R   0.364542 0.280319 0.074632 -0.394143
N6    N     N_R   0.198826 0.789117 0.074474 0.263931
O34   O     O_R   0.169636 0.772998 0.004550 -0.308605
O35   O     O_R   0.374499 0.792952 0.099238 -0.335449
N7    N     N_R   0.211205 0.025374 0.784942 0.255190
O36   O     O_R   0.030074 0.020658 0.800684 -0.387954
O37   O     O_R   0.319521 0.961753 0.769175 -0.417466
O38   O     O_3   0.675673 0.358426 0.923620 -0.702357
H11   H     H_    0.592229 0.350250 0.962184 0.370870
O39   O     O_3   0.672048 0.444913 0.827655 -0.641421
H12   H     H_    0.752081 0.454172 0.872199 0.399028
N8    N     N_R   0.533152 0.469412 0.715082 0.287363
O40   O     O_R   0.711567 0.479301 0.698993 -0.309392
O41   O     O_R   0.413931 0.529709 0.731710 -0.318514
O42   O     O_3   0.178307 0.253898 0.538961 -0.643899
H13   H     H_    0.234517 0.277877 0.503956 0.325608
N9    N     N_R   0.047790 0.138130 0.574925 0.274198
O43   O     O_R   0.108422 0.078525 0.519074 -0.237774
O44   O     O_R   0.873951 0.165817 0.574405 -0.322895
O45   O     O_3   0.076944 0.048557 0.670511 -0.667151
H14   H     H_    0.978681 0.043143 0.632008 0.365756
N10   N     N_R   0.222435 0.641545 0.085204 0.266336
O46   O     O_R   0.128668 0.620322 0.023224 -0.262846
O47   O     O_R   0.395743 0.613706 0.086732 -0.311000
N11   N     N_R   0.109694 0.546834 0.298922 0.233292
O48   O     O_R   0.041435 0.474211 0.278315 -0.344288
O49   O     O_R   0.293377 0.558790 0.311576 -0.342366
O50   O     O_3   0.623916 0.731398 0.446248 -0.675495
H15   H     H_    0.690342 0.718714 0.486534 0.292970
N12   N     N_R   0.443544 0.825493 0.391016 0.293221
O51   O     O_R   0.302007 0.774677 0.380943 -0.344016
O52   O     O_R   0.435110 0.893397 0.444810 -0.256149
N13   N     N_R   0.476564 0.920572 0.304516 0.282863
O53   O     O_R   0.518588 0.991744 0.349374 -0.246343
O54   O     O_R   0.298641 0.903899 0.283385 -0.304034

loop_
_geom_bond_atom_site_label_1
_geom_bond_atom_site_label_2
_geom_bond_distance
_ccdc_geom_bond_type
C9    C14   1.426351 A    
O29   H10   0.990989 S    
C10   C17   1.425335 A    
C37   N7    1.431434 S    
C5    N1    1.433664 S    
C27   C28   1.556904 S    
N2    O25   1.300348 A    
C21   C28   1.538993 S    
C4    C19   1.485465 S    
C1    O6    1.288461 A    
N7    O37   1.300816 A    
O50   H15   0.990318 S    
C29   C30   1.531108 S    
N12   O52   1.301211 A    
C41   C46   1.425358 A    
O24   H9    0.991270 S    
C1    C36   1.506844 S    
C9    C10   1.422130 A    
C16   C17   1.406009 A    
C22   C23   1.553149 S    
O14   C54   1.305954 A    
C6    C7    1.411640 A    
C23   C26   1.552520 S    
N6    O35   1.300961 A    
C50   N8    1.426396 S    
O5    C3    1.292025 A    
C18   C19   1.406993 A    
C37   C38   1.408150 A    
N5    O32   1.299715 A    
O15   C55   1.296071 A    
O38   H11   0.990928 S    
N3    O27   1.300369 A    
C38   C39   1.390823 A    
C11   N10   1.434686 S    
C5    C6    1.415066 A    
C21   C22   1.545898 S    
C3    C23   1.503426 S    
C21   O23   1.398207 S    
C44   O39   1.385297 S    
O17   V4    1.696344 S    
N4    O30   1.299795 A    
C30   C31   1.550275 S    
O8    V2    2.023650 S    
C26   H3    1.110005 S    
C7    C8    1.418739 A    
C42   C49   1.418839 A    
N11   O48   1.300897 A    
C43   O38   1.381303 S    
O11   C54   1.288610 A    
C11   C12   1.388853 A    
O1    V2    2.005601 S    
C25   C28   1.534493 S    
O7    V1    2.178359 S    
C40   C43   1.411377 A    
C7    N6    1.433901 S    
C48   C49   1.416751 A    
C30   N3    1.457242 S    
C41   C42   1.422962 A    
C38   C53   1.486539 S    
O1    C2    1.298868 A    
O9    C4    1.296501 A    
O12   C53   1.300851 A    
C51   C52   1.413844 A    
O12   V3    2.001860 S    
N7    O36   1.301460 A    
C34   C35   1.554623 S    
C31   C34   1.542454 S    
N8    O41   1.301178 A    
N13   O53   1.301273 A    
C32   H5    1.108599 S    
V2    O10   2.144723 S    
C35   C36   1.555478 S    
C12   C13   1.397704 A    
O23   H8    0.989805 S    
O4    C2    1.299493 A    
V4    O20   2.144746 S    
C50   C51   1.403914 A    
C29   C36   1.541940 S    
C13   C14   1.414617 A    
O18   V4    2.003939 S    
C30   C35   1.549412 S    
C39   H7    1.082396 S    
C22   H2    1.110130 S    
O2    C1    1.305999 A    
C33   N4    1.457816 S    
C23   C24   1.535670 S    
C49   O45   1.384995 S    
C52   O42   1.384272 S    
C31   C32   1.557064 S    
C8    C11   1.421821 A    
O15   V3    2.003113 S    
N8    O40   1.301615 A    
C33   C36   1.550009 S    
C8    C9    1.424966 A    
C44   C45   1.423790 A    
C6    C55   1.497259 S    
C14   C15   1.417442 A    
N4    O31   1.298566 A    
C28   C56   1.505524 S    
O19   C56   1.297222 A    
C25   N2    1.454675 S    
V3    O20   1.721966 S    
O3    C4    1.294066 A    
C29   O29   1.398228 S    
C32   C33   1.550241 S    
N1    O22   1.300876 A    
O18   C55   1.300638 A    
O6    V2    2.018001 S    
N3    O28   1.298582 A    
O9    V2    2.003813 S    
C27   H4    1.104828 S    
C48   N9    1.433616 S    
O13   V3    1.998711 S    
O45   H14   0.987989 S    
O2    V1    1.989273 S    
C25   C26   1.542136 S    
N9    O44   1.301200 A    
N10   O46   1.301080 A    
C29   C32   1.554189 S    
C13   C18   1.408732 A    
C17   N13   1.432898 S    
C45   C50   1.422108 A    
C26   C27   1.560740 S    
C15   C20   1.423601 A    
C21   C24   1.526550 S    
C19   C20   1.418059 A    
C16   N12   1.435517 S    
C12   H1    1.082674 S    
O19   V4    2.023427 S    
O17   V3    2.178251 S    
O14   V3    1.989184 S    
O5    V1    1.998652 S    
C20   O50   1.383089 S    
O11   V4    2.018883 S    
O8    C3    1.298018 A    
N2    O26   1.299480 A    
N13   O54   1.301417 A    
N12   O51   1.301309 A    
C5    C10   1.426514 A    
C35   H6    1.108655 S    
C46   C47   1.424667 A    
C2    C51   1.495025 S    
C40   C41   1.419643 A    
O4    V1    2.001690 S    
O3    V1    2.003321 S    
V1    O10   1.722056 S    
O39   H12   0.989042 S    
C39   C40   1.409001 A    
C24   C25   1.523963 S    
N5    O33   1.300338 A    
C18   N11   1.434882 S    
C24   O24   1.390320 S    
C47   C48   1.421799 A    
O13   C56   1.293875 A    
O7    V2    1.698493 S    
C43   C44   1.410300 A    
C22   C27   1.561445 S    
C45   C46   1.423304 A    
N1    O21   1.300139 A    
N11   O49   1.300333 A    
C33   C34   1.531066 S    
N6    O34   1.298218 A    
C15   C16   1.415851 A    
C34   N5    1.456806 S    
C31   C54   1.507085 S    
O42   H13   0.989542 S    
C37   C42   1.430499 A    
C53   O16   1.295863 A    
O16   V4    2.011844 S    
C47   C52   1.428576 A    
N9    O43   1.301180 A    
N10   O47   1.301533 A    
