data_mof_unit_42506.cif
_audit_creation_date              2012-12-11T14:08:10-0500
_audit_creation_method            fapswitch 2.2
_symmetry_space_group_name_H-M    P1
_symmetry_Int_Tables_number       1
_space_group_crystal_system       triclinic
_cell_length_a                    10.902996
_cell_length_b                    10.982229
_cell_length_c                    18.716691
_cell_angle_alpha                 90.599725
_cell_angle_beta                  89.740754
_cell_angle_gamma                 60.053249
_cell_volume                      1941.67948441

loop_
_atom_site_label
_atom_site_type_symbol
_atom_type_description
_atom_site_fract_x
_atom_site_fract_y
_atom_site_fract_z
_atom_type_partial_charge
C1    C     C_R   0.236224 0.646004 0.608731 0.546432
C2    C     C_3   0.728886 0.505460 0.799914 -0.124733
C3    C     C_3   0.687758 0.662181 0.817840 0.090000
C4    C     C_3   0.660668 0.636410 0.681145 0.029501
C5    C     C_3   0.773280 0.679134 0.693011 -0.256193
C6    C     C_3   0.705281 0.495031 0.719375 -0.204959
C7    C     C_2   0.674934 0.148770 0.668343 0.000137
C8    C     C_2   0.690695 0.169506 0.829394 -0.124533
C9    C     C_2   0.800567 0.112873 0.783013 -0.176733
C10   C     C_2   0.780094 0.147898 0.706580 -0.156811
C11   C     C_2   0.179544 0.664484 0.681157 -0.123660
C12   C     C_R   0.648787 0.615868 0.604589 0.553549
C13   C     C_2   0.193080 0.662598 0.838660 -0.123663
C14   C     C_2   0.187120 0.563746 0.798629 -0.181050
C15   C     C_2   0.215929 0.551206 0.721696 -0.180414
C16   C     C_2   0.590945 0.584614 0.313315 -0.115026
C17   C     C_2   0.635664 0.672367 0.164177 0.005015
C18   C     C_2   0.694104 0.541295 0.191503 -0.135370
C19   C     C_2   0.699109 0.511013 0.268273 -0.160005
C20   C     C_2   0.633598 0.197339 0.318353 -0.093883
C21   C     C_2   0.635520 0.202966 0.163942 -0.110923
C22   C     C_2   0.521613 0.229329 0.201858 -0.169541
C23   C     C_R   0.628144 0.227046 0.601633 0.561838
C24   C     C_2   0.516537 0.256964 0.277628 -0.153382
C25   C     C_2   0.124086 0.679873 0.344352 -0.104090
C26   C     C_2   0.115013 0.691070 0.190236 -0.091045
C27   C     C_2   0.044547 0.803816 0.234111 -0.149611
C28   C     C_2   0.077068 0.798918 0.309181 -0.169159
C29   C     C_R   0.703089 0.103319 0.898130 0.543724
C30   C     C_R   0.715337 0.681854 0.892683 0.539712
C31   C     C_R   0.118899 0.706229 0.907257 0.549345
C32   C     C_R   0.672473 0.114744 0.101204 0.553381
C33   C     C_R   0.692512 0.690372 0.096163 0.560822
C34   C     C_R   0.216293 0.650875 0.404283 0.543821
C35   C     C_R   0.086714 0.713500 0.115138 0.553807
C36   C     C_R   0.609031 0.579495 0.390483 0.588745
C37   C     C_R   0.614680 0.233281 0.393295 0.547771
C38   C     C_3   0.526588 0.756259 0.795641 -0.134256
C39   C     C_3   0.517146 0.750203 0.713676 -0.215952
C40   C     C_3   0.783189 0.702147 0.772846 -0.205180
Cr1   Cr    Cr6+3 0.393010 0.398050 0.501480 1.010191
Cr2   Cr    Cr6+3 0.398820 0.707980 0.501630 1.011967
Cr3   Cr    Cr6+3 0.708140 0.393940 0.496850 1.005858
Cr4   Cr    Cr6+3 0.937950 0.938450 0.008940 1.009095
Cr5   Cr    Cr6+3 0.626180 0.937030 0.994750 0.998190
Cr6   Cr    Cr6+3 0.937790 0.625760 0.001410 1.007193
H1    H     H_    0.803663 0.410175 0.693887 0.149614
H2    H     H_    0.895802 0.640187 0.788578 0.136822
H3    H     H_    0.878033 0.595143 0.672412 0.137398
H4    H     H_    0.906084 0.036145 0.800392 0.147263
H5    H     H_    0.849395 0.180445 0.682274 0.126977
H6    H     H_    0.585639 0.246197 0.811410 0.109902
H7    H     H_    0.154049 0.494125 0.821561 0.145182
H8    H     H_    0.268132 0.446009 0.698365 0.155429
H9    H     H_    0.231985 0.727685 0.815864 0.097278
H10   H     H_    0.467687 0.706943 0.818604 0.114027
H11   H     H_    0.124798 0.769826 0.704352 0.104494
H12   H     H_    0.768600 0.452391 0.158699 0.132984
H13   H     H_    0.800539 0.430917 0.288521 0.150545
H14   H     H_    0.485784 0.654347 0.293685 0.109477
H15   H     H_    0.438050 0.214316 0.179706 0.151529
H16   H     H_    0.411495 0.321199 0.300955 0.155868
H17   H     H_    0.714918 0.224977 0.185671 0.099788
H18   H     H_    0.739586 0.132904 0.296351 0.085897
H19   H     H_    0.971873 0.907077 0.213112 0.153333
H20   H     H_    0.431729 0.726526 0.700305 0.134876
H21   H     H_    0.079825 0.888691 0.332314 0.153331
H22   H     H_    0.189045 0.586538 0.208993 0.083779
H23   H     H_    0.112648 0.593905 0.322572 0.109771
H24   H     H_    0.488273 0.853187 0.689385 0.134141
H25   H     H_    0.753351 0.812475 0.783992 0.120074
H26   H     H_    0.746209 0.776658 0.663631 0.113791
H27   H     H_    0.654987 0.481525 0.829792 0.117253
H28   H     H_    0.622033 0.465519 0.712062 0.109961
O1    O     O_R   0.507110 0.256280 0.580300 -0.515254
O2    O     O_R   0.524640 0.695370 0.425100 -0.492565
O3    O     O_R   0.735890 0.504390 0.415980 -0.509006
O4    O     O_R   0.690560 0.277820 0.422350 -0.518826
O5    O     O_3   0.499990 0.499990 0.499980 -0.280924
O6    O     O_R   0.089190 0.825870 0.932320 -0.521258
O7    O     O_R   0.819070 0.053960 0.931440 -0.496756
O8    O     O_R   0.607070 0.076440 0.916460 -0.526455
O9    O     O_R   0.647110 0.806550 0.917690 -0.511436
O10   O     O_R   0.837080 0.593860 0.915300 -0.532911
O11   O     O_R   0.064770 0.636080 0.932550 -0.498019
O12   O     O_R   0.280830 0.527190 0.577940 -0.495339
O13   O     O_R   0.068250 0.829200 0.092940 -0.516902
O14   O     O_R   0.799650 0.057040 0.080330 -0.509003
O15   O     O_R   0.586130 0.079760 0.077080 -0.517424
O16   O     O_R   0.627700 0.809630 0.066580 -0.502529
O17   O     O_R   0.816140 0.597180 0.075920 -0.521363
O18   O     O_R   0.045360 0.639170 0.081440 -0.494046
O19   O     O_3   0.833980 0.833750 0.001700 -0.242129
O20   O     O_R   0.261360 0.738990 0.584270 -0.522890
O21   O     O_R   0.532590 0.694780 0.574370 -0.504700
O22   O     O_R   0.744470 0.503750 0.577000 -0.526153
O23   O     O_R   0.698520 0.277230 0.571620 -0.511369
O24   O     O_R   0.498530 0.256920 0.419280 -0.511133
O25   O     O_R   0.272880 0.527780 0.428680 -0.509214
O26   O     O_R   0.252780 0.739630 0.423250 -0.522442
C41   C     C_3   0.442455 0.911279 0.821202 -0.388758
H29   H     H_    0.504607 0.964865 0.814304 0.167924
H30   H     H_    0.342778 0.969555 0.790679 0.105784
H31   H     H_    0.408733 0.918798 0.877903 0.157872
C42   C     C_3   0.587232 0.086680 0.695378 -0.388879
H32   H     H_    0.636751 0.017312 0.740722 0.127131
H33   H     H_    0.480272 0.171955 0.711923 0.127704
H34   H     H_    0.575829 0.022890 0.652320 0.132745
C43   C     C_3   0.534316 0.805222 0.205736 -0.383941
H35   H     H_    0.429442 0.812666 0.211212 0.123733
H36   H     H_    0.578296 0.808450 0.258608 0.146188
H37   H     H_    0.515151 0.902379 0.178595 0.158367
C44   C     C_3   0.879696 0.388376 0.820334 -0.388630
H38   H     H_    0.962043 0.413891 0.804159 0.140269
H39   H     H_    0.886092 0.366947 0.878388 0.164062
H40   H     H_    0.906487 0.287334 0.793868 0.117769

loop_
_geom_bond_atom_site_label_1
_geom_bond_atom_site_label_2
_ccdc_geom_bond_type
C7    C10   D    
C41   H29   S    
C31   O11   A    
C40   H25   S    
Cr5   O8    S    
C1    C11   S    
Cr5   O19   S    
C31   O6    A    
Cr5   O9    S    
C25   C28   D    
Cr1   O12   S    
C42   H33   S    
C26   C27   D    
Cr3   O3    S    
C8    C29   S    
C38   C41   S    
C36   O3    A    
C33   O17   A    
C38   C39   S    
C2    C44   S    
Cr6   O18   S    
C35   O13   A    
C32   O14   A    
C18   C19   S    
C16   H14   S    
C30   O9    A    
Cr4   O19   S    
C36   O2    A    
C11   C15   D    
C18   H12   S    
C20   C24   D    
C3    C38   S    
C1    O20   A    
C34   O26   A    
C7    C42   S    
C12   O21   A    
C6    H28   S    
C4    C12   S    
Cr4   O13   S    
Cr5   O15   S    
C9    C10   S    
C8    H6    S    
C25   C34   S    
Cr6   O11   S    
C35   O18   A    
Cr2   O5    S    
C41   H30   S    
C13   C14   D    
C5    H3    S    
C2    C6    S    
C17   C33   S    
C10   H5    S    
C37   O24   A    
C21   C32   S    
Cr3   O22   S    
C42   H34   S    
C6    H1    S    
Cr2   O21   S    
C15   H8    S    
Cr4   O6    S    
C28   H21   S    
C4    C6    S    
Cr4   O7    S    
C43   H37   S    
C8    C9    D    
Cr6   O17   S    
C19   H13   S    
Cr3   O4    S    
C20   H18   S    
C3    C30   S    
C29   O7    A    
C27   H19   S    
Cr2   O26   S    
Cr1   O1    S    
C32   O15   A    
C14   C15   S    
C4    C39   S    
Cr1   O25   S    
C17   C18   D    
Cr5   O16   S    
C2    H27   S    
Cr6   O10   S    
C23   O23   A    
C3    C40   S    
C41   H31   S    
C39   H20   S    
C22   C24   S    
C25   H23   S    
C44   H38   S    
C42   H32   S    
C1    O12   A    
C40   H2    S    
C24   H16   S    
Cr2   O20   S    
C13   C31   S    
C9    H4    S    
Cr3   O23   S    
C23   O1    A    
C4    C5    S    
C17   C43   S    
Cr1   O5    S    
C5    H26   S    
C34   O25   A    
C37   O4    A    
Cr2   O2    S    
C26   H22   S    
C44   H40   S    
C43   H36   S    
C2    C3    S    
C29   O8    A    
C11   H11   S    
C33   O16   A    
C16   C36   S    
C22   H15   S    
C20   C37   S    
Cr6   O19   S    
C16   C19   D    
C7    C23   S    
C39   H24   S    
Cr4   O14   S    
C30   O10   A    
C21   H17   S    
C26   C35   S    
C14   H7    S    
C38   H10   S    
C5    C40   S    
C43   H35   S    
C27   C28   S    
Cr1   O24   S    
C12   O22   A    
C13   H9    S    
C21   C22   D    
Cr3   O5    S    
C44   H39   S    
