data_mof_unit_52169.cif
_audit_creation_date              2012-12-10T17:22:29-0500
_audit_creation_method            fapswitch 2.2
_symmetry_space_group_name_H-M    P1
_symmetry_Int_Tables_number       1
_space_group_crystal_system       triclinic
_cell_length_a                    18.582239
_cell_length_b                    19.050725
_cell_length_c                    18.217933
_cell_angle_alpha                 109.361653
_cell_angle_beta                  107.548287
_cell_angle_gamma                 109.605556
_cell_volume                      5076.12961704

loop_
_atom_site_label
_atom_site_type_symbol
_atom_type_description
_atom_site_fract_x
_atom_site_fract_y
_atom_site_fract_z
_atom_type_partial_charge
C1    C     C_R   0.380642 0.381794 0.502957 0.896631
C2    C     C_R   0.313847 0.331708 0.587495 -0.101443
C3    C     C_3   0.189576 0.416855 0.432268 -0.337645
C4    C     C_1   0.226023 0.615429 0.536897 0.265267
C5    C     C_1   0.117892 0.649125 0.417066 0.252238
C6    C     C_3   0.993208 0.459575 0.230849 -0.256030
C7    C     C_1   0.232492 0.333944 0.956822 0.188789
C8    C     C_1   0.452093 0.523367 0.256159 0.274463
C9    C     C_1   0.798165 0.493477 0.370138 0.174940
C10   C     C_1   0.695530 0.357413 0.789952 0.327798
C11   C     C_3   0.467429 0.708234 0.386910 -0.313531
C12   C     C_3   0.535592 0.920803 0.575603 -0.353237
C13   C     C_R   0.186129 0.191999 0.506998 -0.148911
C14   C     C_3   0.746855 0.993067 0.477465 -0.211860
C15   C     C_1   0.645895 0.507090 0.335645 0.246421
C16   C     C_3   0.787997 0.065172 0.867522 -0.308114
C17   C     C_1   0.028467 0.254534 0.558431 0.144802
C18   C     C_1   0.997791 0.259716 0.971538 0.252542
C19   C     C_3   0.662942 0.445291 0.116073 -0.310591
C20   C     C_3   0.270094 0.731253 0.284812 -0.340468
C21   C     C_3   0.767520 0.436892 0.529080 -0.223190
C22   C     C_1   0.802821 0.762640 0.260956 0.216314
C23   C     C_1   0.890976 0.483547 0.720053 0.247004
C24   C     C_R   0.621390 0.501259 0.621330 0.941765
C25   C     C_3   0.757184 0.718743 0.795759 -0.268204
C26   C     C_1   0.655334 0.586499 0.807260 0.291294
C27   C     C_3   0.772799 0.540912 0.979438 -0.226405
C28   C     C_R   0.183831 0.183215 0.425654 0.055262
C29   C     C_R   0.242207 0.251271 0.424759 0.019829
C30   C     C_R   0.311356 0.320678 0.505416 -0.120006
C31   C     C_R   0.124976 0.107229 0.344505 -0.304447
C32   C     C_R   0.117365 0.103328 0.264452 -0.039622
C33   C     C_R   0.166541 0.175660 0.262176 0.544925
C34   C     C_R   0.229757 0.248957 0.342841 -0.312951
C35   C     C_3   0.807340 0.497883 0.808032 -0.257030
C36   C     C_R   0.244766 0.532165 0.414807 0.525670
C37   C     C_R   0.211865 0.585033 0.447038 -0.189885
C38   C     C_R   0.158004 0.599589 0.388799 -0.180012
C39   C     C_R   0.617122 0.618132 0.493794 0.940996
C40   C     C_R   0.134383 0.556631 0.299326 0.493335
C41   C     C_R   0.186281 0.524054 0.272225 -0.146567
C42   C     C_R   0.247114 0.516978 0.333519 -0.116262
C43   C     C_R   0.177711 0.496272 0.186000 -0.105052
C44   C     C_R   0.227246 0.461189 0.160647 0.048263
C45   C     C_R   0.299564 0.471617 0.225668 -0.080882
C46   C     C_3   0.842150 0.525719 0.747270 -0.334478
C47   C     C_R   0.307095 0.495095 0.311655 -0.167535
C48   C     C_R   0.207126 0.417342 0.071426 -0.301331
C49   C     C_R   0.259069 0.385959 0.048023 -0.060471
C50   C     C_R   0.338805 0.409513 0.113213 0.484625
C51   C     C_R   0.377637 0.498521 0.378644 0.974093
C52   C     C_R   0.362548 0.460709 0.201461 -0.111847
C53   C     C_R   0.600084 0.766430 0.501527 0.492589
C54   C     C_R   0.611467 0.847068 0.550887 0.435536
C55   C     C_R   0.685732 0.917976 0.572975 -0.478130
C56   C     C_R   0.742994 0.907482 0.540682 0.451531
C57   C     C_3   0.781751 0.563427 0.857771 0.839288
C58   C     C_R   0.743594 0.827742 0.512627 -0.098499
C59   C     C_R   0.671996 0.756951 0.496999 -0.174985
C60   C     C_R   0.812524 0.816208 0.501594 -0.132789
C61   C     C_R   0.809947 0.736018 0.474550 0.053165
C62   C     C_R   0.734367 0.663792 0.450264 0.031422
C63   C     C_3   0.647744 0.411238 0.686801 0.891423
C64   C     C_R   0.672174 0.678197 0.475119 -0.107119
C65   C     C_R   0.880735 0.725625 0.468687 -0.188104
C66   C     C_R   0.877597 0.647299 0.441429 -0.175901
C67   C     C_R   0.800896 0.574851 0.407527 0.007118
C68   C     C_R   0.379675 0.405877 0.668343 -0.236148
C69   C     C_R   0.726967 0.581600 0.404184 -0.048980
C70   C     C_R   0.009461 0.381677 0.889076 0.858560
C71   C     C_R   0.876790 0.497791 0.874469 0.974688
C72   C     C_R   0.003341 0.617896 0.125540 0.979688
C73   C     C_R   0.116333 0.502152 0.121104 0.987157
C74   C     C_R   0.996640 0.877205 0.379936 0.859520
C75   C     C_3   0.725058 0.405946 0.746065 -0.331628
C76   C     C_R   0.119494 0.123265 0.503773 0.926281
C77   C     C_R   0.003338 0.123754 0.619294 0.956072
C78   C     C_R   0.880219 0.883213 0.503532 0.928979
C79   C     C_R   0.377822 0.421796 0.747461 0.506896
C80   C     C_R   0.143397 0.420117 0.828542 -0.121691
C81   C     C_R   0.176975 0.443264 0.776521 -0.152714
C82   C     C_R   0.139943 0.386342 0.687905 -0.152149
C83   C     C_R   0.075418 0.302912 0.652922 0.013684
C84   C     C_R   0.049001 0.275444 0.709010 0.039271
C85   C     C_R   0.073733 0.338172 0.792946 0.102911
C86   C     C_R   0.002612 0.189276 0.687400 -0.153245
C87   C     C_3   0.766407 0.510354 0.665728 0.398370
C88   C     C_R   0.972970 0.167083 0.743659 0.065894
C89   C     C_R   0.985885 0.231236 0.821081 -0.027390
C90   C     C_R   0.312145 0.361076 0.748619 -0.355444
C91   C     C_R   0.028050 0.317420 0.838852 -0.218922
C92   C     C_R   0.930686 0.081004 0.723616 -0.182811
C93   C     C_R   0.894513 0.057399 0.773304 -0.263717
C94   C     C_R   0.906444 0.119121 0.849708 0.534340
C95   C     C_R   0.959069 0.205452 0.878253 -0.088169
C96   C     C_R   0.167877 0.778492 0.265522 0.584232
C97   C     C_R   0.232577 0.864020 0.304943 -0.260309
C98   C     C_R   0.218946 0.930396 0.345427 -0.214596
C99   C     C_3   0.726203 0.579772 0.786903 0.241632
C100  C     C_R   0.141842 0.913376 0.348861 -0.146254
C101  C     C_R   0.254328 0.281644 0.674066 0.455778
C102  C     C_R   0.073753 0.829004 0.306226 0.012986
C103  C     C_R   0.084068 0.761660 0.257695 -0.026541
C104  C     C_R   0.995518 0.811596 0.310828 -0.134629
C105  C     C_R   0.924190 0.728131 0.263522 0.000232
C106  C     C_R   0.938510 0.661094 0.222805 -0.018440
C107  C     C_R   0.011193 0.679209 0.206447 -0.132686
C108  C     C_R   0.840057 0.707066 0.257545 -0.082674
C109  C     C_R   0.781457 0.623451 0.229747 -0.288846
C110  C     C_R   0.801510 0.558295 0.201972 0.538304
C111  C     C_3   0.689275 0.501565 0.689948 -0.294830
C112  C     C_R   0.249883 0.267164 0.589314 -0.055922
C113  C     C_R   0.879800 0.577929 0.200119 -0.220614
C114  C     C_3   0.602876 0.267981 0.574942 -0.305017
C115  C     C_3   0.848281 0.704751 0.978672 -0.215292
C116  C     C_1   0.795334 0.584884 0.649288 0.171933
C117  C     C_3   0.169856 0.245497 0.177997 -0.272688
C118  C     C_3   0.478811 0.487687 0.892830 -0.255041
C119  C     C_3   0.253748 0.195008 0.734945 -0.180107
C120  C     C_1   0.056334 0.024460 0.184108 0.254452
C121  C     C_3   0.514496 0.334729 0.685400 -0.235400
C122  C     C_3   0.394234 0.319777 0.094729 -0.311430
H1    H     H_    0.889907 0.594792 0.787520 0.208850
H2    H     H_    0.173909 0.466043 0.897363 0.153877
H3    H     H_    0.229397 0.506624 0.804148 0.160675
H4    H     H_    0.746479 0.368664 0.705617 0.146390
H5    H     H_    0.161653 0.407490 0.646336 0.146525
H6    H     H_    0.924638 0.030219 0.669017 0.195634
H7    H     H_    0.860461 0.990716 0.754557 0.168207
H8    H     H_    0.294692 0.880267 0.306244 0.138485
H9    H     H_    0.269487 0.995527 0.376722 0.161289
H10   H     H_    0.135791 0.967292 0.384279 0.136677
H11   H     H_    0.719656 0.609199 0.229175 0.156759
H12   H     H_    0.436351 0.452720 0.674346 0.218906
H13   H     H_    0.894115 0.526737 0.182851 0.207250
H14   H     H_    0.544155 0.217537 0.512578 0.181095
H15   H     H_    0.602993 0.246445 0.624292 0.114291
H16   H     H_    0.658934 0.272559 0.562848 0.200885
H17   H     H_    0.887771 0.724237 0.048394 0.154777
H18   H     H_    0.780797 0.685446 0.966841 0.144274
H19   H     H_    0.873068 0.761636 0.970205 0.211331
H20   H     H_    0.239855 0.288746 0.205736 0.167550
H21   H     H_    0.139925 0.277534 0.211524 0.152398
H22   H     H_    0.139206 0.230343 0.108307 0.210949
H23   H     H_    0.307675 0.373342 0.809029 0.185644
H24   H     H_    0.494206 0.434833 0.872671 0.156044
H25   H     H_    0.438007 0.477448 0.926002 0.163133
H26   H     H_    0.540716 0.546631 0.941871 0.198833
H27   H     H_    0.300243 0.246426 0.803413 0.135702
H28   H     H_    0.289199 0.172636 0.701652 0.128338
H29   H     H_    0.211250 0.141064 0.739097 0.193356
H30   H     H_    0.527754 0.282554 0.686049 0.149559
H31   H     H_    0.479989 0.341632 0.725062 0.166295
H32   H     H_    0.471161 0.317408 0.617661 0.185695
H33   H     H_    0.443920 0.308065 0.079508 0.190770
H34   H     H_    0.084441 0.049423 0.341645 0.167325
H35   H     H_    0.330268 0.263004 0.045355 0.163984
H36   H     H_    0.408247 0.327803 0.161769 0.177327
H37   H     H_    0.163511 0.369157 0.362772 0.152309
H38   H     H_    0.139300 0.432768 0.441189 0.159504
H39   H     H_    0.204256 0.387804 0.474295 0.209175
H40   H     H_    0.974831 0.475185 0.284451 0.160696
H41   H     H_    0.016534 0.412471 0.229523 0.150191
H42   H     H_    0.934323 0.426935 0.167231 0.192610
H43   H     H_    0.501279 0.726325 0.349643 0.140330
H44   H     H_    0.447544 0.755486 0.414131 0.192463
H45   H     H_    0.268408 0.304534 0.341273 0.169903
H46   H     H_    0.407432 0.647782 0.339199 0.176094
H47   H     H_    0.534653 0.928305 0.517262 0.141777
H48   H     H_    0.585064 0.980353 0.637707 0.170365
H49   H     H_    0.471803 0.908390 0.572765 0.197826
H50   H     H_    0.716647 0.027527 0.507201 0.130461
H51   H     H_    0.696749 0.934260 0.414405 0.137484
H52   H     H_    0.789138 0.035005 0.461015 0.199332
H53   H     H_    0.752242 0.005831 0.803288 0.169011
H54   H     H_    0.772086 0.114677 0.860216 0.154632
H55   H     H_    0.765604 0.049980 0.913023 0.201204
H56   H     H_    0.149770 0.404946 0.019468 0.137600
H57   H     H_    0.661494 0.464469 0.064349 0.143173
H58   H     H_    0.626893 0.466819 0.148650 0.191397
H59   H     H_    0.628749 0.374790 0.082710 0.196633
H60   H     H_    0.293431 0.766774 0.356882 0.156409
H61   H     H_    0.313057 0.766441 0.263671 0.160452
H62   H     H_    0.273795 0.671910 0.271068 0.188483
H63   H     H_    0.753749 0.372603 0.484520 0.181330
H64   H     H_    0.838262 0.479503 0.561037 0.150086
H65   H     H_    0.732141 0.458182 0.488267 0.170958
H66   H     H_    0.700672 0.694913 0.733370 0.198469
H67   H     H_    0.696158 0.981582 0.608133 0.187910
H68   H     H_    0.810162 0.774237 0.803277 0.198041
H69   H     H_    0.745176 0.742684 0.852839 0.142730
H70   H     H_    0.754835 0.580486 0.022553 0.145405
H71   H     H_    0.843529 0.572612 0.007917 0.189061
H72   H     H_    0.751046 0.479427 0.980028 0.196801
H73   H     H_    0.940662 0.776543 0.485218 0.186050
H74   H     H_    0.933932 0.642625 0.440921 0.168811
N1    N     N_1   0.817632 0.642117 0.636419 -0.211265
N2    N     N_1   0.990531 0.217819 0.482497 -0.175520
N3    N     N_1   0.027767 0.298584 0.046988 -0.206650
N4    N     N_1   0.770492 0.805116 0.261380 -0.183079
N5    N     N_1   0.929123 0.450712 0.699225 -0.201706
N6    N     N_1   0.601275 0.592428 0.823289 -0.160127
N7    N     N_1   0.007401 0.961156 0.119757 -0.206730
N8    N     N_1   0.237339 0.639652 0.608753 -0.200679
N9    N     N_1   0.086154 0.689194 0.439512 -0.224423
N10   N     N_1   0.210888 0.291568 0.883648 -0.198345
N11   N     N_1   0.523600 0.575257 0.297604 -0.204894
N12   N     N_1   0.796069 0.428474 0.340251 -0.200542
N13   N     N_1   0.672446 0.319241 0.823814 -0.235926
N14   N     N_1   0.582185 0.446493 0.280578 -0.208467
O1    O     O_R   0.408690 0.356690 0.448570 -0.624006
O2    O     O_R   0.052500 0.908420 0.460860 -0.620972
O3    O     O_R   0.039610 0.091640 0.448030 -0.624925
O4    O     O_R   0.408090 0.460090 0.551440 -0.600238
O5    O     O_R   0.143600 0.091610 0.551990 -0.598685
O6    O     O_R   0.947500 0.091600 0.539170 -0.614011
O7    O     O_R   0.051490 0.091570 0.643140 -0.598317
O8    O     O_R   0.856400 0.908420 0.448030 -0.567228
O9    O     O_R   0.960390 0.908390 0.552000 -0.656974
O10   O     O_R   0.592400 0.448300 0.540670 -0.542695
O11   O     O_R   0.591800 0.551700 0.643540 -0.673713
O12   O     O_R   0.049540 0.460090 0.906170 -0.631915
O13   O     O_R   0.591910 0.539910 0.448560 -0.646308
O14   O     O_R   0.591310 0.643310 0.551430 -0.602936
O15   O     O_R   0.408200 0.448300 0.356460 -0.661469
O16   O     O_R   0.407600 0.551700 0.459330 -0.526924
O17   O     O_R   0.946100 0.356720 0.906240 -0.623386
O18   O     O_3   0.600337 0.345384 0.595787 -0.568644
O19   O     O_3   0.860002 0.640914 0.924420 -0.618791
O20   O     O_3   0.156079 0.168923 0.180523 -0.605967
O21   O     O_3   0.439456 0.499372 0.821578 -0.584102
O22   O     O_3   0.202368 0.220937 0.687068 -0.588484
O23   O     O_R   0.853530 0.448360 0.905250 -0.636233
O24   O     O_3   0.590492 0.413027 0.724625 -0.640685
O25   O     O_3   0.398156 0.393253 0.090060 -0.619761
O26   O     O_3   0.266174 0.489330 0.458479 -0.582988
O27   O     O_3   0.053882 0.535023 0.239597 -0.605808
O28   O     O_3   0.517747 0.697095 0.453381 -0.569276
O29   O     O_3   0.548287 0.851709 0.575373 -0.568888
O30   O     O_3   0.797055 0.975574 0.537380 -0.605125
O31   O     O_3   0.877675 0.094957 0.903668 -0.599073
O32   O     O_3   0.747810 0.475009 0.178597 -0.610484
O33   O     O_3   0.183849 0.710463 0.235708 -0.594663
O34   O     O_R   0.956970 0.551730 0.905180 -0.593380
O35   O     O_3   0.737379 0.431210 0.590725 -0.581069
O36   O     O_3   0.784513 0.657471 0.794650 -0.619317
O37   O     O_3   0.729319 0.525692 0.892777 -0.646389
O38   O     O_R   0.945170 0.540000 0.088470 -0.657053
O39   O     O_R   0.048600 0.643370 0.088400 -0.577404
O40   O     O_R   0.037740 0.448360 0.089460 -0.601289
O41   O     O_R   0.141170 0.551730 0.089390 -0.618997
O42   O     O_R   0.948510 0.908450 0.356890 -0.625864
Zn1   Zn    Zn3+2 0.500400 0.430960 0.431310 0.994102
Zn2   Zn    Zn3+2 0.499600 0.569040 0.568690 1.044718
Zn3   Zn    Zn3+2 0.928290 0.431030 0.997370 0.954086
Zn4   Zn    Zn3+2 0.066410 0.569060 0.997270 1.006745
Zn5   Zn    Zn3+2 0.930570 0.000030 0.430590 0.979170
Zn6   Zn    Zn3+2 0.069430 0.999990 0.569430 0.946373

loop_
_geom_bond_atom_site_label_1
_geom_bond_atom_site_label_2
_ccdc_geom_bond_type
C119  H27   S    
C20   O33   S    
C38   C40   A    
C55   C56   A    
C115  H19   S    
C43   C73   S    
C93   C94   A    
O4    Zn2   S    
C122  H33   S    
C36   C42   A    
C70   C91   S    
C76   O5    A    
C57   O37   S    
C19   H59   S    
C48   H56   S    
C97   C98   A    
C53   C59   A    
O38   Zn3   S    
O14   Zn2   S    
C21   H64   S    
C90   C101  A    
C21   O35   S    
C53   C54   A    
C16   H55   S    
C11   O28   S    
C39   C64   S    
C60   C78   S    
C59   C64   A    
C80   C85   A    
C121  H31   S    
C23   N5    T    
C55   H67   S    
O5    Zn6   S    
C74   C104  S    
C118  H25   S    
C26   N6    T    
C94   O31   S    
O1    Zn1   S    
C54   O29   S    
C46   C87   S    
C14   H51   S    
C2    C68   A    
C25   H68   S    
C12   H48   S    
C103  C107  A    
C3    O26   S    
C86   C88   A    
C4    N8    T    
C1    O1    A    
C106  C107  A    
C58   C60   A    
C57   C99   S    
C117  O20   S    
C108  C109  A    
C41   C42   A    
C114  H15   S    
O13   Zn1   S    
C1    C30   S    
C79   C90   A    
C62   C64   A    
C19   O32   S    
O11   Zn2   S    
C76   O3    A    
C12   O29   S    
C94   C95   A    
C6    H40   S    
C4    C37   S    
C98   H9    S    
C51   O15   A    
C11   H44   S    
C50   C52   A    
C13   C76   S    
C13   C28   A    
C21   H65   S    
C99   C111  S    
C27   H71   S    
C72   O39   A    
C89   C91   A    
C8    C52   S    
C26   C99   S    
C20   H62   S    
C81   H3    S    
C16   O31   S    
C16   H54   S    
C68   C79   A    
C71   O23   A    
C66   C67   A    
C35   C71   S    
C23   C46   S    
C5    C38   S    
O10   Zn1   S    
C3    H37   S    
C18   C95   S    
C41   C43   A    
C39   O13   A    
C50   O25   S    
C24   C111  S    
O6    Zn5   S    
C32   C120  S    
C7    N10   T    
C93   H7    S    
C92   H6    S    
C104  C105  A    
C6    O27   S    
O42   Zn5   S    
C87   O35   S    
C12   H49   S    
C45   C47   A    
C85   C91   A    
C15   C69   S    
C105  C108  A    
C121  H32   S    
C106  C113  A    
C109  H11   S    
C102  C103  A    
C88   C92   A    
C118  H24   S    
C117  H22   S    
C65   H73   S    
C70   O17   A    
C7    C49   S    
C14   H50   S    
C66   H74   S    
C25   H69   S    
C27   H72   S    
O23   Zn3   S    
O17   Zn3   S    
C45   C52   A    
C58   C59   A    
C24   O11   A    
C114  O18   S    
C29   C34   A    
C81   C82   A    
O7    Zn6   S    
C62   C69   A    
C74   O2    A    
C60   C61   A    
C101  C112  A    
C89   C95   A    
C8    N11   T    
C43   C44   A    
C9    C67   S    
C96   O33   S    
C29   C30   A    
C25   H66   S    
C27   O37   S    
C78   O9    A    
C57   O19   S    
C10   C75   S    
C110  O32   S    
C10   N13   T    
C74   O42   A    
C83   C84   A    
C61   C65   A    
C72   C107  S    
C118  O21   S    
C2    C112  A    
C96   C97   A    
C51   O16   A    
C100  C102  A    
C33   C34   A    
C122  H36   S    
C17   N2    T    
O9    Zn6   S    
C6    H41   S    
C99   O36   S    
C102  C104  A    
C110  C113  A    
C79   O21   S    
C87   C116  S    
C63   O18   S    
C119  O22   S    
C20   H61   S    
C24   O10   A    
C16   H53   S    
O15   Zn1   S    
C40   C41   A    
C6    H42   S    
C77   C86   S    
C82   C83   A    
C37   C38   A    
C98   C100  A    
C28   C31   A    
C113  H13   S    
C11   H46   S    
C39   O14   A    
C27   H70   S    
C33   O20   S    
C28   C29   A    
C19   H57   S    
C1    O4    A    
C15   N14   T    
C44   C45   A    
C20   H60   S    
C73   O40   A    
C80   H2    S    
C22   N4    T    
O40   Zn3   S    
C54   C55   A    
C48   C49   A    
O3    Zn5   S    
O8    Zn5   S    
C56   O30   S    
C31   C32   A    
C84   C85   A    
C35   C75   S    
C84   C86   A    
C80   C81   A    
C9    N12   T    
C53   O28   S    
C97   H8    S    
C47   C51   S    
C100  H10   S    
C21   H63   S    
C12   H47   S    
O12   Zn4   S    
C36   O26   S    
C105  C106  A    
C121  O24   S    
C121  H30   S    
C35   C57   S    
C2    C30   A    
C75   H4    S    
C32   C33   A    
C72   O38   A    
C68   H12   S    
C117  H20   S    
C13   C112  A    
C17   C83   S    
C14   H52   S    
C44   C48   A    
C109  C110  A    
C25   O36   S    
C63   O24   S    
C14   O30   S    
C116  N1    T    
C35   C46   S    
C40   O27   S    
C77   O7    A    
O41   Zn4   S    
C3    H38   S    
C63   C75   S    
C119  H28   S    
C22   C108  S    
C19   H58   S    
O2    Zn6   S    
C92   C93   A    
C70   O12   A    
C122  H35   S    
C56   C58   A    
C122  O25   S    
C101  O22   S    
C42   C47   A    
C114  H16   S    
C90   H23   S    
C63   C111  S    
C61   C62   A    
C46   H1    S    
C82   H5    S    
C115  O19   S    
C119  H29   S    
C3    H39   S    
C5    N9    T    
C118  H26   S    
C31   H34   S    
O16   Zn2   S    
C87   C111  S    
C88   C89   A    
C117  H21   S    
O39   Zn4   S    
C36   C37   A    
C49   C50   A    
O34   Zn4   S    
C96   C103  A    
C18   N3    T    
C11   H43   S    
C120  N7    T    
C114  H14   S    
C71   O34   A    
C67   C69   A    
C115  H17   S    
C115  H18   S    
C65   C66   A    
C78   O8    A    
C34   H45   S    
C77   O6    A    
C73   O41   A    
