data_mof_unit_38825.cif
_audit_creation_date              2012-12-10T16:37:24-0500
_audit_creation_method            fapswitch 2.2
_symmetry_space_group_name_H-M    P1
_symmetry_Int_Tables_number       1
_space_group_crystal_system       triclinic
_cell_length_a                    16.763369
_cell_length_b                    16.760362
_cell_length_c                    16.681017
_cell_angle_alpha                 67.05584
_cell_angle_beta                  66.82698
_cell_angle_gamma                 67.193728
_cell_volume                      3812.84591315

loop_
_atom_site_label
_atom_site_type_symbol
_atom_type_description
_atom_site_fract_x
_atom_site_fract_y
_atom_site_fract_z
_atom_type_partial_charge
Br1   Br    Br    0.786374 0.959089 0.786292 -0.363567
Br2   Br    Br    0.244457 0.077950 0.247557 -0.390655
Br3   Br    Br    0.914548 0.753791 0.755358 -0.443612
Br4   Br    Br    0.041606 0.213299 0.212528 -0.353024
Br5   Br    Br    0.781548 0.782555 0.962309 -0.367627
Br6   Br    Br    0.237963 0.239437 0.065870 -0.374428
C1    C     C_R   0.454465 0.896114 0.717331 -0.207608
C2    C     C_R   0.426585 0.665982 0.003047 -0.226619
C3    C     C_R   0.102253 0.545839 0.283311 -0.207478
C4    C     C_R   0.116359 0.387777 0.646819 -0.204971
C5    C     C_R   0.008272 0.161365 0.424179 0.979321
C6    C     C_R   0.035024 0.820613 0.562813 0.892281
C7    C     C_R   0.179139 0.436999 0.965302 0.890287
C8    C     C_R   0.838093 0.574929 0.993304 0.976767
C9    C     C_R   0.437298 0.964255 0.179523 0.957383
C10   C     C_R   0.575512 0.991383 0.839261 0.938791
C11   C     C_R   0.567796 0.821687 0.025189 0.867655
C12   C     C_R   0.612723 0.883414 0.352483 -0.195343
C13   C     C_R   0.437372 0.179100 0.964393 0.985407
C14   C     C_R   0.034950 0.562976 0.820511 0.894766
C15   C     C_R   0.008332 0.424522 0.160852 0.970635
C16   C     C_R   0.838763 0.991590 0.575670 0.978619
C17   C     C_R   0.179417 0.962375 0.438320 0.891929
C18   C     C_R   0.499587 0.912738 0.761025 -0.155678
C19   C     C_R   0.560009 0.891820 0.301008 -0.163877
C20   C     C_R   0.105672 0.699946 0.438501 -0.178135
C21   C     C_R   0.083284 0.242067 0.501763 -0.149646
C22   C     C_R   0.757277 0.503661 0.913107 -0.143662
C23   C     C_R   0.114562 0.648265 0.385515 -0.208002
C24   C     C_R   0.298062 0.557020 0.911800 -0.171646
C25   C     C_R   0.299943 0.893035 0.562362 -0.178322
C26   C     C_R   0.758194 0.916798 0.497311 -0.149475
C27   C     C_R   0.559168 0.300919 0.895037 -0.156299
C28   C     C_R   0.469904 0.702751 0.029842 -0.168502
C29   C     C_R   0.085974 0.500595 0.239504 -0.151305
C30   C     C_R   0.107707 0.440623 0.698440 -0.174610
C31   C     C_R   0.579221 0.908433 0.579987 0.033396
C32   C     C_R   0.480628 0.896929 0.482106 0.033787
C33   C     C_R   0.101762 0.519668 0.518084 0.034579
C34   C     C_R   0.099731 0.286165 0.546657 -0.206524
C35   C     C_R   0.090720 0.420994 0.419970 0.033159
C36   C     C_R   0.569789 0.564247 0.945893 0.037033
C37   C     C_R   0.476520 0.474203 0.917201 0.037372
C38   C     C_R   0.622879 0.899598 0.490502 0.044699
C39   C     C_R   0.440824 0.892493 0.575488 0.046870
C40   C     C_R   0.106589 0.426854 0.558145 0.044981
C41   C     C_R   0.100553 0.509608 0.375468 0.045398
C42   C     C_R   0.475893 0.599050 0.957526 0.048904
C43   C     C_R   0.570432 0.437196 0.906347 0.040906
C44   C     C_R   0.573495 0.892689 0.441574 0.042909
C45   C     C_R   0.713416 0.458846 0.896136 -0.201538
C46   C     C_R   0.490590 0.898234 0.624854 0.045486
C47   C     C_R   0.432328 0.560011 0.931824 0.049191
C48   C     C_R   0.618728 0.486199 0.914620 0.042044
C49   C     C_R   0.099878 0.377400 0.509107 0.044495
C50   C     C_R   0.106286 0.559317 0.424896 0.046876
C51   C     C_R   0.581431 0.936317 0.714073 0.021115
C52   C     C_R   0.465277 0.913977 0.334543 0.016266
C53   C     C_R   0.083700 0.666821 0.533790 0.020943
C54   C     C_R   0.061605 0.287489 0.418836 0.024010
C55   C     C_R   0.708439 0.575887 0.952031 0.020351
C56   C     C_R   0.345540 0.603647 0.920586 -0.226089
C57   C     C_R   0.331877 0.462952 0.924837 0.023579
C58   C     C_R   0.333454 0.913940 0.467105 0.023908
C59   C     C_R   0.712707 0.938054 0.580710 0.023509
C60   C     C_R   0.464118 0.332608 0.918646 0.013057
C61   C     C_R   0.564894 0.681348 0.003765 0.021995
C62   C     C_R   0.062735 0.418688 0.286147 0.022859
C63   C     C_R   0.084449 0.535273 0.665576 0.016901
C64   C     C_R   0.623970 0.962977 0.755262 -0.211533
C65   C     C_R   0.406819 0.945774 0.278353 -0.211299
C66   C     C_R   0.051753 0.722662 0.593082 -0.185382
C67   C     C_R   0.351589 0.884540 0.615093 -0.207232
C68   C     C_R   0.035747 0.245744 0.375928 -0.211189
C69   C     C_R   0.750974 0.619220 0.974941 -0.198061
C70   C     C_R   0.276702 0.405608 0.949167 -0.188082
C71   C     C_R   0.277723 0.944638 0.408228 -0.190144
C72   C     C_R   0.754353 0.963950 0.623716 -0.209177
C73   C     C_R   0.406019 0.276770 0.947289 -0.215211
C74   C     C_R   0.612425 0.732449 0.010437 -0.205538
C75   C     C_R   0.036338 0.376086 0.244815 -0.214264
C76   C     C_R   0.051902 0.593751 0.722119 -0.187712
C77   C     C_R   0.714229 0.964434 0.714597 0.243919
C78   C     C_R   0.714154 0.900208 0.452509 -0.202535
C79   C     C_R   0.314969 0.973342 0.316058 0.193105
C80   C     C_R   0.022130 0.685428 0.685366 0.189887
C81   C     C_R   0.035212 0.285728 0.285061 0.255765
C82   C     C_R   0.706971 0.704448 0.986994 0.229459
C83   C     C_R   0.313441 0.313393 0.973105 0.192776
C84   C     C_R   0.624528 0.927532 0.624969 0.086822
C85   C     C_R   0.426644 0.907787 0.428168 0.089503
C86   C     C_R   0.090312 0.573752 0.572267 0.085570
C87   C     C_R   0.071711 0.375653 0.374950 0.088896
C88   C     C_R   0.614502 0.607636 0.966379 0.082307
C89   C     C_R   0.611259 0.351844 0.889653 -0.197129
C90   C     C_R   0.424575 0.423561 0.918944 0.086944
H1    H     H_    0.390911 0.881696 0.758519 0.134863
H2    H     H_    0.353534 0.686856 0.023377 0.142712
H3    H     H_    0.116051 0.609581 0.242435 0.135290
H4    H     H_    0.129634 0.316298 0.679143 0.141408
H5    H     H_    0.469727 0.904059 0.833123 0.173761
H6    H     H_    0.595353 0.882303 0.234238 0.179066
H7    H     H_    0.114572 0.766491 0.402832 0.176874
H8    H     H_    0.090866 0.170816 0.532807 0.174124
H9    H     H_    0.830292 0.482162 0.893220 0.166974
H10   H     H_    0.234060 0.595935 0.898348 0.179523
H11   H     H_    0.233003 0.884800 0.598064 0.175929
H12   H     H_    0.684255 0.870808 0.319644 0.143364
H13   H     H_    0.829468 0.909698 0.465768 0.173639
H14   H     H_    0.595010 0.236247 0.881649 0.181498
H15   H     H_    0.426930 0.746787 0.072431 0.176559
H16   H     H_    0.094778 0.530469 0.167514 0.172800
H17   H     H_    0.117816 0.405405 0.764784 0.178815
H18   H     H_    0.126451 0.680936 0.313718 0.137341
H19   H     H_    0.111835 0.246303 0.611419 0.138730
H20   H     H_    0.755681 0.403922 0.866760 0.141555
H21   H     H_    0.314129 0.674267 0.917470 0.139177
H22   H     H_    0.318599 0.873396 0.686890 0.136742
H23   H     H_    0.754126 0.888356 0.387441 0.140117
H24   H     H_    0.682972 0.320569 0.876664 0.144827
O1    O     O_R   0.982940 0.138950 0.510160 -0.637494
O2    O     O_R   0.982940 0.510160 0.138950 -0.636530
O3    O     O_R   0.861050 0.017060 0.489840 -0.635773
O4    O     O_R   0.138950 0.982940 0.510160 -0.679972
O5    O     O_R   0.867700 0.025880 0.612340 -0.551292
O6    O     O_R   0.132300 0.974120 0.387660 -0.592963
O7    O     O_R   0.025880 0.612340 0.867700 -0.590263
O8    O     O_R   0.974120 0.387660 0.132300 -0.551321
O9    O     O_R   0.612340 0.867700 0.025880 -0.583715
O10   O     O_R   0.387660 0.132300 0.974120 -0.558517
O11   O     O_R   0.387660 0.974120 0.132300 -0.570636
O12   O     O_R   0.017060 0.861050 0.489840 -0.683132
O13   O     O_R   0.612340 0.025880 0.867700 -0.575604
O14   O     O_R   0.132300 0.387660 0.974120 -0.589947
O15   O     O_R   0.867700 0.612340 0.025880 -0.553558
O16   O     O_R   0.974120 0.132300 0.387660 -0.550801
O17   O     O_R   0.025880 0.867700 0.612340 -0.593109
O18   O     O_R   0.138950 0.510160 0.982940 -0.687096
O19   O     O_R   0.861050 0.489840 0.017060 -0.632015
O20   O     O_R   0.510160 0.982940 0.138950 -0.639235
O21   O     O_R   0.489840 0.017060 0.861050 -0.653543
O22   O     O_R   0.489840 0.861050 0.017060 -0.684316
O23   O     O_R   0.510160 0.138950 0.982940 -0.638385
O24   O     O_R   0.017060 0.489840 0.861050 -0.680633
Zn1   Zn    Zn3+2 0.004880 0.004880 0.583590 1.006045
Zn2   Zn    Zn3+2 0.995120 0.995120 0.416410 1.007838
Zn3   Zn    Zn3+2 0.004880 0.583590 0.004880 1.001921
Zn4   Zn    Zn3+2 0.995120 0.416410 0.995120 1.015628
Zn5   Zn    Zn3+2 0.583590 0.004880 0.004880 1.035083
Zn6   Zn    Zn3+2 0.416410 0.995120 0.995120 1.001002

loop_
_geom_bond_atom_site_label_1
_geom_bond_atom_site_label_2
_ccdc_geom_bond_type
C23   H18   S    
C14   C76   S    
C58   C71   A    
C14   O24   A    
O24   Zn4   S    
O21   Zn6   S    
O6    Zn2   S    
C16   O3    A    
Br4   C81   S    
C55   C69   A    
C60   C73   A    
C31   C84   A    
C62   C75   A    
O17   Zn1   S    
C1    C46   A    
C21   C54   A    
C22   C45   A    
C19   H6    S    
C25   C67   A    
C34   H19   S    
C57   C70   A    
C30   H17   S    
C43   C48   A    
C21   H8    S    
Br2   C79   S    
C39   C67   A    
C18   H5    S    
C7    O14   A    
C15   O2    A    
C2    H2    S    
C35   C49   A    
C32   C39   A    
C63   C76   A    
C65   C79   A    
Br5   C82   S    
C72   C77   A    
C37   C47   A    
C35   C87   A    
C18   C51   A    
C56   H21   S    
C40   C49   A    
O10   Zn6   S    
C61   C88   A    
O3    Zn2   S    
C59   C72   A    
C51   C64   A    
C63   C86   A    
C1    H1    S    
C52   C85   A    
O18   Zn3   S    
C70   C83   A    
C54   C87   A    
C13   O10   A    
C6    C66   S    
C71   C79   A    
C3    H3    S    
C24   C57   A    
C24   H10   S    
Br3   C80   S    
C28   H15   S    
C5    O1    A    
C12   C19   A    
C10   O13   A    
C27   C89   A    
C27   C60   A    
C59   C84   A    
C26   C78   A    
C4    C40   A    
O19   Zn4   S    
C51   C84   A    
C11   O9    A    
C10   C64   S    
C16   C72   S    
C14   O7    A    
C26   H13   S    
C31   C46   A    
C55   C88   A    
C37   C43   A    
C16   O5    A    
C36   C42   A    
C39   C46   A    
C76   C80   A    
C57   C90   A    
C11   C74   S    
C17   C71   S    
C11   O22   A    
C4    H4    S    
C2    C42   A    
O9    Zn5   S    
C20   H7    S    
C47   C56   A    
C33   C50   A    
C7    C70   S    
C21   C34   A    
C34   C49   A    
C37   C90   A    
C35   C41   A    
O13   Zn5   S    
C2    C28   A    
O2    Zn3   S    
C43   C89   A    
C15   O8    A    
C13   C73   S    
C64   C77   A    
O16   Zn2   S    
C75   C81   A    
C33   C40   A    
C22   H9    S    
C15   C75   S    
C3    C41   A    
O15   Zn3   S    
C17   O6    A    
C68   C81   A    
O1    Zn1   S    
C19   C52   A    
C33   C86   A    
O14   Zn4   S    
C30   C63   A    
C12   C44   A    
C60   C90   A    
C9    O20   A    
C20   C53   A    
C38   C44   A    
C13   O23   A    
C67   H22   S    
C6    O12   A    
C36   C88   A    
C25   H11   S    
C25   C58   A    
O8    Zn4   S    
C61   C74   A    
C62   C87   A    
C38   C78   A    
C5    C68   S    
C28   C61   A    
C66   C80   A    
C17   O4    A    
C32   C44   A    
C23   C50   A    
C89   H24   S    
Br1   C77   S    
Br6   C83   S    
C9    C65   S    
O4    Zn1   S    
C53   C66   A    
C45   H20   S    
C45   C48   A    
O12   Zn2   S    
C7    O18   A    
O22   Zn6   S    
C31   C38   A    
C24   C56   A    
C10   O21   A    
C74   C82   A    
O5    Zn1   S    
C5    O16   A    
C22   C55   A    
C29   C62   A    
C78   H23   S    
C32   C85   A    
C54   C68   A    
C42   C47   A    
C53   C86   A    
C52   C65   A    
C12   H12   S    
C73   C83   A    
C69   C82   A    
O23   Zn5   S    
C9    O11   A    
C8    O19   A    
C20   C23   A    
C8    O15   A    
C3    C29   A    
C6    O17   A    
C41   C50   A    
O11   Zn6   S    
C4    C30   A    
C27   H14   S    
C58   C85   A    
O20   Zn5   S    
C36   C48   A    
C29   H16   S    
C1    C18   A    
C8    C69   S    
O7    Zn3   S    
C26   C59   A    
