data_mof_unit_12956.cif
_audit_creation_date              2012-12-11T14:17:51-0500
_audit_creation_method            fapswitch 2.2
_symmetry_space_group_name_H-M    P1
_symmetry_Int_Tables_number       1
_space_group_crystal_system       triclinic
_cell_length_a                    6.945837
_cell_length_b                    13.635316
_cell_length_c                    20.453245
_cell_angle_alpha                 102.135929
_cell_angle_beta                  90.181137
_cell_angle_gamma                 90.51743
_cell_volume                      1893.70620377

loop_
_atom_site_label
_atom_site_type_symbol
_atom_type_description
_atom_site_fract_x
_atom_site_fract_y
_atom_site_fract_z
_atom_type_partial_charge
O1    O     O_R   0.506860 0.599390 0.449240 -0.527905
O2    O     O_R   0.180220 0.594600 0.586780 -0.568529
O3    O     O_R   0.004500 0.400610 0.550760 -0.542692
C1    C     C_R   0.349588 0.616930 0.613083 0.627829
O4    O     O_R   0.177490 0.611290 0.451970 -0.547392
O5    O     O_R   0.001750 0.417420 0.414990 -0.539110
C2    C     C_R   0.346380 0.638150 0.435500 0.786554
O6    O     O_R   0.509610 0.582580 0.585010 -0.514081
O7    O     O_3   0.337420 0.436370 0.488020 -0.376925
V1    V     V_3+5 0.064680 0.511800 0.502220 1.461435
O8    O     O_R   0.671710 0.405400 0.413220 -0.535994
C3    C     C_R   0.839506 0.385482 0.386229 0.728209
O9    O     O_R   0.674440 0.388710 0.548030 -0.544710
C4    C     C_R   0.842940 0.362351 0.565017 0.690530
V2    V     V_3+5 0.564010 0.488200 0.497780 1.507217
O10   O     O_3   0.841140 0.563630 0.511980 -0.369071
C5    C     C_R   0.868134 0.111536 0.612655 -0.152398
H1    H     H_    0.861409 0.161753 0.520060 0.108670
H2    H     H_    0.882330 0.986181 0.695486 0.141964
H3    H     H_    0.875421 0.033294 0.587574 0.119320
C6    C     C_R   0.850923 0.285524 0.605159 -0.033215
C7    C     C_R   0.852705 0.315021 0.928494 -0.166253
C8    C     C_R   0.844990 0.391146 0.892911 -0.078309
C9    C     C_R   0.846252 0.368595 0.823226 -0.151787
C10   C     C_R   0.855500 0.268009 0.786970 0.070120
C11   C     C_R   0.863491 0.190213 0.823904 0.063911
C12   C     C_R   0.857082 0.242037 0.715468 0.074317
C13   C     C_R   0.866680 0.139228 0.682783 0.134392
C14   C     C_R   0.874766 0.064630 0.720132 -0.188583
C15   C     C_R   0.873201 0.089500 0.789494 -0.188973
C16   C     C_R   0.849451 0.314344 0.674980 -0.210998
C17   C     C_R   0.860174 0.184306 0.574110 -0.175438
C18   C     C_R   0.861803 0.214867 0.894789 -0.072546
H4    H     H_    0.837933 0.468535 0.919577 0.149725
C19   C     C_2   0.002348 0.285451 0.286087 -0.093929
C20   C     C_2   0.840740 0.323293 0.317716 -0.242840
C21   C     C_2   0.008275 0.225233 0.216074 -0.222861
C22   C     C_2   0.857781 0.173740 0.183024 0.469967
C23   C     C_2   0.209303 0.795239 0.780499 -0.096375
C24   C     C_2   0.361387 0.810616 0.822336 -0.222735
C25   C     C_2   0.207192 0.721663 0.715159 -0.234702
C26   C     C_2   0.364366 0.689386 0.677997 0.449074
C27   C     C_R   0.332095 0.888410 0.387884 -0.118812
H5    H     H_    0.316315 0.837574 0.479995 0.131402
H6    H     H_    0.345424 0.014474 0.306386 0.161831
H7    H     H_    0.320921 0.966517 0.412943 0.129698
C28   C     C_R   0.353568 0.714926 0.395433 -0.131414
C29   C     C_R   0.342105 0.685727 0.071885 0.585659
C30   C     C_R   0.321127 0.610406 0.107543 -0.202263
C31   C     C_R   0.320292 0.633389 0.177083 -0.156483
C32   C     C_R   0.346747 0.733185 0.213472 0.037109
C33   C     C_R   0.356006 0.811479 0.176708 -0.151713
C34   C     C_R   0.353802 0.758297 0.285073 -0.017378
C35   C     C_R   0.344445 0.860992 0.317964 -0.033959
C36   C     C_R   0.348581 0.936129 0.281191 -0.201651
C37   C     C_R   0.359704 0.912664 0.212001 0.606023
C38   C     C_R   0.371448 0.686217 0.325842 0.552294
C39   C     C_R   0.331082 0.815491 0.426192 -0.267754
C40   C     C_R   0.356599 0.786041 0.105564 -0.218956
H8    H     H_    0.288907 0.571562 0.200499 0.215489
H9    H     H_    0.302010 0.533350 0.081048 0.151568
O11   O     O_R   0.203230 0.917310 0.915020 -0.545920
O12   O     O_R   0.535500 0.888690 0.048040 -0.534256
O13   O     O_R   0.711080 0.082610 0.085000 -0.497140
C41   C     C_R   0.366580 0.862408 0.064986 0.918646
O14   O     O_R   0.532630 0.905370 0.913230 -0.549569
O15   O     O_R   0.708190 0.099410 0.949230 -0.546304
C42   C     C_R   0.363944 0.883386 0.886946 0.714587
O16   O     O_R   0.206120 0.900510 0.050790 -0.532217
O17   O     O_3   0.375360 0.063570 0.011990 -0.367303
V3    V     V_3+5 0.648170 0.988200 0.997780 1.544949
O18   O     O_R   0.038240 0.111390 0.951940 -0.548868
C43   C     C_R   0.869757 0.137468 0.934804 0.659998
O19   O     O_R   0.041120 0.094710 0.086750 -0.551436
C44   C     C_R   0.872645 0.114045 0.113944 0.659842
V4    V     V_3+5 0.148810 0.011930 0.002180 1.518632
O20   O     O_3   0.871750 0.936430 0.988010 -0.379986
H10   H     H_    0.702640 0.312602 0.292552 0.216461
H11   H     H_    0.147186 0.221383 0.191472 0.146622
F1    F     F_    0.685452 0.169570 0.213707 -0.659893
H12   H     H_    0.076675 0.835221 0.795450 0.136083
H13   H     H_    0.491793 0.768012 0.809864 0.205566
H14   H     H_    0.065673 0.695450 0.696025 0.131877
F2    F     F_    0.542698 0.726684 0.697214 -0.702410
F3    F     F_    0.416855 0.589173 0.300364 -0.723094
F4    F     F_    0.341494 0.661078 0.003985 -0.705465
F5    F     F_    0.368217 0.990792 0.180460 -0.669610
H15   H     H_    0.842169 0.393639 0.695822 0.101804
H16   H     H_    0.851542 0.334251 0.982670 0.108774
H17   H     H_    0.839883 0.431827 0.799458 0.120179
H18   H     H_    0.879734 0.028695 0.815980 0.118555
H19   H     H_    0.140141 0.302393 0.311382 0.155324

loop_
_geom_bond_atom_site_label_1
_geom_bond_atom_site_label_2
_ccdc_geom_bond_type
O14   C42   A    
C36   C37   A    
O12   C41   A    
C25   C26   D    
C19   C20   D    
O18   V4    S    
C1    C26   S    
C23   C25   S    
C34   C35   A    
C6    C16   A    
C14   C15   A    
O19   V4    S    
C4    C6    S    
C13   C14   A    
C19   C21   S    
O5    C3    A    
V2    O10   S    
C25   H14   S    
C5    H3    S    
O16   V4    S    
O13   V3    S    
C27   C35   A    
C27   C39   A    
O8    V2    S    
O13   C44   A    
H5    C39   S    
C8    C9    A    
O17   V3    S    
O15   C43   A    
C3    C20   S    
O7    V1    S    
C1    O6    A    
C19   H19   S    
O9    C4    A    
O11   V4    S    
C22   C44   S    
C6    C17   A    
C30   H9    S    
O19   C44   A    
C12   C16   A    
C32   C33   A    
C24   H13   S    
C26   F2    S    
C9    C10   A    
C23   H12   S    
C23   C24   D    
O4    C2    A    
C34   C38   A    
C15   H18   S    
C37   F5    S    
C10   C11   A    
C32   C34   A    
C2    C28   S    
O2    C1    A    
C21   C22   D    
C33   C40   A    
C28   C38   A    
C21   H11   S    
C11   C18   A    
O14   V3    S    
C8    H4    S    
C31   C32   A    
V4    O20   S    
O3    C4    A    
O1    V2    S    
C18   C43   S    
C29   C30   A    
O12   V3    S    
C11   C15   A    
O6    V2    S    
O9    V2    S    
O17   V4    S    
C29   F4    S    
H1    C17   S    
O2    V1    S    
V3    O20   S    
C29   C40   A    
C7    C18   A    
C35   C36   A    
C16   H15   S    
O1    C2    A    
C5    C13   A    
O18   C43   A    
C9    H17   S    
O5    V1    S    
O8    C3    A    
C10   C12   A    
O11   C42   A    
C31   H8    S    
O7    V2    S    
O4    V1    S    
O3    V1    S    
V1    O10   S    
C40   C41   S    
C28   C39   A    
C22   F1    S    
C41   O16   A    
C7    H16   S    
C38   F3    S    
O15   V3    S    
C27   H7    S    
H6    C36   S    
C30   C31   A    
C24   C42   S    
C12   C13   A    
C5    C17   A    
C7    C8    A    
C20   H10   S    
C33   C37   A    
H2    C14   S    
