data_mof_unit_11914.cif
_audit_creation_date              2012-12-11T16:07:22-0500
_audit_creation_method            fapswitch 2.2
_symmetry_space_group_name_H-M    P1
_symmetry_Int_Tables_number       1
_space_group_crystal_system       triclinic
_cell_length_a                    17.240169
_cell_length_b                    17.212712
_cell_length_c                    17.440644
_cell_angle_alpha                 90.000437
_cell_angle_beta                  90.000179
_cell_angle_gamma                 90.197825
_cell_volume                      5175.48137111

loop_
_atom_site_label
_atom_site_type_symbol
_atom_type_description
_atom_site_fract_x
_atom_site_fract_y
_atom_site_fract_z
_atom_type_partial_charge
C1    C     C_R   0.393481 0.699123 0.600403 -0.199199
C2    C     C_R   0.579921 0.671283 0.643904 -0.110849
C3    C     C_3   0.723108 0.178717 0.678289 0.099341
C4    C     C_3   0.816394 0.758486 0.356598 0.160540
C5    C     C_3   0.222512 0.311427 0.742988 0.101977
C6    C     C_3   0.710879 0.228686 0.285102 0.159001
C7    C     C_3   0.276901 0.821275 0.678304 0.099352
C8    C     C_3   0.677622 0.763752 0.835526 0.094234
C9    C     C_3   0.263960 0.205128 0.229513 0.100286
C10   C     C_3   0.819952 0.280379 0.746924 0.100390
C11   C     C_3   0.255297 0.693749 0.155062 0.113628
C12   C     C_3   0.322372 0.236228 0.835492 0.094224
C13   C     C_R   0.673408 0.421085 0.357929 -0.135980
C14   C     C_3   0.736029 0.794880 0.229527 0.100292
C15   C     C_3   0.180036 0.719619 0.746917 0.100386
C16   C     C_3   0.744704 0.306250 0.155062 0.113615
C17   C     C_3   0.150701 0.264406 0.435265 -0.304037
C18   C     C_3   0.067555 0.237563 0.449347 -0.947289
C19   C     C_3   0.834944 0.643429 0.692267 -0.316730
C20   C     C_3   0.918799 0.670826 0.700611 -0.963449
C21   C     C_3   0.309859 0.806987 0.364123 -0.287554
C22   C     C_3   0.278570 0.888100 0.378664 -0.983463
C23   C     C_3   0.664691 0.124784 0.638580 -0.330406
C24   C     C_R   0.301386 0.608347 0.600101 -0.166669
C25   C     C_3   0.680452 0.039112 0.652842 -0.955586
C26   C     C_3   0.849337 0.735569 0.435244 -0.303955
C27   C     C_3   0.932491 0.762401 0.449302 -0.947334
C28   C     C_3   0.165030 0.356571 0.692269 -0.316867
C29   C     C_3   0.081174 0.329178 0.700620 -0.963617
C30   C     C_3   0.690134 0.193007 0.364117 -0.287558
C31   C     C_3   0.721423 0.111894 0.378653 -0.983433
C32   C     C_3   0.335326 0.875208 0.638609 -0.330404
C33   C     C_3   0.319576 0.960878 0.652894 -0.955559
C34   C     C_3   0.624969 0.809682 0.890061 -0.326405
C35   C     C_R   0.604418 0.698590 0.395375 -0.158325
C36   C     C_3   0.540189 0.784422 0.886074 -0.943106
C37   C     C_3   0.310999 0.180892 0.157966 -0.320066
C38   C     C_3   0.387886 0.223878 0.149466 -0.932681
C39   C     C_3   0.875961 0.338487 0.784956 -0.323408
C40   C     C_3   0.859825 0.423405 0.765541 -0.967702
C41   C     C_3   0.230759 0.655361 0.079145 -0.317648
C42   C     C_3   0.265717 0.575022 0.067506 -0.955976
C43   C     C_3   0.375032 0.190289 0.890010 -0.326421
C44   C     C_3   0.459812 0.215543 0.886009 -0.943119
C45   C     C_3   0.688978 0.819131 0.157993 -0.320100
C46   C     C_R   0.420070 0.328718 0.643905 -0.110621
C47   C     C_3   0.612086 0.776152 0.149501 -0.932678
C48   C     C_3   0.124017 0.661514 0.784937 -0.323422
C49   C     C_3   0.140142 0.576597 0.765513 -0.967667
C50   C     C_3   0.769247 0.344640 0.079149 -0.317629
C51   C     C_3   0.734283 0.424976 0.067507 -0.956006
C52   C     C_3   0.625317 0.611661 0.855692 -0.295035
C53   C     C_3   0.627656 0.601281 0.942552 -0.944087
C54   C     C_3   0.278875 0.362600 0.218799 -0.266666
C55   C     C_3   0.245847 0.374113 0.138698 -0.987268
C56   C     C_3   0.679070 0.351426 0.779658 -0.282896
C57   C     C_R   0.326588 0.578917 0.357932 -0.135986
C58   C     C_3   0.685923 0.363534 0.866123 -0.928316
C59   C     C_3   0.414441 0.677847 0.152052 -0.280928
C60   C     C_3   0.433467 0.709459 0.072568 -0.956550
C61   C     C_3   0.374691 0.388313 0.855662 -0.295048
C62   C     C_3   0.372371 0.398685 0.942524 -0.944043
C63   C     C_3   0.721090 0.637409 0.218802 -0.266676
C64   C     C_3   0.754098 0.625896 0.138692 -0.987275
C65   C     C_3   0.320903 0.648549 0.779659 -0.282910
C66   C     C_3   0.314043 0.636441 0.866123 -0.928318
C67   C     C_3   0.585562 0.322155 0.152039 -0.280918
C68   C     C_R   0.698614 0.391651 0.600100 -0.166656
C69   C     C_3   0.566541 0.290534 0.072557 -0.956546
C70   C     C_3   0.828297 0.398134 0.250831 -0.314054
C71   C     C_3   0.862643 0.397552 0.332013 -0.987931
C72   C     C_3   0.121138 0.707431 0.601524 -0.303877
C73   C     C_3   0.150995 0.711273 0.519132 -0.953351
C74   C     C_3   0.647970 0.876590 0.329782 -0.320999
C75   C     C_3   0.643189 0.896840 0.415050 -0.967097
C76   C     C_3   0.364123 0.162236 0.705526 -0.295766
C77   C     C_3   0.357176 0.165410 0.617775 -0.909677
C78   C     C_3   0.171700 0.601864 0.250825 -0.314063
C79   C     C_R   0.892164 0.196015 0.108063 -0.144056
C80   C     C_3   0.137345 0.602449 0.332004 -0.987916
C81   C     C_3   0.878865 0.292588 0.601537 -0.303862
C82   C     C_3   0.849019 0.288746 0.519141 -0.953334
C83   C     C_3   0.352053 0.123419 0.329736 -0.320972
C84   C     C_3   0.356850 0.103150 0.414998 -0.967201
C85   C     C_3   0.635826 0.837750 0.705588 -0.295738
C86   C     C_3   0.642817 0.834648 0.617840 -0.909533
C87   C     C_3   0.169711 0.082473 0.364225 -0.311476
C88   C     C_3   0.084958 0.064761 0.346020 -0.950638
C89   C     C_3   0.827842 0.840263 0.718560 -0.263622
C90   C     C_R   0.082750 0.823077 0.860521 -0.172604
C91   C     C_3   0.833511 0.839869 0.631198 -0.919623
C92   C     C_3   0.131028 0.782010 0.293253 -0.305455
C93   C     C_3   0.112796 0.868699 0.285215 -0.920859
C94   C     C_3   0.864309 0.105218 0.650637 -0.295959
C95   C     C_3   0.863309 0.093376 0.563897 -0.935230
C96   C     C_3   0.830318 0.917513 0.364233 -0.311499
C97   C     C_3   0.915064 0.935228 0.346004 -0.950642
C98   C     C_3   0.172102 0.159734 0.718579 -0.263755
C99   C     C_3   0.166462 0.160039 0.631220 -0.920620
C100  C     C_3   0.868965 0.217990 0.293259 -0.305448
C101  C     C_R   0.168365 0.079079 0.146114 -0.159209
C102  C     C_3   0.887205 0.131303 0.285218 -0.920859
C103  C     C_3   0.135715 0.894797 0.650644 -0.295958
C104  C     C_3   0.136733 0.906650 0.563906 -0.935133
C105  C     C_3   0.338451 0.835237 0.820290 -0.298789
C106  C     C_3   0.319294 0.824599 0.905615 -0.905892
C107  C     C_3   0.635424 0.130834 0.186355 -0.307922
C108  C     C_3   0.558736 0.126122 0.229795 -0.953701
C109  C     C_3   0.181253 0.382962 0.876206 -0.316778
C110  C     C_3   0.179105 0.366010 0.962132 -0.930875
C111  C     C_3   0.907829 0.680789 0.254201 -0.326742
C112  C     C_R   0.579700 0.330073 0.355240 -0.172732
C113  C     C_R   0.801227 0.892074 0.899243 -0.200999
C114  C     C_3   0.911432 0.604669 0.298367 -0.955414
C115  C     C_3   0.661546 0.164733 0.820269 -0.298778
C116  C     C_3   0.680690 0.175376 0.905597 -0.905868
C117  C     C_3   0.364572 0.869169 0.186367 -0.307922
C118  C     C_3   0.441253 0.873887 0.229819 -0.953698
C119  C     C_3   0.818763 0.617035 0.876206 -0.316791
C120  C     C_3   0.820917 0.633984 0.962134 -0.930834
C121  C     C_3   0.092152 0.319194 0.254236 -0.326764
C122  C     C_3   0.088546 0.395306 0.298416 -0.955426
C123  C     C_R   0.107836 0.803984 0.108061 -0.144050
C124  C     C_R   0.917249 0.176922 0.860520 -0.172615
C125  C     C_R   0.831630 0.920917 0.146111 -0.159219
C126  C     C_R   0.198773 0.107925 0.899246 -0.201042
C127  C     C_R   0.892979 0.801403 0.897674 -0.150754
C128  C     C_R   0.078200 0.172780 0.142691 -0.158089
C129  C     C_R   0.174440 0.916665 0.858257 -0.111933
C130  C     C_R   0.801975 0.102474 0.105941 -0.161523
C131  C     C_R   0.107022 0.198596 0.897675 -0.150752
C132  C     C_R   0.673421 0.580567 0.642300 -0.173279
C133  C     C_R   0.921796 0.827217 0.142688 -0.158073
C134  C     C_R   0.825560 0.083332 0.858256 -0.111913
C135  C     C_R   0.198025 0.897525 0.105940 -0.161527
C136  C     C_3   0.269032 0.261807 0.339145 -0.145628
C137  C     C_3   0.687644 0.686613 0.738263 -0.142312
C138  C     C_3   0.310449 0.686036 0.265128 -0.152864
C139  C     C_3   0.731535 0.266048 0.660359 -0.121867
C140  C     C_3   0.730975 0.738191 0.339155 -0.145611
C141  C     C_3   0.312334 0.313375 0.738239 -0.142220
C142  C     C_3   0.689546 0.313964 0.265126 -0.152859
C143  C     C_R   0.302239 0.390775 0.397458 -0.192902
C144  C     C_3   0.268465 0.733948 0.660363 -0.121856
C145  C     C_3   0.766847 0.765396 0.840271 -0.130105
C146  C     C_3   0.178000 0.184514 0.245275 -0.125437
C147  C     C_3   0.811882 0.192409 0.764630 -0.143194
C148  C     C_3   0.234282 0.778213 0.173738 -0.151734
C149  C     C_3   0.233148 0.234594 0.840256 -0.130132
C150  C     C_3   0.821995 0.815482 0.245272 -0.125433
C151  C     C_3   0.188116 0.807586 0.764634 -0.143190
C152  C     C_3   0.765717 0.221787 0.173738 -0.151732
C153  C     C_R   0.316368 0.685664 0.612732 0.139521
C154  C     C_R   0.606519 0.300877 0.600402 -0.199234
C155  C     C_R   0.643772 0.359816 0.317344 0.100958
C156  C     C_R   0.643657 0.642621 0.682264 0.094003
C157  C     C_R   0.319283 0.314394 0.380608 0.112828
C158  C     C_R   0.683632 0.314334 0.612729 0.139542
C159  C     C_R   0.356224 0.640185 0.317347 0.100962
C160  C     C_R   0.356321 0.357370 0.682247 0.094097
C161  C     C_R   0.680723 0.685608 0.380621 0.112804
C162  C     C_R   0.816640 0.176528 0.126960 0.147737
C163  C     C_R   0.146008 0.851190 0.821637 0.110996
C164  C     C_R   0.137114 0.141802 0.185523 0.131789
C165  C     C_R   0.420298 0.669927 0.355241 -0.172737
C166  C     C_R   0.815620 0.814836 0.886347 0.130628
C167  C     C_R   0.183360 0.823471 0.126958 0.147741
C168  C     C_R   0.853991 0.148807 0.821634 0.110984
C169  C     C_R   0.862879 0.858192 0.185517 0.131792
C170  C     C_R   0.184382 0.185163 0.886347 0.130662
C171  C     C_3   0.681357 0.674314 0.825364 0.170798
C172  C     C_3   0.247622 0.288238 0.257452 0.176318
C173  C     C_3   0.730676 0.285762 0.746916 0.167757
C174  C     C_3   0.338453 0.710314 0.184833 0.170115
C175  C     C_3   0.318640 0.325667 0.825339 0.170737
C176  C     C_R   0.326560 0.419423 0.642285 -0.173313
C177  C     C_3   0.752362 0.711765 0.257454 0.176330
C178  C     C_3   0.269311 0.714225 0.746918 0.167746
C179  C     C_3   0.661547 0.289687 0.184828 0.170117
C180  C     C_3   0.772736 0.329468 0.236016 0.095330
C181  C     C_3   0.179326 0.739657 0.660471 0.148685
C182  C     C_3   0.715551 0.821675 0.311269 0.095222
C183  C     C_3   0.316026 0.224044 0.747885 0.131522
C184  C     C_3   0.227260 0.670531 0.236014 0.095337
C185  C     C_3   0.820674 0.260350 0.660476 0.148673
C186  C     C_3   0.284460 0.178328 0.311247 0.095222
C187  C     C_R   0.697763 0.609226 0.397465 -0.192921
C188  C     C_3   0.683949 0.775944 0.747919 0.131494
C189  C     C_3   0.198536 0.157683 0.326825 0.168344
C190  C     C_3   0.773141 0.777555 0.752723 0.170096
C191  C     C_3   0.206792 0.755687 0.254475 0.182680
C192  C     C_3   0.812725 0.172426 0.678655 0.164114
C193  C     C_3   0.801481 0.842308 0.326829 0.168360
C194  C     C_3   0.226833 0.222437 0.752707 0.170195
C195  C     C_3   0.793203 0.244311 0.254476 0.182677
C196  C     C_3   0.187285 0.827578 0.678661 0.164079
C197  C     C_3   0.277451 0.801457 0.764676 0.136347
C198  C     C_R   0.395586 0.301411 0.395368 -0.158315
C199  C     C_3   0.682842 0.204461 0.204456 0.141131
C200  C     C_3   0.228877 0.323483 0.830462 0.143777
C201  C     C_3   0.837778 0.731507 0.274612 0.146535
C202  C     C_3   0.722546 0.198527 0.764663 0.136330
C203  C     C_3   0.317155 0.795539 0.204461 0.141118
C204  C     C_3   0.771122 0.676506 0.830472 0.143766
C205  C     C_3   0.162214 0.268484 0.274627 0.146525
C206  C     C_3   0.183620 0.241500 0.356605 0.160603
C207  C     C_3   0.777466 0.688566 0.742996 0.101978
C208  C     C_3   0.289115 0.771313 0.285106 0.159014
H1    H     H_    0.423901 0.753784 0.600008 0.092261
H2    H     H_    0.541940 0.717609 0.661135 0.110991
H3    H     H_    0.570784 0.813294 0.117509 0.262186
H4    H     H_    0.675928 0.882031 0.162336 0.171654
H5    H     H_    0.723783 0.809949 0.105228 0.191262
H6    H     H_    0.154893 0.568608 0.704364 0.248979
H7    H     H_    0.188355 0.554462 0.800900 0.267455
H8    H     H_    0.088046 0.540905 0.778764 0.256134
H9    H     H_    0.126362 0.668086 0.848172 0.187974
H10   H     H_    0.064832 0.675376 0.765235 0.182547
H11   H     H_    0.672663 0.421104 0.050184 0.276554
H12   H     H_    0.738981 0.459922 0.120524 0.268327
H13   H     H_    0.721644 0.458248 0.344847 0.128119
H14   H     H_    0.765887 0.455057 0.020711 0.253644
H15   H     H_    0.833277 0.350776 0.078560 0.172728
H16   H     H_    0.752725 0.306541 0.030449 0.190490
H17   H     H_    0.631785 0.657910 0.972589 0.268900
H18   H     H_    0.573987 0.571230 0.961799 0.250952
H19   H     H_    0.677392 0.564297 0.958968 0.273767
H20   H     H_    0.565445 0.626959 0.837942 0.191587
H21   H     H_    0.639497 0.555295 0.828133 0.171652
H22   H     H_    0.289301 0.404040 0.102125 0.266943
H23   H     H_    0.230715 0.317841 0.111809 0.278326
H24   H     H_    0.245733 0.579409 0.601891 0.103437
H25   H     H_    0.192880 0.410469 0.141305 0.266956
H26   H     H_    0.265245 0.414642 0.253270 0.166748
H27   H     H_    0.343031 0.359863 0.216232 0.191073
H28   H     H_    0.744877 0.350197 0.887411 0.269846
H29   H     H_    0.672890 0.424938 0.880452 0.249911
H30   H     H_    0.642578 0.327367 0.896430 0.270845
H31   H     H_    0.694296 0.406848 0.750987 0.185791
H32   H     H_    0.617457 0.338881 0.765458 0.173744
H33   H     H_    0.485135 0.678921 0.049708 0.257009
H34   H     H_    0.384655 0.700179 0.032526 0.267398
H35   H     H_    0.573596 0.752763 0.395333 0.122510
H36   H     H_    0.446775 0.772284 0.075086 0.269401
H37   H     H_    0.463013 0.691476 0.191396 0.176119
H38   H     H_    0.410123 0.613575 0.149426 0.187140
H39   H     H_    0.368240 0.342053 0.972556 0.268895
H40   H     H_    0.426048 0.428727 0.961765 0.250944
H41   H     H_    0.322644 0.435674 0.958955 0.273754
H42   H     H_    0.434558 0.373013 0.837899 0.191581
H43   H     H_    0.360510 0.444683 0.828113 0.171652
H44   H     H_    0.710640 0.595955 0.102134 0.266949
H45   H     H_    0.769208 0.682169 0.111796 0.278321
H46   H     H_    0.458065 0.282412 0.661163 0.110849
H47   H     H_    0.807073 0.589550 0.141288 0.266972
H48   H     H_    0.734720 0.585363 0.253266 0.166756
H49   H     H_    0.656933 0.640156 0.216249 0.191076
H50   H     H_    0.255088 0.649777 0.887405 0.269842
H51   H     H_    0.327076 0.575037 0.880451 0.249907
H52   H     H_    0.357386 0.672607 0.896435 0.270854
H53   H     H_    0.305667 0.593132 0.750985 0.185798
H54   H     H_    0.382519 0.661083 0.765463 0.173749
H55   H     H_    0.514885 0.321081 0.049682 0.257013
H56   H     H_    0.615362 0.299791 0.032522 0.267400
H57   H     H_    0.278349 0.541756 0.344853 0.128117
H58   H     H_    0.553215 0.227714 0.075083 0.269400
H59   H     H_    0.536986 0.308535 0.191381 0.176106
H60   H     H_    0.589885 0.386426 0.149407 0.187146
H61   H     H_    0.822998 0.368709 0.373153 0.269835
H62   H     H_    0.919136 0.367093 0.332843 0.265788
H63   H     H_    0.873230 0.457372 0.352606 0.265255
H64   H     H_    0.876761 0.395626 0.208953 0.187304
H65   H     H_    0.797239 0.453342 0.240452 0.181489
H66   H     H_    0.101177 0.709221 0.478941 0.254917
H67   H     H_    0.184924 0.764871 0.508412 0.276357
H68   H     H_    0.754266 0.420590 0.601893 0.103441
H69   H     H_    0.188481 0.660817 0.506549 0.257342
H70   H     H_    0.106292 0.646308 0.614692 0.189213
H71   H     H_    0.066663 0.741291 0.606176 0.182790
H72   H     H_    0.654484 0.845294 0.451401 0.270724
H73   H     H_    0.686004 0.942435 0.430047 0.258782
H74   H     H_    0.584532 0.919536 0.428470 0.260572
H75   H     H_    0.655195 0.931162 0.296501 0.182258
H76   H     H_    0.592775 0.849649 0.310948 0.194572
H77   H     H_    0.330812 0.111605 0.595097 0.256999
H78   H     H_    0.321799 0.215182 0.597958 0.271297
H79   H     H_    0.919385 0.252488 0.112051 0.079246
H80   H     H_    0.415643 0.170067 0.591390 0.238264
H81   H     H_    0.425982 0.168099 0.721755 0.168525
H82   H     H_    0.345079 0.104470 0.726404 0.178071
H83   H     H_    0.176987 0.631292 0.373147 0.269831
H84   H     H_    0.080853 0.632909 0.332827 0.265780
H85   H     H_    0.126754 0.542630 0.352596 0.265253
H86   H     H_    0.123240 0.604368 0.208942 0.187309
H87   H     H_    0.202761 0.546655 0.240453 0.181488
H88   H     H_    0.898843 0.290795 0.478957 0.254917
H89   H     H_    0.815088 0.235151 0.508415 0.276350
H90   H     H_    0.045864 0.774640 0.847060 0.090574
H91   H     H_    0.811537 0.339204 0.506553 0.257336
H92   H     H_    0.893700 0.353712 0.614712 0.189198
H93   H     H_    0.933344 0.258736 0.606194 0.182829
H94   H     H_    0.345543 0.154684 0.451362 0.270737
H95   H     H_    0.314048 0.057539 0.429988 0.258790
H96   H     H_    0.415514 0.080466 0.428406 0.260591
H97   H     H_    0.344833 0.068855 0.296442 0.182266
H98   H     H_    0.407240 0.150377 0.310903 0.194576
H99   H     H_    0.669516 0.888331 0.595248 0.257192
H100  H     H_    0.677932 0.784704 0.597979 0.271127
H101  H     H_    0.215544 0.042496 0.164405 0.092742
H102  H     H_    0.584332 0.830341 0.591420 0.238237
H103  H     H_    0.573964 0.831813 0.721787 0.168473
H104  H     H_    0.654797 0.895523 0.726516 0.178007
H105  H     H_    0.061432 0.025769 0.390963 0.253713
H106  H     H_    0.049812 0.118391 0.343891 0.281104
H107  H     H_    0.079872 0.035126 0.289754 0.276904
H108  H     H_    0.205211 0.033459 0.343201 0.192209
H109  H     H_    0.177408 0.087151 0.427284 0.195013
H110  H     H_    0.814565 0.783485 0.607316 0.269350
H111  H     H_    0.798339 0.887241 0.606310 0.256412
H112  H     H_    0.543586 0.281847 0.338083 0.091913
H113  H     H_    0.746205 0.921576 0.897716 0.090883
H114  H     H_    0.894470 0.850612 0.613299 0.244579
H115  H     H_    0.808341 0.898597 0.737638 0.169819
H116  H     H_    0.886937 0.831351 0.742137 0.185294
H117  H     H_    0.090666 0.891321 0.340576 0.255965
H118  H     H_    0.164400 0.903165 0.268277 0.276894
H119  H     H_    0.066738 0.878014 0.241792 0.265824
H120  H     H_    0.082883 0.749021 0.267106 0.175521
H121  H     H_    0.133959 0.766967 0.354983 0.195606
H122  H     H_    0.804054 0.100180 0.540279 0.270142
H123  H     H_    0.903260 0.135056 0.535590 0.271379
H124  H     H_    0.080614 0.747512 0.112049 0.079245
H125  H     H_    0.883943 0.033915 0.550190 0.250184
H126  H     H_    0.925048 0.116295 0.669094 0.172660
H127  H     H_    0.844949 0.050784 0.679058 0.191944
H128  H     H_    0.938605 0.974216 0.390943 0.253721
H129  H     H_    0.950209 0.881598 0.343860 0.281113
H130  H     H_    0.920132 0.964868 0.289740 0.276904
H131  H     H_    0.794811 0.966531 0.343230 0.192221
H132  H     H_    0.822643 0.912824 0.427294 0.194987
H133  H     H_    0.184999 0.216538 0.607318 0.269500
H134  H     H_    0.201983 0.112928 0.606370 0.256863
H135  H     H_    0.954134 0.225360 0.847058 0.090578
H136  H     H_    0.105595 0.148839 0.613317 0.244752
H137  H     H_    0.191550 0.101401 0.737711 0.169911
H138  H     H_    0.113005 0.168715 0.742122 0.185404
H139  H     H_    0.909337 0.108682 0.340578 0.255964
H140  H     H_    0.835604 0.096833 0.268278 0.276892
H141  H     H_    0.933264 0.121992 0.241795 0.265821
H142  H     H_    0.917109 0.250983 0.267115 0.175527
H143  H     H_    0.866031 0.233032 0.354990 0.195605
H144  H     H_    0.195992 0.899842 0.540298 0.270138
H145  H     H_    0.096781 0.864980 0.535585 0.271345
H146  H     H_    0.784452 0.957501 0.164402 0.092744
H147  H     H_    0.116111 0.966116 0.550204 0.250197
H148  H     H_    0.074972 0.883727 0.669088 0.172645
H149  H     H_    0.155079 0.949224 0.679075 0.191989
H150  H     H_    0.268514 0.785980 0.914640 0.272015
H151  H     H_    0.369898 0.800253 0.936314 0.246145
H152  H     H_    0.306984 0.881527 0.932806 0.241594
H153  H     H_    0.394384 0.806701 0.807306 0.176996
H154  H     H_    0.347021 0.897950 0.808842 0.175818
H155  H     H_    0.567797 0.101569 0.287869 0.267704
H156  H     H_    0.531851 0.183898 0.235325 0.257293
H157  H     H_    0.253795 0.078421 0.897718 0.090896
H158  H     H_    0.518042 0.086998 0.198874 0.256683
H159  H     H_    0.624032 0.128522 0.123834 0.180038
H160  H     H_    0.669606 0.078785 0.202056 0.168540
H161  H     H_    0.228866 0.329544 0.979643 0.278999
H162  H     H_    0.180510 0.421425 0.994412 0.256179
H163  H     H_    0.124826 0.335861 0.978738 0.249323
H164  H     H_    0.207864 0.440899 0.866985 0.183082
H165  H     H_    0.121002 0.385787 0.854382 0.190596
H166  H     H_    0.930983 0.614451 0.358066 0.270130
H167  H     H_    0.854295 0.575815 0.298664 0.260515
H168  H     H_    0.923469 0.747130 0.892371 0.104510
H169  H     H_    0.953882 0.565340 0.270503 0.263715
H170  H     H_    0.906209 0.667077 0.192145 0.193176
H171  H     H_    0.961113 0.713920 0.266853 0.173663
H172  H     H_    0.731469 0.213995 0.914630 0.272012
H173  H     H_    0.630081 0.199724 0.936287 0.246145
H174  H     H_    0.692994 0.118449 0.932793 0.241581
H175  H     H_    0.605609 0.193256 0.807277 0.176999
H176  H     H_    0.652993 0.102017 0.808818 0.175795
H177  H     H_    0.432182 0.898452 0.287887 0.267708
H178  H     H_    0.468133 0.816111 0.235365 0.257288
H179  H     H_    0.041119 0.220798 0.155219 0.092892
H180  H     H_    0.481953 0.913003 0.198899 0.256685
H181  H     H_    0.375973 0.871480 0.123847 0.180032
H182  H     H_    0.330384 0.921216 0.202062 0.168539
H183  H     H_    0.875200 0.664128 0.978739 0.249309
H184  H     H_    0.771161 0.670455 0.979647 0.278993
H185  H     H_    0.819508 0.578569 0.994414 0.256164
H186  H     H_    0.792161 0.559093 0.866986 0.183096
H187  H     H_    0.879012 0.614223 0.854375 0.190598
H188  H     H_    0.069011 0.385512 0.358117 0.270134
H189  H     H_    0.145679 0.424169 0.298703 0.260516
H190  H     H_    0.223551 0.952237 0.842329 0.097896
H191  H     H_    0.046085 0.434633 0.270566 0.263720
H192  H     H_    0.093759 0.332917 0.192183 0.193182
H193  H     H_    0.038876 0.286050 0.266891 0.173675
H194  H     H_    0.747294 0.072574 0.101831 0.083155
H195  H     H_    0.076533 0.252869 0.892369 0.104504
H196  H     H_    0.721175 0.543461 0.657269 0.094463
H197  H     H_    0.958878 0.779200 0.155214 0.092886
H198  H     H_    0.776452 0.047757 0.842326 0.097906
H199  H     H_    0.252707 0.927424 0.101829 0.083156
H200  H     H_    0.030031 0.249710 0.399173 0.265815
H201  H     H_    0.066044 0.174767 0.463203 0.274461
H202  H     H_    0.043880 0.269027 0.499696 0.254124
H203  H     H_    0.188774 0.239169 0.479848 0.179108
H204  H     H_    0.153482 0.328315 0.441899 0.183259
H205  H     H_    0.931197 0.719667 0.661180 0.271431
H206  H     H_    0.931263 0.689700 0.760045 0.248541
H207  H     H_    0.245817 0.417848 0.397422 0.097162
H208  H     H_    0.958580 0.622660 0.685222 0.255520
H209  H     H_    0.832670 0.581441 0.709344 0.180850
H210  H     H_    0.817792 0.648010 0.631093 0.190016
H211  H     H_    0.287033 0.925701 0.327881 0.266662
H212  H     H_    0.216805 0.885464 0.395433 0.284199
H213  H     H_    0.310373 0.914440 0.427598 0.251560
H214  H     H_    0.288621 0.767681 0.410108 0.186224
H215  H     H_    0.373484 0.811322 0.369763 0.189207
H216  H     H_    0.724280 0.017034 0.611963 0.271415
H217  H     H_    0.701105 0.028477 0.712074 0.246560
H218  H     H_    0.576097 0.246216 0.600011 0.092252
H219  H     H_    0.625737 0.006280 0.643708 0.262334
H220  H     H_    0.606040 0.137777 0.661371 0.171420
H221  H     H_    0.665064 0.135962 0.575842 0.192745
H222  H     H_    0.969998 0.750251 0.399117 0.265820
H223  H     H_    0.934014 0.825196 0.463160 0.274440
H224  H     H_    0.956177 0.730933 0.499643 0.254107
H225  H     H_    0.811284 0.760807 0.479842 0.179115
H226  H     H_    0.846549 0.671660 0.441873 0.183250
H227  H     H_    0.068779 0.280302 0.661226 0.271473
H228  H     H_    0.068705 0.310353 0.760068 0.248554
H229  H     H_    0.456412 0.718153 0.338084 0.091903
H230  H     H_    0.041394 0.377332 0.685189 0.255562
H231  H     H_    0.167310 0.418559 0.709352 0.180901
H232  H     H_    0.182175 0.351996 0.631093 0.190011
H233  H     H_    0.712968 0.074295 0.327866 0.266650
H234  H     H_    0.783187 0.114530 0.395429 0.284184
H235  H     H_    0.689617 0.085548 0.427582 0.251577
H236  H     H_    0.711370 0.232311 0.410105 0.186218
H237  H     H_    0.626508 0.188672 0.369755 0.189199
H238  H     H_    0.275780 0.982985 0.611993 0.271452
H239  H     H_    0.298885 0.971495 0.712118 0.246550
H240  H     H_    0.278797 0.456522 0.657244 0.094458
H241  H     H_    0.374309 0.993699 0.643811 0.262241
H242  H     H_    0.393974 0.862200 0.661401 0.171399
H243  H     H_    0.334955 0.864045 0.575869 0.192729
H244  H     H_    0.522921 0.770323 0.826486 0.245490
H245  H     H_    0.529622 0.732911 0.922619 0.277143
H246  H     H_    0.503105 0.832195 0.907730 0.257280
H247  H     H_    0.646189 0.803380 0.949886 0.195256
H248  H     H_    0.628020 0.871987 0.874139 0.170407
H249  H     H_    0.379995 0.278042 0.115992 0.273228
H250  H     H_    0.412967 0.238194 0.206220 0.252138
H251  H     H_    0.754184 0.582149 0.397427 0.097168
H252  H     H_    0.429186 0.186741 0.117464 0.262173
H253  H     H_    0.324054 0.117992 0.162296 0.171647
H254  H     H_    0.276182 0.190078 0.105209 0.191270
H255  H     H_    0.845098 0.431403 0.704389 0.248978
H256  H     H_    0.811594 0.445524 0.800912 0.267468
H257  H     H_    0.911908 0.459103 0.778819 0.256138
H258  H     H_    0.873612 0.331907 0.848191 0.187974
H259  H     H_    0.935149 0.324637 0.765257 0.182555
H260  H     H_    0.234127 0.544951 0.020692 0.253642
H261  H     H_    0.327345 0.578887 0.050211 0.276547
H262  H     H_    0.426409 0.247238 0.395326 0.122513
H263  H     H_    0.260989 0.540070 0.120518 0.268323
H264  H     H_    0.166729 0.649232 0.078547 0.172731
H265  H     H_    0.247292 0.693459 0.030447 0.190501
H266  H     H_    0.477070 0.229638 0.826416 0.245486
H267  H     H_    0.470390 0.267054 0.922553 0.277149
H268  H     H_    0.496895 0.167766 0.907660 0.257280
H269  H     H_    0.353826 0.196585 0.949840 0.195266
H270  H     H_    0.371973 0.127986 0.874079 0.170412
H271  H     H_    0.619967 0.721990 0.116020 0.273233
H272  H     H_    0.587015 0.761833 0.206258 0.252138
N1    N     N_R   0.424590 0.632770 0.578330 -0.036991
N2    N     N_R   0.575410 0.632770 0.578330 -0.041424
N3    N     N_R   0.632770 0.424590 0.421670 -0.040244
N4    N     N_R   0.367230 0.575410 0.578330 -0.039423
N5    N     N_R   0.575410 0.632770 0.421670 -0.036895
N6    N     N_R   0.424590 0.367230 0.578330 -0.041436
N7    N     N_R   0.367230 0.575410 0.421670 -0.040246
N8    N     N_R   0.632770 0.424590 0.578330 -0.039424
N9    N     N_R   0.924590 0.132770 0.078330 -0.040269
N10   N     N_R   0.075410 0.867230 0.921670 -0.037963
N11   N     N_R   0.132770 0.075410 0.078330 -0.038265
N12   N     N_R   0.575410 0.367230 0.421670 -0.035262
N13   N     N_R   0.867230 0.924590 0.921670 -0.036597
N14   N     N_R   0.075410 0.867230 0.078330 -0.040271
N15   N     N_R   0.924590 0.132770 0.921670 -0.037963
N16   N     N_R   0.867230 0.924590 0.078330 -0.038264
N17   N     N_R   0.132770 0.075410 0.921670 -0.036595
N18   N     N_R   0.924590 0.867230 0.921670 -0.041073
N19   N     N_R   0.075410 0.132770 0.078330 -0.037573
N20   N     N_R   0.132770 0.924590 0.921670 -0.041891
N21   N     N_R   0.867230 0.075410 0.078330 -0.035949
N22   N     N_R   0.075410 0.132770 0.921670 -0.041072
N23   N     N_R   0.632770 0.575410 0.578330 -0.036026
N24   N     N_R   0.924590 0.867230 0.078330 -0.037573
N25   N     N_R   0.867230 0.075410 0.921670 -0.041895
N26   N     N_R   0.132770 0.924590 0.078330 -0.035949
N27   N     N_R   0.367230 0.424590 0.421670 -0.034554
N28   N     N_R   0.575410 0.367230 0.578330 -0.037003
N29   N     N_R   0.424590 0.632770 0.421670 -0.035261
N30   N     N_R   0.367230 0.424590 0.578330 -0.036020
N31   N     N_R   0.632770 0.575410 0.421670 -0.034555
N32   N     N_R   0.424590 0.367230 0.421670 -0.036897
Ni1   Ni    Ni4+2 0.500000 0.631570 0.500000 0.201112
Ni2   Ni    Ni4+2 0.500000 0.368430 0.500000 0.201094
Ni3   Ni    Ni4+2 0.631570 0.500000 0.500000 0.201058
Ni4   Ni    Ni4+2 0.368430 0.500000 0.500000 0.201068
Ni5   Ni    Ni4+2 0.000000 0.131570 0.000000 0.198911
Ni6   Ni    Ni4+2 0.000000 0.868430 0.000000 0.198912
Ni7   Ni    Ni4+2 0.131570 0.000000 0.000000 0.197674
Ni8   Ni    Ni4+2 0.868430 0.000000 0.000000 0.197675

loop_
_geom_bond_atom_site_label_1
_geom_bond_atom_site_label_2
_ccdc_geom_bond_type
C118  H178  S    
C22   H212  S    
C151  C197  S    
C65   H54   S    
C61   C175  S    
C31   H233  S    
C15   C151  S    
C109  C200  S    
C50   H16   S    
C60   H33   S    
C70   C180  S    
C17   C206  S    
C154  C158  A    
C116  H173  S    
C115  C202  S    
C30   H237  S    
C65   C178  S    
C83   H97   S    
C10   C185  S    
C1    N1    A    
C53   H17   S    
C124  C168  A    
C107  H159  S    
C19   C20   S    
C61   H42   S    
N8    Ni3   S    
C138  C174  S    
C45   H5    S    
C143  C157  A    
C129  N20   A    
C121  C205  S    
C125  C169  A    
N24   Ni6   S    
C16   C179  S    
C119  H187  S    
C148  C191  S    
C86   H100  S    
C57   C159  A    
C122  H188  S    
C59   C60   S    
C70   H65   S    
C21   C22   S    
N13   Ni8   S    
C97   H129  S    
C102  H139  S    
C68   C158  A    
N2    Ni1   S    
C14   C182  S    
C108  H158  S    
C17   H203  S    
C5    C200  S    
C145  C166  S    
C45   C47   S    
C45   H4    S    
C39   H259  S    
N17   N22   A    
C89   H115  S    
C113  C166  A    
C128  N19   A    
C120  H185  S    
C122  H189  S    
C73   H69   S    
C17   H204  S    
C1    H1    S    
C110  H163  S    
C151  C196  S    
C7    C197  S    
C43   C44   S    
C37   C38   S    
C99   H134  S    
N27   Ni4   S    
N30   Ni4   S    
C189  C206  S    
C71   H61   S    
C46   C160  A    
C184  C191  S    
N20   Ni7   S    
N22   Ni5   S    
C84   H94   S    
C96   C193  S    
C6    C30   S    
C144  C178  S    
C74   H75   S    
C38   H250  S    
N14   Ni6   S    
C103  C196  S    
C187  H251  S    
C108  H156  S    
C185  C192  S    
C98   H137  S    
C2    C156  A    
C136  C186  S    
C114  H169  S    
C34   H247  S    
C56   H32   S    
C119  C204  S    
C77   H77   S    
C72   C73   S    
N6    N30   A    
C81   H93   S    
C101  N11   A    
N23   Ni3   S    
C49   H7    S    
C100  H142  S    
C40   H255  S    
C53   H19   S    
C95   H122  S    
C46   N6    A    
C78   H87   S    
C44   H267  S    
C123  H124  S    
C32   H243  S    
C88   H105  S    
C59   H38   S    
C72   H70   S    
C26   H226  S    
N7    N29   A    
C132  H196  S    
N10   Ni6   S    
C133  H197  S    
C79   N9    A    
C98   C99   S    
N16   N24   A    
C3    C202  S    
N15   Ni5   S    
C67   C179  S    
C150  C201  S    
C7    C196  S    
C112  N12   A    
C39   H258  S    
C5    C194  S    
C35   N5    A    
N5    Ni1   S    
C139  C185  S    
C35   H35   S    
C47   H3    S    
C145  C190  S    
N9    N21   A    
C111  C201  S    
C126  N17   A    
C4    C201  S    
N2    N23   A    
C69   H55   S    
C85   C86   S    
C110  H161  S    
C129  C163  A    
C35   C161  A    
C18   H201  S    
N13   N18   A    
C172  C205  S    
C66   H52   S    
C20   H205  S    
C71   H62   S    
C97   H128  S    
C6    C199  S    
C91   H110  S    
C78   C80   S    
C52   H21   S    
C12   C183  S    
C98   C194  S    
C115  C116  S    
C5    C28   S    
C9    C146  S    
C128  C164  A    
C183  C194  S    
C188  C190  S    
C157  C198  A    
C25   H217  S    
C171  C204  S    
C181  C196  S    
C116  H172  S    
C64   H44   S    
C126  H157  S    
C5    C141  S    
C104  H144  S    
C142  C180  S    
C83   C84   S    
C89   C190  S    
C143  H207  S    
C23   H221  S    
C89   C91   S    
C105  H154  S    
C76   H82   S    
C21   H215  S    
C92   C191  S    
N3    Ni3   S    
C137  C188  S    
C165  H229  S    
C90   H90   S    
C104  H145  S    
C92   H120  S    
C55   H22   S    
C37   H253  S    
C15   C48   S    
C146  C205  S    
C135  H199  S    
C9    C37   S    
N5    N31   A    
C85   H104  S    
C79   H79   S    
C134  C168  A    
C176  N30   A    
C54   C172  S    
C106  H151  S    
C9    C186  S    
C39   C40   S    
C138  C208  S    
C80   H84   S    
C134  N25   A    
C51   H11   S    
C24   N4    A    
C146  C164  S    
C112  C155  A    
C88   H107  S    
C140  C182  S    
C159  C165  A    
C141  C183  S    
C47   H272  S    
C126  C170  A    
C130  H194  S    
C62   H40   S    
C63   H48   S    
C136  C172  S    
C73   H66   S    
C117  H181  S    
C17   C18   S    
C83   C186  S    
C8    C34   S    
N11   N19   A    
N8    N28   A    
C28   H231  S    
C57   N7    A    
C177  C201  S    
C176  H240  S    
C3    C139  S    
C54   H26   S    
C134  H198  S    
C115  H175  S    
C52   C53   S    
C90   N10   A    
N9    Ni5   S    
C64   H45   S    
C148  C167  S    
C54   C55   S    
C11   C174  S    
N11   Ni7   S    
C127  H168  S    
C22   H213  S    
C178  C197  S    
C65   H53   S    
C11   C184  S    
C13   H13   S    
C66   H50   S    
C38   H249  S    
N4    Ni4   S    
C74   C182  S    
C112  H112  S    
C203  C208  S    
C60   H34   S    
C94   H126  S    
C33   H239  S    
C75   H72   S    
C64   H47   S    
C113  N13   A    
C116  H174  S    
C117  C118  S    
C136  C206  S    
C67   H60   S    
N27   N32   A    
C127  N18   A    
C85   C188  S    
C18   H200  S    
C105  C197  S    
C132  C156  A    
C56   C58   S    
C34   C36   S    
C61   C62   S    
N26   Ni7   S    
C95   H123  S    
C63   C64   S    
N29   Ni1   S    
C190  C207  S    
C43   H270  S    
C44   H266  S    
C36   H245  S    
C104  H147  S    
C32   H242  S    
C41   H264  S    
C135  C167  A    
N21   Ni8   S    
C113  H113  S    
C16   C180  S    
C30   H236  S    
C19   H210  S    
C87   C88   S    
N15   N25   A    
C58   H29   S    
C41   C42   S    
C102  H140  S    
C59   C174  S    
C93   H118  S    
C108  H155  S    
N28   Ni2   S    
C48   H10   S    
C8    C188  S    
C75   H74   S    
C26   C27   S    
C114  H166  S    
C21   C208  S    
C28   C29   S    
C16   C50   S    
C72   C181  S    
C58   H28   S    
C63   H49   S    
C137  C207  S    
C30   C31   S    
C121  H193  S    
C187  N31   A    
C198  H262  S    
N1    N4    A    
C2    N2    A    
C198  N32   A    
C133  C169  A    
C99   H133  S    
C93   H119  S    
C144  C181  S    
C91   H111  S    
C52   H20   S    
C92   H121  S    
N6    Ni2   S    
N32   Ni2   S    
C27   H224  S    
C146  C189  S    
C70   C71   S    
C7    C32   S    
C14   C45   S    
C76   C183  S    
C152  C195  S    
C48   H9    S    
C120  H183  S    
C10   C173  S    
C74   H76   S    
C118  H177  S    
N14   N26   A    
C22   H211  S    
N16   Ni8   S    
C31   H234  S    
C6    C195  S    
C98   H138  S    
C4    C193  S    
N31   Ni3   S    
C50   H15   S    
C60   H36   S    
C23   H220  S    
C133  N24   A    
C55   H23   S    
C81   H92   S    
C69   H58   S    
C82   H91   S    
C83   H98   S    
C49   H6    S    
C29   H228  S    
C152  C199  S    
C173  C202  S    
C56   C173  S    
C40   H256  S    
C150  C193  S    
C34   H248  S    
C53   H18   S    
C37   H254  S    
C44   H268  S    
C204  C207  S    
C61   H43   S    
C20   H208  S    
C14   C150  S    
C88   H106  S    
C50   C51   S    
N18   Ni6   S    
C16   C152  S    
C182  C193  S    
C1    C153  A    
C121  C122  S    
C180  C195  S    
C143  N27   A    
C48   C49   S    
C97   H130  S    
C79   C162  A    
C24   C153  A    
C154  H218  S    
C100  C195  S    
C42   H263  S    
C89   H116  S    
C12   C149  S    
C101  C164  A    
C24   H24   S    
C103  H149  S    
C145  C204  S    
C4    C26   S    
C119  C120  S    
C131  H195  S    
C105  C106  S    
C110  H162  S    
N12   Ni2   S    
C18   H202  S    
C90   C163  A    
C123  N14   A    
C32   C33   S    
C186  C189  S    
N1    Ni1   S    
C161  C187  A    
C20   H206  S    
C109  C110  S    
C111  H170  S    
C25   H219  S    
C179  C199  S    
C127  C166  A    
C15   C181  S    
C27   H222  S    
C92   C93   S    
C130  N21   A    
C111  C114  S    
C25   H216  S    
C94   C95   S    
C11   C148  S    
C6    C142  S    
C147  C168  S    
C149  C200  S    
C125  H146  S    
C103  C104  S    
C124  N15   A    
C10   C39   S    
C9    C172  S    
C82   H88   S    
C129  H190  S    
C51   H14   S    
C3    C192  S    
C105  H153  S    
C40   H257  S    
C46   H46   S    
C152  C162  S    
C21   H214  S    
N10   N20   A    
C107  C199  S    
C36   H244  S    
C131  C170  A    
C87   H108  S    
C131  N22   A    
C138  C184  S    
C56   H31   S    
C3    C23   S    
C77   H78   S    
C81   C82   S    
C82   H89   S    
C85   H103  S    
C205  C206  S    
N3    N12   A    
C49   H8    S    
C125  N16   A    
C106  H152  S    
C12   C43   S    
C78   H86   S    
C150  C169  S    
C135  N26   A    
C128  H179  S    
C42   H260  S    
C107  H160  S    
C26   H225  S    
C144  C153  S    
C91   H114  S    
C47   H271  S    
C13   C155  A    
C103  H148  S    
C119  H186  S    
C138  C159  S    
C62   H41   S    
C139  C158  S    
C13   N3    A    
C142  C155  S    
C87   H109  S    
C10   C147  S    
C87   C189  S    
C123  C167  A    
C132  N23   A    
C28   H232  S    
C57   H57   S    
C42   H261  S    
C84   H96   S    
C19   C207  S    
C160  C176  A    
C154  N28   A    
C54   H27   S    
C55   H25   S    
C52   C171  S    
C81   C185  S    
C7    C144  S    
C140  C177  S    
C69   H56   S    
C165  N29   A    
C2    H2    S    
C118  H180  S    
C74   C75   S    
C149  C170  S    
C76   C77   S    
C59   H37   S    
C66   H51   S    
C29   H227  S    
C31   H235  S    
C41   H265  S    
C140  C161  S    
C94   H127  S    
C68   N8    A    
C137  C156  S    
C67   C69   S    
C38   H252  S    
C149  C194  S    
C4    C140  S    
C84   H95   S    
C67   H59   S    
C80   H85   S    
C141  C160  S    
C70   H64   S    
C142  C179  S    
C68   H68   S    
C147  C192  S    
C107  C108  S    
C96   C97   S    
C8    C145  S    
C100  C102  S    
C109  H165  S    
C96   H131  S    
C76   H81   S    
C12   C175  S    
C96   H132  S    
C136  C157  S    
C43   H269  S    
C36   H246  S    
C151  C163  S    
C139  C173  S    
C77   H80   S    
C141  C175  S    
C19   H209  S    
C86   H102  S    
C86   H99   S    
C100  H143  S    
C147  C202  S    
C106  H150  S    
C102  H141  S    
C78   C184  S    
C124  H135  S    
C95   H125  S    
C93   H117  S    
C8    C171  S    
C80   H83   S    
C51   H12   S    
N7    Ni4   S    
C75   H73   S    
C114  H167  S    
C63   C177  S    
C72   H71   S    
C33   H241  S    
C117  C203  S    
C121  H192  S    
C130  C162  A    
C62   H39   S    
C122  H191  S    
C73   H67   S    
C117  H182  S    
C174  C203  S    
C11   C41   S    
C191  C208  S    
C23   C25   S    
N25   Ni8   S    
C94   C192  S    
C175  C200  S    
C137  C171  S    
C14   C177  S    
C99   H136  S    
C111  H171  S    
C101  H101  S    
C71   H63   S    
C65   C66   S    
N17   Ni7   S    
C15   C178  S    
C27   H223  S    
C29   H230  S    
C109  H164  S    
N19   Ni5   S    
C58   H30   S    
C115  H176  S    
C148  C203  S    
C33   H238  S    
C120  H184  S    
