data_mof_unit_38414.cif
_audit_creation_date              2012-12-10T20:52:59-0500
_audit_creation_method            fapswitch 2.2
_symmetry_space_group_name_H-M    P1
_symmetry_Int_Tables_number       1
_space_group_crystal_system       triclinic
_cell_length_a                    18.310332
_cell_length_b                    18.310333
_cell_length_c                    18.310332
_cell_angle_alpha                 60.309251
_cell_angle_beta                  60.30925
_cell_angle_gamma                 60.309249
_cell_volume                      4371.21480174

loop_
_atom_site_label
_atom_site_type_symbol
_atom_type_description
_atom_site_fract_x
_atom_site_fract_y
_atom_site_fract_z
_atom_type_partial_charge
C1    C     C_R   0.389277 0.102821 0.117235 0.787219
C2    C     C_R   0.380574 0.807109 0.781458 -0.225358
C3    C     C_R   0.026661 0.580997 0.917324 -0.046533
C4    C     C_R   0.405360 0.019088 0.032787 -0.088486
C5    C     C_R   0.580997 0.917324 0.026661 -0.046533
C6    C     C_R   0.935781 0.957188 0.552908 -0.088477
C7    C     C_R   0.030560 0.077523 0.441881 -0.103814
C8    C     C_R   0.957188 0.552908 0.935781 -0.088477
C9    C     C_R   0.077523 0.441882 0.030560 -0.103814
C10   C     C_R   0.552908 0.935781 0.957188 -0.088477
C11   C     C_R   0.441881 0.030560 0.077523 -0.103814
C12   C     C_3   0.887508 0.167742 0.768126 -0.152731
C13   C     C_R   0.195987 0.225802 0.612249 -0.229163
C14   C     C_3   0.114652 0.852044 0.221232 -0.209204
C15   C     C_3   0.167742 0.768126 0.887508 -0.152731
C16   C     C_3   0.852044 0.221232 0.114652 -0.209205
C17   C     C_3   0.768126 0.887508 0.167742 -0.152731
C18   C     C_3   0.221232 0.114652 0.852044 -0.209206
C19   C     C_3   0.940277 0.203156 0.287162 -0.303788
C20   C     C_3   0.714181 0.077031 0.642597 -0.357663
C21   C     C_3   0.203155 0.287162 0.940277 -0.303788
C22   C     C_3   0.077030 0.642596 0.714181 -0.357662
C23   C     C_3   0.287162 0.940278 0.203155 -0.303789
C24   C     C_R   0.807109 0.781458 0.380574 -0.225358
C25   C     C_3   0.642597 0.714181 0.077031 -0.357662
C26   C     C_R   0.183585 0.571042 0.285667 -0.124194
C27   C     C_R   0.821097 0.423003 0.716933 -0.092962
C28   C     C_R   0.571042 0.285667 0.183585 -0.124194
C29   C     C_R   0.423003 0.716933 0.821097 -0.092962
C30   C     C_R   0.285667 0.183585 0.571042 -0.124195
C31   C     C_R   0.716933 0.821097 0.423003 -0.092962
C32   C     C_R   0.092766 0.582667 0.316182 0.203793
C33   C     C_R   0.609884 0.889307 0.891201 0.857229
C34   C     C_R   0.910706 0.416377 0.684516 0.204109
C35   C     C_R   0.582667 0.316182 0.092766 0.203792
C36   C     C_R   0.416377 0.684517 0.910706 0.204110
C37   C     C_R   0.316182 0.092766 0.582667 0.203793
C38   C     C_R   0.684516 0.910706 0.416377 0.204110
C39   C     C_R   0.044692 0.636047 0.256411 -0.217666
C40   C     C_R   0.960169 0.366861 0.742871 -0.249479
C41   C     C_R   0.636047 0.256411 0.044692 -0.217666
C42   C     C_R   0.366861 0.742871 0.960169 -0.249478
C43   C     C_R   0.256411 0.044692 0.636047 -0.217666
C44   C     C_R   0.102821 0.117235 0.389277 0.787220
C45   C     C_R   0.742871 0.960169 0.366861 -0.249478
C46   C     C_R   0.086939 0.677535 0.167020 0.639339
C47   C     C_R   0.920659 0.323850 0.832663 0.638544
C48   C     C_R   0.677535 0.167020 0.086939 0.639339
C49   C     C_R   0.323850 0.832663 0.920659 0.638544
C50   C     C_R   0.167020 0.086939 0.677535 0.639339
C51   C     C_R   0.832663 0.920659 0.323850 0.638543
C52   C     C_R   0.177380 0.665656 0.136866 -0.113708
C53   C     C_R   0.831294 0.330813 0.864857 -0.099518
C54   C     C_R   0.665656 0.136866 0.177380 -0.113708
C55   C     C_R   0.889307 0.891202 0.609884 0.857229
C56   C     C_R   0.330813 0.864857 0.831294 -0.099518
C57   C     C_R   0.136866 0.177380 0.665656 -0.113709
C58   C     C_R   0.864857 0.831294 0.330813 -0.099518
C59   C     C_R   0.994604 0.589368 0.465964 0.561258
C60   C     C_R   0.005617 0.410853 0.533869 0.568480
C61   C     C_R   0.589368 0.465964 0.994604 0.561258
C62   C     C_R   0.410853 0.533869 0.005617 0.568481
C63   C     C_R   0.465964 0.994604 0.589368 0.561258
C64   C     C_R   0.533869 0.005617 0.410853 0.568480
C65   C     C_R   0.946518 0.552572 0.555058 -0.285341
C66   C     C_R   0.117234 0.389277 0.102821 0.787219
C67   C     C_R   0.053947 0.447494 0.444904 -0.285629
C68   C     C_R   0.552572 0.555058 0.946518 -0.285342
C69   C     C_R   0.447494 0.444904 0.053947 -0.285629
C70   C     C_R   0.555058 0.946518 0.552572 -0.285342
C71   C     C_R   0.444904 0.053948 0.447494 -0.285629
C72   C     C_R   0.953536 0.461801 0.589704 -0.189124
C73   C     C_R   0.047459 0.538104 0.410380 -0.190308
C74   C     C_R   0.461801 0.589704 0.953536 -0.189124
C75   C     C_R   0.538104 0.410380 0.047459 -0.190308
C76   C     C_R   0.589704 0.953536 0.461801 -0.189124
C77   C     C_R   0.891201 0.609884 0.889307 0.857229
C78   C     C_R   0.410380 0.047459 0.538104 -0.190309
C79   C     C_R   0.110037 0.390343 0.389721 0.866426
C80   C     C_R   0.890140 0.609671 0.610274 0.860850
C81   C     C_R   0.390343 0.389721 0.110037 0.866425
C82   C     C_R   0.609671 0.610274 0.890140 0.860851
C83   C     C_R   0.389721 0.110037 0.390343 0.866425
C84   C     C_R   0.610273 0.890140 0.609671 0.860851
C85   C     C_R   0.033544 0.057805 0.313222 0.552478
C86   C     C_R   0.843392 0.047875 0.656315 0.517833
C87   C     C_R   0.057805 0.313222 0.033544 0.552478
C88   C     C_R   0.225802 0.612249 0.195987 -0.229163
C89   C     C_R   0.047875 0.656315 0.843392 0.517833
C90   C     C_R   0.313222 0.033544 0.057805 0.552479
C91   C     C_R   0.656315 0.843392 0.047875 0.517833
C92   C     C_R   0.049983 0.994541 0.280565 -0.294205
C93   C     C_R   0.839858 0.103309 0.690401 -0.372230
C94   C     C_R   0.994541 0.280565 0.049983 -0.294205
C95   C     C_R   0.103309 0.690402 0.839858 -0.372228
C96   C     C_R   0.280565 0.049983 0.994541 -0.294205
C97   C     C_R   0.690402 0.839858 0.103309 -0.372230
C98   C     C_R   0.047537 0.908086 0.338758 0.543946
C99   C     C_R   0.781458 0.380574 0.807109 -0.225359
C100  C     C_R   0.903007 0.146422 0.646263 0.524103
C101  C     C_R   0.908086 0.338758 0.047537 0.543946
C102  C     C_R   0.146422 0.646263 0.903007 0.524102
C103  C     C_R   0.338758 0.047538 0.908086 0.543946
C104  C     C_R   0.646263 0.903007 0.146422 0.524102
C105  C     C_R   0.015578 0.892270 0.430404 -0.203806
C106  C     C_R   0.964188 0.140006 0.563140 -0.195583
C107  C     C_R   0.892270 0.430404 0.015578 -0.203805
C108  C     C_R   0.140006 0.563140 0.964188 -0.195583
C109  C     C_R   0.430404 0.015578 0.892270 -0.203805
C110  C     C_R   0.612250 0.195987 0.225802 -0.229164
C111  C     C_R   0.563140 0.964188 0.140006 -0.195582
C112  C     C_R   0.990998 0.958946 0.464205 -0.095228
C113  C     C_R   0.973387 0.080016 0.529265 -0.078419
C114  C     C_R   0.958946 0.464205 0.990998 -0.095229
C115  C     C_R   0.080016 0.529265 0.973387 -0.078419
C116  C     C_R   0.464205 0.990998 0.958946 -0.095229
C117  C     C_R   0.529265 0.973387 0.080016 -0.078419
C118  C     C_R   0.019088 0.032787 0.405360 -0.088486
C119  C     C_R   0.917324 0.026661 0.580996 -0.046533
C120  C     C_R   0.032787 0.405360 0.019088 -0.088486
F1    F     F_    0.993180 0.674755 0.433183 -0.641606
F2    F     F_    0.274473 0.888097 0.969488 -0.698604
F3    F     F_    0.109636 0.040136 0.729270 -0.695288
F4    F     F_    0.888097 0.969487 0.274473 -0.698604
F5    F     F_    0.006598 0.325703 0.566444 -0.640549
F6    F     F_    0.674755 0.433183 0.993180 -0.641606
F7    F     F_    0.325703 0.566444 0.006599 -0.640549
F8    F     F_    0.433183 0.993180 0.674755 -0.641606
F9    F     F_    0.566444 0.006599 0.325703 -0.640549
F10   F     F_    0.040136 0.729270 0.109636 -0.695288
F11   F     F_    0.969487 0.274473 0.888097 -0.698604
F12   F     F_    0.729270 0.109636 0.040136 -0.695288
H1    H     H_    0.063170 0.014597 0.210043 0.183616
H2    H     H_    0.185828 0.525290 0.000961 0.224278
H3    H     H_    0.474473 0.010194 0.827083 0.200214
H4    H     H_    0.525290 0.000961 0.185828 0.224278
H5    H     H_    0.209686 0.698283 0.067826 0.192383
H6    H     H_    0.800991 0.297055 0.934320 0.205867
H7    H     H_    0.698283 0.067826 0.209686 0.192383
H8    H     H_    0.297055 0.934320 0.800991 0.205867
H9    H     H_    0.067826 0.209686 0.698283 0.192383
H10   H     H_    0.934320 0.800991 0.297055 0.205867
H11   H     H_    0.295917 0.602985 0.172397 0.152004
H12   H     H_    0.784667 0.116167 0.749131 0.178623
H13   H     H_    0.712249 0.386053 0.832086 0.154323
H14   H     H_    0.602985 0.172397 0.295917 0.152004
H15   H     H_    0.386053 0.832086 0.712249 0.154323
H16   H     H_    0.172397 0.295917 0.602985 0.152004
H17   H     H_    0.832086 0.712249 0.386053 0.154323
H18   H     H_    0.221475 0.529732 0.331058 0.119522
H19   H     H_    0.782152 0.461288 0.672623 0.122538
H20   H     H_    0.529732 0.331058 0.221475 0.119522
H21   H     H_    0.461288 0.672623 0.782152 0.122538
H22   H     H_    0.331058 0.221475 0.529732 0.119522
H23   H     H_    0.014597 0.210044 0.063170 0.183616
H24   H     H_    0.672623 0.782152 0.461289 0.122538
H25   H     H_    0.974776 0.644910 0.279058 0.132923
H26   H     H_    0.029283 0.361594 0.718631 0.134296
H27   H     H_    0.644910 0.279058 0.974776 0.132923
H28   H     H_    0.361594 0.718631 0.029283 0.134296
H29   H     H_    0.279058 0.974776 0.644910 0.132923
H30   H     H_    0.718631 0.029283 0.361594 0.134296
H31   H     H_    0.923912 0.094726 0.789798 0.194842
H32   H     H_    0.815381 0.182432 0.807542 0.153859
H33   H     H_    0.914458 0.199485 0.782813 0.184910
H34   H     H_    0.116167 0.749131 0.784667 0.178623
H35   H     H_    0.174213 0.869207 0.199802 0.148062
H36   H     H_    0.071151 0.902813 0.180045 0.203648
H37   H     H_    0.139033 0.788625 0.209969 0.190644
H38   H     H_    0.094726 0.789798 0.923912 0.194842
H39   H     H_    0.182431 0.807542 0.815381 0.153859
H40   H     H_    0.199485 0.782813 0.914458 0.184910
H41   H     H_    0.869207 0.199802 0.174213 0.148062
H42   H     H_    0.902812 0.180045 0.071152 0.203648
H43   H     H_    0.788625 0.209969 0.139033 0.190644
H44   H     H_    0.789798 0.923912 0.094726 0.194842
H45   H     H_    0.210043 0.063170 0.014597 0.183616
H46   H     H_    0.807542 0.815381 0.182432 0.153859
H47   H     H_    0.782813 0.914458 0.199485 0.184910
H48   H     H_    0.199802 0.174213 0.869207 0.148062
H49   H     H_    0.180046 0.071151 0.902813 0.203648
H50   H     H_    0.209969 0.139033 0.788625 0.190644
H51   H     H_    0.937158 0.218983 0.340020 0.152970
H52   H     H_    0.885971 0.176687 0.311968 0.147428
H53   H     H_    0.928064 0.266884 0.232070 0.174678
H54   H     H_    0.748008 0.072770 0.574196 0.154472
H55   H     H_    0.689523 0.147278 0.639516 0.168210
H56   H     H_    0.749131 0.784667 0.116167 0.178623
H57   H     H_    0.655376 0.055316 0.674195 0.180564
H58   H     H_    0.218983 0.340020 0.937158 0.152970
H59   H     H_    0.176687 0.311968 0.885971 0.147429
H60   H     H_    0.266883 0.232070 0.928064 0.174678
H61   H     H_    0.072768 0.574196 0.748008 0.154472
H62   H     H_    0.147277 0.639514 0.689524 0.168210
H63   H     H_    0.055316 0.674195 0.655376 0.180564
H64   H     H_    0.340020 0.937158 0.218983 0.152970
H65   H     H_    0.311968 0.885971 0.176687 0.147429
H66   H     H_    0.232070 0.928065 0.266883 0.174678
H67   H     H_    0.010194 0.827083 0.474473 0.200214
H68   H     H_    0.574196 0.748008 0.072770 0.154472
H69   H     H_    0.639516 0.689523 0.147278 0.168210
H70   H     H_    0.674195 0.655376 0.055316 0.180564
H71   H     H_    0.000961 0.185828 0.525290 0.224278
H72   H     H_    0.827083 0.474474 0.010194 0.200214
O1    O     O_3   0.250000 0.250000 0.250000 -0.521397
O2    O     O_R   0.865800 0.694910 0.573470 -0.579097
O3    O     O_R   0.305090 0.426530 0.134200 -0.584150
O4    O     O_R   0.694910 0.573470 0.865800 -0.579097
O5    O     O_R   0.426530 0.134200 0.305090 -0.584150
O6    O     O_R   0.573470 0.865800 0.694910 -0.579098
O7    O     O_R   0.134190 0.426530 0.134200 -0.648129
O8    O     O_R   0.865810 0.573470 0.865800 -0.654023
O9    O     O_R   0.426530 0.134200 0.134190 -0.648129
O10   O     O_R   0.573470 0.865800 0.865810 -0.654023
O11   O     O_R   0.134200 0.134190 0.426530 -0.648129
O12   O     O_3   0.750000 0.750000 0.750000 -0.521482
O13   O     O_R   0.865800 0.865810 0.573470 -0.654023
O14   O     O_R   0.426530 0.305080 0.134210 -0.652735
O15   O     O_R   0.573470 0.694920 0.865790 -0.657545
O16   O     O_R   0.305080 0.134210 0.426530 -0.652736
O17   O     O_R   0.694920 0.865790 0.573470 -0.657545
O18   O     O_R   0.134210 0.426530 0.305080 -0.652736
O19   O     O_R   0.865790 0.573470 0.694920 -0.657545
O20   O     O_3   0.899901 0.204784 0.676025 -0.564772
O21   O     O_3   0.065836 0.839366 0.312532 -0.558896
O22   O     O_3   0.204784 0.676025 0.899901 -0.564772
O23   O     O_R   0.305080 0.134200 0.134200 -0.568538
O24   O     O_3   0.839366 0.312532 0.065836 -0.558895
O25   O     O_3   0.676025 0.899901 0.204784 -0.564772
O26   O     O_3   0.312532 0.065836 0.839366 -0.558896
O27   O     O_3   0.025323 0.144370 0.254412 -0.545214
O28   O     O_3   0.770530 0.020445 0.694793 -0.582771
O29   O     O_3   0.144370 0.254412 0.025323 -0.545215
O30   O     O_3   0.020445 0.694793 0.770530 -0.582771
O31   O     O_3   0.254412 0.025324 0.144370 -0.545215
O32   O     O_3   0.694793 0.770530 0.020445 -0.582771
O33   O     O_R   0.694920 0.865800 0.865800 -0.557388
O34   O     O_R   0.134200 0.134200 0.305080 -0.568539
O35   O     O_R   0.865800 0.865800 0.694920 -0.557388
O36   O     O_R   0.134200 0.305080 0.134200 -0.568538
O37   O     O_R   0.865800 0.694920 0.865800 -0.557388
O38   O     O_R   0.134200 0.305090 0.426530 -0.584151
Zn1   Zn    Zn3+2 0.206620 0.206630 0.380140 0.981517
Zn2   Zn    Zn3+2 0.793380 0.793370 0.619860 0.991479
Zn3   Zn    Zn3+2 0.206630 0.380140 0.206620 0.981517
Zn4   Zn    Zn3+2 0.793370 0.619860 0.793380 0.991479
Zn5   Zn    Zn3+2 0.380140 0.206620 0.206630 0.981517
Zn6   Zn    Zn3+2 0.619860 0.793380 0.793370 0.991479
Zn7   Zn    Zn3+2 0.206620 0.206620 0.206620 1.058642
Zn8   Zn    Zn3+2 0.793380 0.793380 0.793380 1.089578

loop_
_geom_bond_atom_site_label_1
_geom_bond_atom_site_label_2
_ccdc_geom_bond_type
C17   H46   S    
C59   F1    S    
C97   H56   S    
C80   O2    A    
O12   Zn2   S    
C20   O28   S    
C109  H3    S    
C44   O11   A    
C36   C42   A    
C92   H1    S    
C1    C11   S    
O6    Zn6   S    
C6    C55   S    
C32   C39   A    
C82   O4    A    
C31   H24   S    
C104  O25   S    
C92   C98   A    
C55   O13   A    
C38   C76   S    
C53   C99   A    
C48   C54   A    
C29   C36   A    
C35   C75   S    
C98   C105  A    
C101  O24   S    
C77   O37   A    
C108  C115  A    
C40   H26   S    
C60   F5    S    
O19   Zn4   S    
C25   H69   S    
C84   O17   A    
C22   H62   S    
C62   F7    S    
C56   H8    S    
O18   Zn3   S    
C84   O6    A    
C111  H4    S    
C21   H59   S    
C13   C57   A    
C45   C51   A    
C68   C74   A    
C20   H55   S    
C87   C94   A    
C46   C52   A    
C102  O22   S    
C54   C110  A    
C79   O38   A    
O9    Zn5   S    
C9    C66   S    
C12   O20   S    
C38   C45   A    
O11   Zn1   S    
C109  C116  A    
C106  H71   S    
C41   H27   S    
C21   O29   S    
C82   O15   A    
C112  C118  A    
C25   O32   S    
C94   H23   S    
C85   O27   S    
C23   H64   S    
C90   O31   S    
C94   C101  A    
C22   H61   S    
C102  C108  A    
C61   F6    S    
C67   C73   A    
C96   H45   S    
C10   C33   S    
C70   C84   S    
C59   C73   A    
C88   H11   S    
C71   C83   S    
C63   F8    S    
C77   O8    A    
C95   C102  A    
C8    C114  A    
C47   C53   A    
C98   O21   S    
C23   O31   S    
C17   H47   S    
C103  O26   S    
C103  C109  A    
C99   H13   S    
C18   H48   S    
O36   Zn7   S    
C64   C71   A    
C65   C80   S    
C113  C119  A    
C39   H25   S    
O35   Zn8   S    
C51   F4    S    
C7    C118  A    
C14   H37   S    
C35   C41   A    
O3    Zn3   S    
C85   C92   A    
C52   H5    S    
C4    C90   A    
C27   C34   A    
O16   Zn1   S    
C42   H28   S    
C50   F3    S    
C106  C113  A    
C15   H39   S    
C53   H6    S    
C9    C115  A    
C13   C30   A    
C26   H18   S    
C69   C81   S    
C60   C67   A    
C14   O21   S    
O8    Zn4   S    
C25   H70   S    
C18   O26   S    
C19   H51   S    
C32   C73   S    
C17   O25   S    
C26   C32   A    
C15   H38   S    
C21   H60   S    
C15   O22   S    
C18   H49   S    
C28   C110  A    
C2    H15   S    
C40   C47   A    
C91   O32   S    
O1    Zn1   S    
C61   C75   A    
C62   C69   A    
C47   F11   S    
C89   O30   S    
C89   C95   A    
C45   H30   S    
C81   O3    A    
C107  C114  A    
C108  H2    S    
C86   C93   A    
C12   H32   S    
C58   H10   S    
C54   H7    S    
C23   H66   S    
C63   C70   A    
C105  H67   S    
C27   C99   A    
O1    Zn3   S    
O38   Zn1   S    
C64   C76   A    
C87   C120  A    
C67   C79   S    
C51   C58   A    
C83   O5    A    
C7    C44   S    
C91   C97   A    
C4    C11   A    
C90   C96   A    
C93   C100  A    
C86   C119  A    
C93   H12   S    
C36   C74   S    
C100  O20   S    
C39   C46   A    
O12   Zn8   S    
C43   H29   S    
C16   H43   S    
C107  H72   S    
C105  C112  A    
C3    C8    A    
C2    C29   A    
C16   H41   S    
C1    O9    A    
C8    C77   S    
C34   C40   A    
O33   Zn8   S    
C48   F12   S    
C14   H36   S    
C11   C117  A    
C95   H34   S    
C34   C72   S    
C6    C119  A    
C20   H57   S    
C10   C116  A    
C79   O18   A    
C29   H21   S    
C16   H42   S    
C28   C35   A    
O5    Zn5   S    
C16   O24   S    
C27   H19   S    
C66   O36   A    
C59   C65   A    
C50   C57   A    
C6    C112  A    
C4    C116  A    
O2    Zn2   S    
O37   Zn8   S    
O1    Zn5   S    
C12   H33   S    
C44   O34   A    
C19   H52   S    
C46   F10   S    
C104  C111  A    
O10   Zn6   S    
C33   O10   A    
C17   H44   S    
C43   C50   A    
C28   H20   S    
C57   H9    S    
O12   Zn6   S    
C65   C72   A    
C37   C78   S    
C23   H65   S    
C100  C106  A    
C87   O29   S    
C31   C38   A    
C3    C89   A    
C111  C117  A    
C86   O28   S    
O14   Zn5   S    
O7    Zn3   S    
C1    O23   A    
C14   H35   S    
O13   Zn2   S    
C68   C82   S    
C5    C10   A    
O34   Zn7   S    
C49   C56   A    
C2    C56   A    
C19   H53   S    
C80   O19   A    
C70   C76   A    
C83   O16   A    
C61   C68   A    
C7    C113  A    
C21   H58   S    
C19   O27   S    
O1    Zn7   S    
C49   F2    S    
C41   C48   A    
C15   H40   S    
C69   C75   A    
C5    C91   A    
O23   Zn7   S    
C71   C78   A    
C60   C72   A    
C22   O30   S    
C85   C118  A    
C22   H63   S    
C52   C88   A    
O4    Zn4   S    
C24   C31   A    
C97   C104  A    
C33   O33   A    
C24   H17   S    
C42   C49   A    
C20   H54   S    
C26   C88   A    
C81   O14   A    
C30   H22   S    
C64   F9    S    
C30   C37   A    
C24   C58   A    
C96   C103  A    
C5    C117  A    
C101  C107  A    
C25   H68   S    
C9    C120  A    
C18   H50   S    
O15   Zn6   S    
C62   C74   A    
C3    C115  A    
C13   H16   S    
C55   O35   A    
C66   O7    A    
C110  H14   S    
O12   Zn4   S    
C63   C78   A    
C37   C43   A    
C114  C120  A    
C12   H31   S    
O17   Zn2   S    
