data_mof_unit_49244.cif
_audit_creation_date              2012-12-11T15:14:44-0500
_audit_creation_method            fapswitch 2.2
_symmetry_space_group_name_H-M    P1
_symmetry_Int_Tables_number       1
_space_group_crystal_system       triclinic
_cell_length_a                    22.391012
_cell_length_b                    7.224387
_cell_length_c                    19.177831
_cell_angle_alpha                 90.3806
_cell_angle_beta                  98.890635
_cell_angle_gamma                 90.179718
_cell_volume                      3064.86385175

loop_
_atom_site_label
_atom_site_type_symbol
_atom_type_description
_atom_site_fract_x
_atom_site_fract_y
_atom_site_fract_z
_atom_type_partial_charge
O1    O     O_R   0.448470 0.506130 0.415700 -0.533156
O2    O     O_R   0.551530 0.006130 0.584300 -0.532168
O3    O     O_R   0.436320 0.174490 0.555800 -0.534311
O4    O     O_R   0.563680 0.674490 0.444200 -0.534848
C1    C     C_R   0.421320 0.344582 0.575408 0.706142
C2    C     C_R   0.578672 0.844226 0.424577 0.705195
O5    O     O_R   0.441350 0.176340 0.414480 -0.534405
O6    O     O_R   0.558650 0.676340 0.585520 -0.534175
O7    O     O_R   0.556600 0.007100 0.441970 -0.531963
O8    O     O_R   0.443400 0.507100 0.558030 -0.533061
C3    C     C_R   0.427479 0.343988 0.388852 0.674211
C4    C     C_R   0.572517 0.845627 0.611073 0.674959
O9    O     O_3   0.537810 0.339550 0.509190 -0.371636
O10   O     O_3   0.462190 0.839550 0.490810 -0.372594
V1    V     V_3+5 0.492990 0.064280 0.498300 1.432376
V2    V     V_3+5 0.507010 0.564280 0.501700 1.430216
C5    C     C_R   0.867445 0.877404 0.697107 -0.155599
C6    C     C_R   0.135007 0.456648 0.303822 -0.155052
H1    H     H_    0.954035 0.875180 0.762050 0.107666
H2    H     H_    0.047355 0.457955 0.241225 0.107530
H3    H     H_    0.787232 0.862331 0.580582 0.119004
H4    H     H_    0.217138 0.478342 0.418303 0.119994
H5    H     H_    0.886964 0.853844 0.649509 0.110826
H6    H     H_    0.116374 0.471714 0.352455 0.111342
C7    C     C_R   0.883046 0.932975 0.823176 -0.100696
C8    C     C_R   0.117614 0.441118 0.176311 -0.098030
C9    C     C_R   0.587771 0.839998 0.740794 -0.162797
C10   C     C_R   0.409813 0.284773 0.261127 -0.160912
C11   C     C_R   0.623921 0.837509 0.806553 -0.126200
C12   C     C_R   0.372256 0.257198 0.197180 -0.121588
C13   C     C_R   0.686407 0.857396 0.812426 -0.106637
C14   C     C_R   0.310741 0.295260 0.190669 -0.106070
C15   C     C_R   0.714658 0.887744 0.752397 0.092534
C16   C     C_R   0.285193 0.371993 0.247330 0.089760
C17   C     C_R   0.677519 0.875835 0.684532 0.070761
C18   C     C_R   0.323493 0.387739 0.314389 0.070374
C19   C     C_R   0.779108 0.911971 0.757154 0.019918
C20   C     C_R   0.221818 0.416188 0.241418 0.015725
C21   C     C_R   0.804694 0.888180 0.694294 0.135416
C22   C     C_R   0.197520 0.441945 0.305084 0.133924
C23   C     C_R   0.767612 0.874131 0.628674 -0.188834
C24   C     C_R   0.235611 0.453103 0.370098 -0.191264
C25   C     C_R   0.705070 0.874954 0.623620 -0.184782
C26   C     C_R   0.297713 0.432828 0.374437 -0.187971
C27   C     C_R   0.819626 0.955287 0.821127 -0.071596
C28   C     C_R   0.181119 0.434374 0.175837 -0.059061
C29   C     C_R   0.905806 0.890969 0.761183 -0.189755
C30   C     C_R   0.095560 0.449449 0.240414 -0.195446
C31   C     C_R   0.613675 0.855999 0.679305 -0.077174
C32   C     C_R   0.386275 0.346493 0.320528 -0.081707
H7    H     H_    0.539304 0.823458 0.737673 0.106042
H8    H     H_    0.457253 0.249761 0.265153 0.108092
H9    H     H_    0.711859 0.838687 0.864320 0.126216
H10   H     H_    0.283659 0.253230 0.141756 0.128868
H11   H     H_    0.603431 0.816267 0.853455 0.112194
H12   H     H_    0.390654 0.200199 0.152684 0.115235
H13   H     H_    0.678477 0.865098 0.571527 0.106208
H14   H     H_    0.325101 0.444157 0.426017 0.111871
C33   C     C_3   0.774104 0.818847 0.309702 -0.122411
C34   C     C_3   0.228127 0.301224 0.693463 -0.125809
C35   C     C_3   0.794816 0.003593 0.279994 -0.163473
C36   C     C_3   0.202098 0.485921 0.717284 -0.164869
H15   H     H_    0.832754 0.091798 0.305584 0.112253
H16   H     H_    0.161557 0.557328 0.689441 0.112244
H17   H     H_    0.794616 0.754318 0.360089 0.106471
H18   H     H_    0.209410 0.219915 0.645705 0.107633
H19   H     H_    0.710169 0.204337 0.273087 0.114468
H20   H     H_    0.280242 0.709109 0.716122 0.115593
C37   C     C_1   0.874980 0.940469 0.120766 -0.144656
C38   C     C_1   0.124939 0.439843 0.879183 -0.145332
C39   C     C_1   0.624280 0.853460 0.378392 -0.182671
C40   C     C_1   0.375743 0.355009 0.621588 -0.182954
C41   C     C_3   0.770034 0.728290 0.235501 -0.148569
C42   C     C_3   0.235299 0.229876 0.770389 -0.141603
C43   C     C_3   0.790323 0.912919 0.206362 0.133073
C44   C     C_3   0.209702 0.414289 0.793677 0.130812
C45   C     C_3   0.702941 0.789246 0.217560 -0.173949
C46   C     C_3   0.300270 0.312201 0.785209 -0.169001
C47   C     C_3   0.707770 0.880471 0.291232 0.162094
C48   C     C_3   0.292319 0.384086 0.708756 0.158466
C49   C     C_3   0.724130 0.973659 0.188592 0.046067
C50   C     C_3   0.273785 0.496369 0.808308 0.047912
C51   C     C_3   0.727853 0.065384 0.262221 -0.174121
C52   C     C_3   0.266899 0.569110 0.731844 -0.172108
C53   C     C_1   0.836738 0.929136 0.159168 -0.058395
C54   C     C_1   0.163213 0.428955 0.840818 -0.063553
C55   C     C_1   0.661978 0.864307 0.339221 -0.057339
C56   C     C_1   0.338079 0.367148 0.660760 -0.057220
H21   H     H_    0.665182 0.698924 0.193011 0.108305
H22   H     H_    0.340522 0.237883 0.812237 0.110757
H23   H     H_    0.787805 0.589545 0.224639 0.107735
H24   H     H_    0.221575 0.090342 0.785709 0.109081
O11   O     O_R   0.056650 0.288730 0.942060 -0.531135
O12   O     O_R   0.943350 0.788730 0.057940 -0.538235
O13   O     O_R   0.058660 0.616870 0.085540 -0.540433
O14   O     O_R   0.941340 0.116870 0.914460 -0.535403
C57   C     C_R   0.073030 0.449084 0.110752 0.735564
C58   C     C_R   0.926964 0.947563 0.889246 0.736305
O15   O     O_R   0.063700 0.618520 0.944220 -0.539872
O16   O     O_R   0.936300 0.118520 0.055780 -0.532380
O17   O     O_R   0.948460 0.787610 0.915680 -0.535843
O18   O     O_R   0.051540 0.287610 0.084320 -0.529700
C59   C     C_R   0.078797 0.449879 0.924544 0.763751
C60   C     C_R   0.921141 0.950113 0.075384 0.761541
O19   O     O_3   0.962230 0.453430 0.990860 -0.377693
O20   O     O_3   0.037770 0.953430 0.009140 -0.375606
V3    V     V_3+5 0.007010 0.728750 0.001700 1.457280
V4    V     V_3+5 0.992990 0.228750 0.998300 1.476831
C61   C     C_R   0.697964 0.068341 0.121188 0.098026
C62   C     C_R   0.653323 0.981893 0.072095 -0.126291
C63   C     C_R   0.629467 0.072558 0.009806 -0.105095
C64   C     C_R   0.649808 0.249883 0.996266 -0.102654
C65   C     C_R   0.694392 0.336411 0.044751 -0.128814
C66   C     C_R   0.718595 0.245780 0.106864 -0.108225
H25   H     H_    0.637040 0.844616 0.081558 0.096292
H26   H     H_    0.595123 0.005421 0.972067 0.101048
H27   H     H_    0.631227 0.319884 0.948075 0.113747
H28   H     H_    0.710278 0.473540 0.034154 0.117825
H29   H     H_    0.753249 0.313965 0.143924 0.099643
C67   C     C_R   0.297435 0.614556 0.871526 0.096884
C68   C     C_R   0.350516 0.567458 0.916898 -0.130285
C69   C     C_R   0.372396 0.681895 0.974401 -0.120650
C70   C     C_R   0.341579 0.843850 0.986878 -0.103414
C71   C     C_R   0.288511 0.890835 0.942221 -0.121950
C72   C     C_R   0.266395 0.776306 0.884925 -0.129159
H30   H     H_    0.375224 0.443406 0.907885 0.100078
H31   H     H_    0.413363 0.645257 0.009199 0.111874
H32   H     H_    0.358625 0.932335 0.031332 0.113449
H33   H     H_    0.264466 0.015776 0.952032 0.135444
H34   H     H_    0.224988 0.813118 0.851009 0.103406
C73   C     C_2   0.798065 0.051688 0.881112 0.714306
O21   O     O_2   0.815476 0.003570 0.941836 -0.576617
O22   O     O_R   0.757607 0.198805 0.867624 -0.656517
H35   H     H_    0.746979 0.256208 0.912429 0.300084
C74   C     C_2   0.203555 0.476932 0.108778 0.695997
O23   O     O_2   0.182994 0.394924 0.054330 -0.578832
O24   O     O_R   0.248689 0.610819 0.108259 -0.656310
H36   H     H_    0.260532 0.626616 0.059740 0.307699

loop_
_geom_bond_atom_site_label_1
_geom_bond_atom_site_label_2
_ccdc_geom_bond_type
O17   V3    S    
O15   C59   A    
H19   C51   S    
C7    C27   A    
C9    C11   A    
C23   C25   A    
C63   C64   A    
O1    C3    A    
C50   C67   S    
C48   C52   S    
O2    C4    A    
O11   C59   A    
C2    O7    A    
C47   C55   S    
C4    C31   S    
O3    V1    S    
C70   C71   A    
C21   C23   A    
C46   H22   S    
O5    C3    A    
C45   H21   S    
C5    H5    S    
C42   C44   S    
C6    H6    S    
C1    C40   S    
O11   V4    S    
C64   H27   S    
C46   C48   S    
O20   V3    S    
O16   C60   A    
C34   C36   S    
C5    C21   A    
C42   H24   S    
C69   H31   S    
C35   H15   S    
C6    C22   A    
C62   C63   A    
C36   H16   S    
C49   C51   S    
C28   C74   S    
C10   C32   A    
C72   H34   S    
C43   C53   S    
C26   H14   S    
C47   C51   S    
O14   C58   A    
C17   C31   A    
C13   C15   A    
O18   V4    S    
C63   H26   S    
C12   C14   A    
C17   C25   A    
C7    C29   A    
C57   O18   A    
C8    C30   A    
C22   C24   A    
O14   V4    S    
O12   C60   A    
O6    V2    S    
C41   C43   S    
C36   C44   S    
C24   C26   A    
C14   H10   S    
C64   C65   A    
C40   C56   T    
C9    H7    S    
C45   C47   S    
C2    C39   S    
C19   C21   A    
O19   V4    S    
O12   V3    S    
C33   C35   S    
O16   V4    S    
H20   C52   S    
C74   O23   D    
C41   H23   S    
O4    C2    A    
C35   C51   S    
C33   C47   S    
C25   H13   S    
C67   C72   A    
C43   C49   S    
O5    V1    S    
C11   H11   S    
C73   O22   S    
C12   H12   S    
C35   C43   S    
C14   C16   A    
O4    V2    S    
C37   C53   T    
C46   C50   S    
C45   C49   S    
O6    C4    A    
H1    C29   S    
O1    V2    S    
C13   H9    S    
O2    V1    S    
C68   C69   A    
H2    C30   S    
O13   V3    S    
C61   C66   A    
H3    C23   S    
C49   C61   S    
C27   C73   S    
C50   C52   S    
O22   H35   S    
C39   C55   T    
C18   C26   A    
C19   C27   A    
C73   O21   D    
C38   C54   T    
C44   C54   S    
C18   C32   A    
C67   C68   A    
C65   C66   A    
C37   C60   S    
C74   O24   S    
C36   C52   S    
C34   C48   S    
C16   C20   A    
C5    C29   A    
O3    C1    A    
C6    C30   A    
O13   C57   A    
C58   O17   A    
O15   V3    S    
O24   H36   S    
C10   C12   A    
O7    V1    S    
C68   H30   S    
C48   C56   S    
C3    C32   S    
O8    V2    S    
C61   C62   A    
C33   H17   S    
C20   C22   A    
C10   H8    S    
C70   H32   S    
H4    C24   S    
C66   H29   S    
C44   C50   S    
C34   C42   S    
C15   C17   A    
C71   H33   S    
C16   C18   A    
C33   C41   S    
C15   C19   A    
C20   C28   A    
C8    C28   A    
C8    C57   S    
C34   H18   S    
C65   H28   S    
C7    C58   S    
C1    O8    A    
C11   C13   A    
C42   C46   S    
O9    V2    S    
C41   C45   S    
O10   V1    S    
C69   C70   A    
C62   H25   S    
C9    C31   A    
C71   C72   A    
C38   C59   S    
