data_mof_unit_13609.cif
_audit_creation_date              2012-12-10T16:52:04-0500
_audit_creation_method            fapswitch 2.2
_symmetry_space_group_name_H-M    P1
_symmetry_Int_Tables_number       1
_space_group_crystal_system       triclinic
_cell_length_a                    7.769386
_cell_length_b                    8.552616
_cell_length_c                    14.897472
_cell_angle_alpha                 90.298985
_cell_angle_beta                  86.078262
_cell_angle_gamma                 93.694523
_cell_volume                      985.545030748

loop_
_atom_site_label
_atom_site_type_symbol
_atom_type_description
_atom_site_fract_x
_atom_site_fract_y
_atom_site_fract_z
_atom_type_partial_charge
C1    C     C_R   0.545889 0.794703 0.498757 0.981083
C2    C     C_R   0.546809 0.631958 0.810895 -0.278142
C3    C     C_R   0.493229 0.508496 0.232262 -0.084387
C4    C     C_R   0.506771 0.491504 0.767738 -0.084387
C5    C     C_R   0.534294 0.649096 0.185286 0.071682
C6    C     C_R   0.465706 0.350903 0.814714 0.071682
C7    C     C_R   0.537044 0.646653 0.091239 0.085431
C8    C     C_R   0.462956 0.353347 0.908760 0.085431
C9    C     C_R   0.498118 0.502682 0.046940 0.039630
C10   C     C_R   0.501882 0.497318 0.953060 0.039630
C11   C     C_R   0.455687 0.363744 0.096452 0.133562
C12   C     C_R   0.454111 0.205297 0.501243 0.981084
C13   C     C_R   0.544312 0.636256 0.903548 0.133562
C14   C     C_R   0.578694 0.783272 0.040198 -0.185742
C15   C     C_R   0.421306 0.216728 0.959802 -0.185741
C16   C     C_R   0.582256 0.777867 0.947118 -0.201290
C17   C     C_R   0.417744 0.222133 0.052882 -0.201290
C18   C     C_2   0.569983 0.958362 0.498036 -0.321825
C19   C     C_2   0.430017 0.041638 0.501964 -0.321825
C20   C     C_R   0.501933 0.496288 0.672696 0.927767
C21   C     C_R   0.498067 0.503712 0.327304 0.927766
C22   C     C_R   0.453191 0.368042 0.189105 -0.278142
H1    H     H_    0.422602 0.261671 0.228088 0.159433
H2    H     H_    0.986085 0.616786 0.567524 0.198332
H3    H     H_    0.577398 0.738329 0.771912 0.159433
H4    H     H_    0.609434 0.895330 0.070861 0.182958
H5    H     H_    0.390566 0.104670 0.929139 0.182958
H6    H     H_    0.614817 0.884703 0.909105 0.166714
H7    H     H_    0.385183 0.115297 0.090895 0.166714
H8    H     H_    0.702074 0.009697 0.493741 0.185770
H9    H     H_    0.297926 0.990303 0.506259 0.185770
H10   H     H_    0.013915 0.383214 0.432476 0.198332
I1    I     I_    0.591116 0.861265 0.257830 -0.420868
I2    I     I_    0.408884 0.138735 0.742170 -0.420868
N1    N     N_2   0.950330 0.457950 0.475660 -0.165272
N2    N     N_2   0.049670 0.542050 0.524340 -0.165272
O1    O     O_R   0.389250 0.738570 0.505970 -0.611415
O2    O     O_R   0.610750 0.261430 0.494030 -0.611415
O3    O     O_R   0.678390 0.711620 0.490370 -0.624427
O4    O     O_R   0.321610 0.288380 0.509630 -0.624427
O5    O     O_R   0.355420 0.513510 0.639950 -0.599450
O6    O     O_R   0.644580 0.486490 0.360050 -0.599450
O7    O     O_R   0.644560 0.486560 0.624350 -0.621807
O8    O     O_R   0.355440 0.513440 0.375650 -0.621807
Zn1   Zn    Zn3+2 0.306940 0.517990 0.510420 0.982262
Zn2   Zn    Zn3+2 0.693060 0.482010 0.489580 0.982262

loop_
_geom_bond_atom_site_label_1
_geom_bond_atom_site_label_2
_ccdc_geom_bond_type
C16   H6    S    
C2    C4    A    
C12   O4    A    
C18   H8    S    
C2    H3    S    
C21   O8    A    
C17   H7    S    
C9    C10   A    
C11   C22   A    
C15   H5    S    
N1    N2    D    
C1    O1    A    
C19   H9    S    
C20   O5    A    
N2    Zn1   S    
C14   H4    S    
C9    C11   A    
C1    C18   S    
H2    N2    S    
O3    Zn2   S    
C12   C19   S    
C4    C6    A    
C8    C15   A    
C12   O2    A    
O4    Zn1   S    
O7    Zn2   S    
C14   C16   A    
O2    Zn2   S    
C3    C21   S    
C1    O3    A    
O1    Zn1   S    
C21   O6    A    
C4    C20   S    
H10   N1    S    
C7    C9    A    
C20   O7    A    
O8    Zn1   S    
C8    C10   A    
C18   C19   D    
O6    Zn2   S    
C13   C16   A    
C5    C7    A    
C2    C13   A    
O5    Zn1   S    
C22   H1    S    
C11   C17   A    
C3    C22   A    
C6    C8    A    
C15   C17   A    
N1    Zn2   S    
C7    C14   A    
C6    I2    S    
C3    C5    A    
C10   C13   A    
C5    I1    S    
