data_mof_unit_63543.cif
_audit_creation_date              2012-12-10T18:39:51-0500
_audit_creation_method            fapswitch 2.2
_symmetry_space_group_name_H-M    P1
_symmetry_Int_Tables_number       1
_space_group_crystal_system       triclinic
_cell_length_a                    11.564003
_cell_length_b                    10.800665
_cell_length_c                    10.550582
_cell_angle_alpha                 90.549021
_cell_angle_beta                  90.040811
_cell_angle_gamma                 89.992941
_cell_volume                      1317.69548287

loop_
_atom_site_label
_atom_site_type_symbol
_atom_type_description
_atom_site_fract_x
_atom_site_fract_y
_atom_site_fract_z
_atom_type_partial_charge
C1    C     C_R   0.281240 0.500006 0.500005 0.917490
C2    C     C_3   0.483755 0.382136 0.036685 0.349182
C3    C     C_3   0.397981 0.456912 0.956885 0.308023
C4    C     C_3   0.602019 0.543088 0.043115 0.308023
C5    C     C_3   0.501378 0.502201 0.877193 -0.395558
C6    C     C_3   0.498622 0.497799 0.122807 -0.395558
C7    C     C_1   0.161100 0.500015 0.500007 -0.154963
C8    C     C_1   0.838900 0.499985 0.499993 -0.154963
C9    C     C_1   0.059171 0.500007 0.500004 -0.000812
C10   C     C_1   0.940829 0.499992 0.499996 -0.000812
C11   C     C_3   0.219592 0.367392 0.991634 -0.265688
C12   C     C_R   0.718760 0.499994 0.499995 0.917490
C13   C     C_3   0.780408 0.632608 0.008366 -0.265689
C14   C     C_3   0.252511 0.693717 0.002073 -0.269811
C15   C     C_3   0.747489 0.306283 0.997927 -0.269809
C16   C     C_3   0.533286 0.825834 0.012558 -0.260625
C17   C     C_3   0.466714 0.174166 0.987442 -0.260623
C18   C     C_R   0.498728 0.499286 0.256875 1.042764
C19   C     C_R   0.501272 0.500714 0.743125 1.042764
C20   C     C_1   0.500000 0.069821 0.500001 0.047574
C21   C     C_1   0.500000 0.930179 0.499999 0.047574
C22   C     C_3   0.412828 0.572484 0.041297 0.320061
C23   C     C_3   0.587171 0.427516 0.958703 0.320061
C24   C     C_3   0.516245 0.617864 0.963314 0.349182
H1    H     H_    0.216179 0.424905 0.079670 0.181403
H2    H     H_    0.699399 0.271860 0.081873 0.187553
H3    H     H_    0.811594 0.376854 0.028361 0.190006
H4    H     H_    0.796322 0.226830 0.957542 0.170329
H5    H     H_    0.579986 0.795185 0.099049 0.196102
H6    H     H_    0.443158 0.851155 0.037361 0.188490
H7    H     H_    0.577006 0.910697 0.978844 0.158235
H8    H     H_    0.556842 0.148843 0.962641 0.188489
H9    H     H_    0.420017 0.204816 0.900949 0.196102
H10   H     H_    0.422991 0.089303 0.021155 0.158235
H11   H     H_    0.244162 0.271153 0.015361 0.193984
H12   H     H_    0.130847 0.364399 0.951758 0.168878
H13   H     H_    0.755838 0.728846 0.984638 0.193984
H14   H     H_    0.783821 0.575094 0.920330 0.181404
H15   H     H_    0.869153 0.635601 0.048242 0.168879
H16   H     H_    0.188406 0.623145 0.971638 0.190006
H17   H     H_    0.300601 0.728140 0.918128 0.187553
H18   H     H_    0.203677 0.773169 0.042459 0.170329
N1    N     N_1   0.500000 0.180630 0.500000 -0.073171
N2    N     N_1   0.500000 0.819370 0.500000 -0.073171
O1    O     O_R   0.334450 0.602530 0.499980 -0.614600
O2    O     O_3   0.705390 0.584287 0.100980 -0.609115
O3    O     O_3   0.325615 0.646393 0.097149 -0.600391
O4    O     O_3   0.674385 0.353606 0.902851 -0.600391
O5    O     O_3   0.534834 0.737080 0.913592 -0.590338
O6    O     O_3   0.465165 0.262920 0.086408 -0.590338
O7    O     O_R   0.665550 0.397470 0.500020 -0.614600
O8    O     O_R   0.665550 0.602530 0.500020 -0.614246
O9    O     O_R   0.334450 0.397470 0.499980 -0.614246
O10   O     O_R   0.499970 0.602510 0.313950 -0.596195
O11   O     O_R   0.500030 0.397490 0.686050 -0.596195
O12   O     O_R   0.500030 0.602510 0.686050 -0.595013
O13   O     O_R   0.499970 0.397490 0.313950 -0.595013
O14   O     O_3   0.294610 0.415713 0.899020 -0.609115
Zn1   Zn    Zn3+2 0.500000 0.636920 0.500000 1.020450
Zn2   Zn    Zn3+2 0.500000 0.363080 0.500000 1.020450

loop_
_geom_bond_atom_site_label_1
_geom_bond_atom_site_label_2
_ccdc_geom_bond_type
C17   O6    S    
C19   O12   A    
C14   O3    S    
C5    C19   S    
O8    Zn1   S    
C21   N2    T    
C9    C10   S    
C18   O13   A    
C13   H13   S    
C5    C23   S    
O12   Zn1   S    
C8    C12   S    
C14   H18   S    
O13   Zn2   S    
C20   N1    T    
C11   H11   S    
C2    C3    S    
C15   H4    S    
C4    O2    S    
O11   Zn2   S    
C20   C21   S    
C16   H7    S    
C1    O1    A    
C13   H14   S    
C2    C6    S    
C5    C24   S    
C17   H9    S    
C15   O4    S    
C14   H17   S    
C4    C24   S    
N1    Zn2   S    
C17   H8    S    
C8    C10   T    
C11   H12   S    
C12   O8    A    
O9    Zn2   S    
C22   O3    S    
O10   Zn1   S    
C13   O2    S    
C6    C18   S    
C22   C24   S    
C13   H15   S    
C17   H10   S    
C18   O10   A    
N2    Zn1   S    
C14   H16   S    
C11   O14   S    
C3    O14   S    
C16   H6    S    
C23   O4    S    
C24   O5    S    
C12   O7    A    
C16   O5    S    
C4    C6    S    
C19   O11   A    
C2    C23   S    
C7    C9    T    
C4    C23   S    
C11   H1    S    
O1    Zn1   S    
C15   H2    S    
C1    O9    A    
O7    Zn2   S    
C2    O6    S    
C3    C5    S    
C16   H5    S    
C1    C7    S    
C15   H3    S    
C3    C22   S    
C6    C22   S    
