data_mof_unit_49476.cif
_audit_creation_date              2012-12-10T19:00:11-0500
_audit_creation_method            fapswitch 2.2
_symmetry_space_group_name_H-M    P1
_symmetry_Int_Tables_number       1
_space_group_crystal_system       triclinic
_cell_length_a                    9.538284
_cell_length_b                    10.79748
_cell_length_c                    13.423424
_cell_angle_alpha                 90.200105
_cell_angle_beta                  72.480514
_cell_angle_gamma                 89.903509
_cell_volume                      1318.33090864

loop_
_atom_site_label
_atom_site_type_symbol
_atom_type_description
_atom_site_fract_x
_atom_site_fract_y
_atom_site_fract_z
_atom_type_partial_charge
C1    C     C_R   0.500918 0.737589 0.497808 0.872351
C2    C     C_R   0.433015 0.475115 0.979825 0.080231
C3    C     C_R   0.471391 0.449089 0.871322 0.088789
C4    C     C_R   0.542010 0.461193 0.031665 0.071298
C5    C     C_R   0.680942 0.408811 0.977822 0.162946
C6    C     C_R   0.708979 0.368546 0.875056 -0.246090
C7    C     C_R   0.605214 0.386777 0.822960 -0.154676
C8    C     C_R   0.517983 0.499937 0.135120 -0.201730
C9    C     C_R   0.760295 0.429744 0.132503 -0.215346
C10   C     C_R   0.373500 0.484637 0.814909 -0.096242
C11   C     C_R   0.372026 0.936578 0.520225 -0.116446
C12   C     C_R   0.421447 0.492729 0.700056 0.823775
C13   C     C_R   0.503905 0.870710 0.487828 -0.133460
C14   C     C_R   0.635807 0.935564 0.440672 0.469592
C15   C     C_R   0.634380 0.065215 0.443026 -0.302592
C16   C     C_R   0.502479 0.129433 0.488868 -0.084948
C17   C     C_R   0.370958 0.063617 0.519855 -0.080436
C18   C     C_3   0.244383 0.071213 0.618006 0.344313
C19   C     C_3   0.247341 0.929447 0.619318 0.345134
C20   C     C_R   0.959547 0.441592 0.422230 0.096133
C21   C     C_R   0.895784 0.572513 0.568562 0.585205
C22   C     C_R   0.045384 0.569288 0.569835 -0.218145
C23   C     C_R   0.500655 0.262430 0.498145 0.854981
C24   C     C_R   0.106859 0.442416 0.421785 0.227165
C25   C     C_3   0.127616 0.309289 0.391410 0.308081
C26   C     C_3   0.967052 0.307751 0.393528 -0.555086
C27   C     C_R   0.578655 0.497622 0.299958 0.777697
C28   C     C_R   0.789449 0.395037 0.028167 -0.208826
C29   C     C_R   0.623036 0.479965 0.186713 -0.050785
C30   C     C_R   0.230177 0.522939 0.869490 -0.218692
C31   C     C_R   0.186520 0.533762 0.977427 -0.176441
C32   C     C_R   0.286807 0.512792 0.032245 -0.161529
Cu1   Cu    Cu3+1 0.359330 0.500020 0.500010 0.951611
Cu2   Cu    Cu3+1 0.640670 0.499980 0.499990 0.997729
H1    H     H_    0.842785 0.413388 0.171547 0.156235
H2    H     H_    0.144178 0.109815 0.602577 -0.016920
H3    H     H_    0.078182 0.620583 0.628324 0.156247
H4    H     H_    0.152489 0.251141 0.452461 0.089851
H5    H     H_    0.950709 0.292091 0.315867 0.210185
H6    H     H_    0.811975 0.323209 0.834458 0.130823
H7    H     H_    0.898206 0.249689 0.457815 0.174171
H8    H     H_    0.151930 0.546791 0.828542 0.150992
H9    H     H_    0.245119 0.523623 0.115835 0.145104
N1    N     N_R   0.852320 0.499070 0.499340 -0.220861
N2    N     N_R   0.148230 0.499110 0.499340 -0.242961
O1    O     O_R   0.381190 0.680360 0.500000 -0.591289
O2    O     O_R   0.618780 0.680320 0.499990 -0.506911
O3    O     O_R   0.323230 0.500000 0.650990 -0.595129
O4    O     O_R   0.560820 0.499960 0.650980 -0.535848
O5    O     O_R   0.381220 0.319680 0.500010 -0.589733
O6    O     O_R   0.618810 0.319640 0.500000 -0.599630
O7    O     O_R   0.439180 0.500040 0.349020 -0.561048
O8    O     O_R   0.676770 0.500000 0.349010 -0.588141
H10   H     H_    0.736432 0.114644 0.411073 0.162223
O9    O     O_3   0.287482 0.125297 0.700561 -0.522605
C33   C     C_3   0.174307 0.202626 0.760977 -0.322584
H11   H     H_    0.070176 0.150341 0.793410 0.135573
H12   H     H_    0.156363 0.282669 0.714244 0.172161
H13   H     H_    0.207481 0.239599 0.827695 0.194967
O10   O     O_3   0.295405 0.880521 0.701183 -0.521769
C34   C     C_3   0.172711 0.844072 0.784071 -0.263126
H14   H     H_    0.119278 0.761817 0.761502 0.127616
H15   H     H_    0.091845 0.920843 0.810160 0.146262
H16   H     H_    0.210890 0.817396 0.851343 0.192754
H17   H     H_    0.149453 0.884130 0.605998 -0.000346
O11   O     O_3   0.790290 0.640974 0.641621 -0.541209
C35   C     C_3   0.834064 0.765768 0.641819 -0.295923
H18   H     H_    0.734359 0.823384 0.674977 0.209186
H19   H     H_    0.889763 0.801378 0.561838 0.177659
H20   H     H_    0.905270 0.777784 0.692976 0.120919
O12   O     O_3   0.225628 0.297358 0.289341 -0.551782
C36   C     C_3   0.264493 0.171841 0.268927 -0.311130
H21   H     H_    0.165693 0.112423 0.280128 0.159923
H22   H     H_    0.331397 0.139094 0.318700 0.158759
H23   H     H_    0.332919 0.162586 0.186249 0.191868
H24   H     H_    0.895594 0.354873 0.987466 0.136204
H25   H     H_    0.417535 0.545855 0.178007 0.150104
H26   H     H_    0.075234 0.562312 0.018740 0.146380
H27   H     H_    0.630406 0.347934 0.745326 0.169633
O13   O     O_3   0.768081 0.874054 0.400611 -0.578130
C37   C     C_3   0.789676 0.851691 0.293538 -0.330107
H28   H     H_    0.798120 0.939992 0.249561 0.153633
H29   H     H_    0.700698 0.792720 0.281063 0.143247
H30   H     H_    0.894847 0.800801 0.261283 0.188934

loop_
_geom_bond_atom_site_label_1
_geom_bond_atom_site_label_2
_ccdc_geom_bond_type
O9    C33   S    
C21   O11   S    
C27   C29   S    
Cu1   N2    S    
C12   O3    A    
C12   O4    A    
Cu1   O7    S    
C11   C19   S    
Cu2   O6    S    
C24   N2    A    
C3    C7    A    
C5    C6    A    
O13   C37   S    
C26   H5    S    
C15   C16   A    
C21   N1    A    
C33   H11   S    
C2    C32   A    
C18   C19   S    
C34   H15   S    
C37   H29   S    
C20   C24   A    
C16   C17   A    
C25   O12   S    
C14   O13   S    
C4    C8    A    
O11   C35   S    
C21   C22   A    
Cu1   O1    S    
C36   H23   S    
C20   N1    A    
Cu1   Cu2   S    
C35   H18   S    
C15   H10   S    
Cu2   N1    S    
C24   C25   S    
C36   H22   S    
C4    C5    A    
C23   O5    A    
C25   C26   S    
C22   H3    S    
C37   H28   S    
O10   C34   S    
C35   H19   S    
C34   H16   S    
C2    C4    A    
C25   H4    S    
C5    C28   A    
C10   C30   A    
C23   O6    A    
C31   C32   A    
C17   C18   S    
C10   C12   S    
C18   O9    S    
C16   C23   S    
C8    H25   S    
C6    H6    S    
C1    C13   S    
C8    C29   A    
C28   H24   S    
C37   H30   S    
C27   O7    A    
C31   H26   S    
C7    H27   S    
C11   C17   A    
Cu2   O4    S    
C1    O2    A    
C36   H21   S    
C27   O8    A    
C6    C7    A    
C9    C29   A    
C19   O10   S    
C33   H13   S    
C35   H20   S    
C2    C3    A    
Cu1   O5    S    
O12   C36   S    
C3    C10   A    
C11   C13   A    
C30   C31   A    
C20   C26   S    
C32   H9    S    
C33   H12   S    
C19   H17   S    
C34   H14   S    
C1    O1    A    
C22   N2    A    
C9    C28   A    
Cu2   O8    S    
C9    H1    S    
Cu1   O3    S    
C14   C15   A    
C30   H8    S    
Cu2   O2    S    
C13   C14   A    
C18   H2    S    
C26   H7    S    
