data_mof_unit_13463.cif
_audit_creation_date              2012-12-10T18:06:01-0500
_audit_creation_method            fapswitch 2.2
_symmetry_space_group_name_H-M    P1
_symmetry_Int_Tables_number       1
_space_group_crystal_system       triclinic
_cell_length_a                    12.643913
_cell_length_b                    13.024938
_cell_length_c                    14.864694
_cell_angle_alpha                 89.190431
_cell_angle_beta                  101.838591
_cell_angle_gamma                 82.539217
_cell_volume                      2373.55783428

loop_
_atom_site_label
_atom_site_type_symbol
_atom_type_description
_atom_site_fract_x
_atom_site_fract_y
_atom_site_fract_z
_atom_type_partial_charge
C1    C     C_R   0.438658 0.691560 0.488403 0.821435
C2    C     C_R   0.431817 0.582088 0.800522 -0.071746
C3    C     C_R   0.497646 0.502802 0.767669 -0.147989
C4    C     C_R   0.499770 0.500390 0.672284 0.899531
C5    C     C_R   0.555070 0.419128 0.823111 -0.243926
C6    C     C_R   0.664234 0.080533 0.392351 -0.193303
C7    C     C_R   0.597818 0.201465 0.496235 -0.025833
C8    C     C_R   0.309257 0.836635 0.524453 -0.181929
C9    C     C_R   0.286370 0.941234 0.541063 -0.135690
C10   C     C_R   0.357230 0.009708 0.525135 -0.199791
C11   C     C_R   0.449788 0.974380 0.488758 0.078801
C12   C     C_R   0.549855 0.407967 0.104071 0.036332
C13   C     C_R   0.459432 0.873680 0.456049 0.103167
C14   C     C_R   0.529774 0.037529 0.478869 0.007877
C15   C     C_R   0.596843 0.011058 0.414335 0.165719
C16   C     C_R   0.560908 0.309057 0.508188 0.967558
C17   C     C_R   0.593875 0.916582 0.371410 -0.229288
C18   C     C_R   0.527909 0.847259 0.394062 -0.204620
C19   C     C_R   0.545740 0.126045 0.530550 -0.038145
C20   C     C_R   0.660288 0.177749 0.429749 -0.253516
C21   C     C_R   0.398672 0.801979 0.485136 -0.122946
C22   C     C_R   0.074536 0.443028 0.321097 -0.055339
C23   C     C_R   0.378286 0.661924 0.026822 -0.238185
C24   C     C_R   0.809628 0.586460 0.634180 0.026464
C25   C     C_R   0.917447 0.601109 0.667326 -0.241088
C26   C     C_R   0.994129 0.573706 0.613904 -0.184328
C27   C     C_R   0.962942 0.531285 0.527197 0.027516
C28   C     C_R   0.499982 0.499511 0.327831 0.848715
C29   C     C_R   0.849985 0.539973 0.490251 0.082583
C30   C     C_R   0.038471 0.490931 0.472804 -0.055367
C31   C     C_R   0.998434 0.476857 0.376966 -0.019055
C32   C     C_R   0.883937 0.499086 0.340527 -0.035037
C33   C     C_R   0.815588 0.547486 0.394951 -0.078336
C34   C     C_R   0.376781 0.663523 0.933737 -0.168804
C35   C     C_R   0.151758 0.460644 0.510675 0.171013
C36   C     C_R   0.185453 0.418880 0.363884 0.090222
C37   C     C_R   0.553773 0.413088 0.198551 -0.194364
C38   C     C_R   0.498981 0.497990 0.232642 -0.007030
C39   C     C_R   0.438565 0.579171 0.176234 -0.236693
C40   C     C_R   0.435339 0.577958 0.082948 0.160048
C41   C     C_R   0.491547 0.492783 0.046099 0.066688
C42   C     C_2   0.524303 0.133044 0.625669 0.286730
C43   C     C_2   0.260978 0.356457 0.315773 0.474942
C44   C     C_2   0.829270 0.445047 0.260857 0.446924
C45   C     C_R   0.431511 0.580211 0.894770 0.114443
C46   C     C_3   0.045966 0.453068 0.215962 -0.439168
C47   C     C_3   0.033938 0.348711 0.170132 -0.322304
C48   C     C_3   0.989909 0.364907 0.066701 -0.833432
C49   C     C_3   0.190635 0.418750 0.609939 -0.424524
C50   C     C_3   0.254674 0.309409 0.617061 -0.301709
C51   C     C_3   0.290778 0.269044 0.717084 -0.838073
C52   C     C_2   0.733938 0.637753 0.356097 0.501164
C53   C     C_2   0.366760 0.665876 0.735279 0.349103
C54   C     C_3   0.649239 0.224992 0.928775 -0.374643
C55   C     C_3   0.765724 0.230988 0.915760 -0.305363
C56   C     C_R   0.490841 0.494239 0.952125 0.005929
C57   C     C_3   0.804007 0.142542 0.858871 -0.857258
C58   C     C_2   0.660036 0.231299 0.129165 0.343193
C59   C     C_R   0.550225 0.410984 0.915648 0.047443
C60   C     C_R   0.603060 0.322095 0.971834 0.054188
C61   C     C_R   0.604151 0.321738 0.067322 -0.015831
H1    H     H_    0.599301 0.352312 0.247009 0.103716
H2    H     H_    0.076785 0.588161 0.640239 0.181942
H3    H     H_    0.941874 0.631285 0.734814 0.162828
H4    H     H_    0.336123 0.727452 0.055265 0.154393
H5    H     H_    0.334751 0.732142 0.893757 0.195440
H6    H     H_    0.601932 0.360194 0.791505 0.194831
H7    H     H_    0.701240 0.236077 0.403451 0.149602
H8    H     H_    0.501705 0.067112 0.659044 0.090500
H9    H     H_    0.267500 0.378768 0.246763 0.036913
H10   H     H_    0.837025 0.361189 0.264013 0.054714
H11   H     H_    0.904607 0.404663 0.052668 0.285040
H12   H     H_    0.643804 0.895595 0.321578 0.172037
H13   H     H_    0.041368 0.411969 0.035464 0.254783
H14   H     H_    0.991451 0.288663 0.034298 0.243313
H15   H     H_    0.113907 0.299007 0.180995 0.213458
H16   H     H_    0.978985 0.305262 0.200205 0.238964
H17   H     H_    0.973022 0.510695 0.190970 0.256144
H18   H     H_    0.110592 0.488624 0.191126 0.179800
H19   H     H_    0.346414 0.319323 0.756935 0.282426
H20   H     H_    0.218938 0.267131 0.749026 0.248622
H21   H     H_    0.334622 0.189112 0.719987 0.254075
H22   H     H_    0.202583 0.255760 0.577744 0.202552
H23   H     H_    0.713540 0.062629 0.341508 0.157604
H24   H     H_    0.327878 0.309290 0.587594 0.293993
H25   H     H_    0.238429 0.473297 0.651628 0.240449
H26   H     H_    0.120458 0.409221 0.641814 0.199543
H27   H     H_    0.695795 0.685844 0.402410 0.062470
H28   H     H_    0.403378 0.699128 0.683817 0.057277
H29   H     H_    0.801628 0.066598 0.892828 0.268347
H30   H     H_    0.751259 0.147692 0.788859 0.284353
H31   H     H_    0.889122 0.147627 0.852357 0.247076
H32   H     H_    0.770896 0.305771 0.881232 0.215348
H33   H     H_    0.822028 0.226049 0.983884 0.268399
H34   H     H_    0.259347 0.782574 0.544799 0.181064
H35   H     H_    0.649048 0.153917 0.970763 0.217136
H36   H     H_    0.594434 0.212651 0.862364 0.219068
H37   H     H_    0.618288 0.198407 0.177242 0.064430
H38   H     H_    0.337766 0.090350 0.539470 0.149509
H39   H     H_    0.216470 0.968482 0.570045 0.155053
H40   H     H_    0.526225 0.774690 0.359620 0.154869
H41   H     H_    0.395769 0.643785 0.205544 0.125849
H42   H     H_    0.751495 0.603128 0.677699 0.148962
N1    N     N_R   0.222190 0.444670 0.452360 -0.132332
N2    N     N_R   0.776970 0.554790 0.547140 -0.136752
O1    O     O_R   0.366740 0.627160 0.477250 -0.609443
O2    O     O_2   0.314388 0.276354 0.352078 -0.577311
O3    O     O_2   0.774873 0.492980 0.192129 -0.516413
O4    O     O_2   0.711578 0.662085 0.274136 -0.537553
O5    O     O_2   0.270765 0.693888 0.735192 -0.603994
O6    O     O_2   0.754007 0.195156 0.129080 -0.588318
O7    O     O_R   0.544830 0.662520 0.507680 -0.625609
O8    O     O_R   0.410940 0.482340 0.616930 -0.616568
O9    O     O_R   0.589030 0.517700 0.647360 -0.630876
O10   O     O_R   0.455170 0.337480 0.492320 -0.572114
O11   O     O_R   0.633260 0.372840 0.522750 -0.623049
O12   O     O_R   0.410970 0.482300 0.352640 -0.638410
O13   O     O_R   0.589060 0.517660 0.383070 -0.632891
O14   O     O_2   0.537147 0.210312 0.669972 -0.627742
Zn1   Zn    Zn3+2 0.381090 0.476390 0.479680 0.967355
Zn2   Zn    Zn3+2 0.618910 0.523610 0.520320 0.932053

loop_
_geom_bond_atom_site_label_1
_geom_bond_atom_site_label_2
_ccdc_geom_bond_type
C53   O5    D    
C1    C21   S    
C57   H31   S    
C27   C29   A    
C49   H26   S    
C58   H37   S    
C5    H6    S    
C34   H5    S    
C37   H1    S    
C54   C60   S    
C33   C52   S    
C26   C27   A    
C37   C38   A    
C13   C18   A    
C4    O9    A    
C47   H15   S    
C28   O12   A    
C1    O7    A    
C46   H18   S    
C11   C14   A    
C42   O14   D    
C23   C40   A    
C29   C33   A    
C44   H10   S    
C12   C37   A    
C51   H19   S    
C50   H24   S    
C6    C15   A    
C46   C47   S    
O9    Zn2   S    
C47   C48   S    
C45   C56   A    
C8    C9    A    
C35   C49   S    
C54   H36   S    
C9    C10   A    
C51   H20   S    
C54   H35   S    
C19   C42   S    
C55   H32   S    
C1    O1    A    
C58   C61   S    
C25   H3    S    
C59   C60   A    
C27   C30   A    
C17   H12   S    
C48   H14   S    
C29   N2    A    
C8    H34   S    
C48   H11   S    
C55   H33   S    
C16   O11   A    
C50   H22   S    
C50   C51   S    
C44   O3    D    
C2    C45   A    
C6    H23   S    
C22   C31   A    
C5    C59   A    
N2    Zn2   S    
C58   O6    D    
C48   H13   S    
C4    O8    A    
C52   H27   S    
C24   C25   A    
C35   N1    A    
C57   H29   S    
O12   Zn1   S    
C39   C40   A    
C46   H17   S    
C25   C26   A    
C42   H8    S    
C60   C61   A    
C18   H40   S    
C26   H2    S    
C41   C56   A    
C12   C41   A    
O8    Zn1   S    
C31   C32   A    
C28   C38   S    
C30   C31   A    
O11   Zn2   S    
C23   C34   A    
C17   C18   A    
C32   C44   S    
C13   C21   A    
C34   C45   A    
C43   O2    D    
C51   H21   S    
C30   C35   A    
C7    C16   S    
C22   C46   S    
C49   C50   S    
C9    H39   S    
C7    C19   A    
C55   C57   S    
C53   H28   S    
C47   H16   S    
C3    C4    S    
C16   O10   A    
C6    C20   A    
C39   H41   S    
C15   C17   A    
C54   C55   S    
C40   C41   A    
C57   H30   S    
O1    Zn1   S    
C14   C19   A    
C20   H7    S    
C3    C5    A    
C2    C53   S    
C8    C21   A    
O10   Zn1   S    
C43   H9    S    
C22   C36   A    
C56   C59   A    
C36   N1    A    
C24   H42   S    
C32   C33   A    
C23   H4    S    
C2    C3    A    
O7    Zn2   S    
C28   O13   A    
C12   C61   A    
C11   C13   A    
C38   C39   A    
C52   O4    D    
C49   H25   S    
C10   H38   S    
C10   C11   A    
C7    C20   A    
C14   C15   A    
C36   C43   S    
C24   N2    A    
O13   Zn2   S    
N1    Zn1   S    
