data_mof_unit_9288.cif
_audit_creation_date              2012-12-10T20:12:39-0500
_audit_creation_method            fapswitch 2.2
_symmetry_space_group_name_H-M    P1
_symmetry_Int_Tables_number       1
_space_group_crystal_system       triclinic
_cell_length_a                    19.020166
_cell_length_b                    18.456991
_cell_length_c                    10.754939
_cell_angle_alpha                 89.756222
_cell_angle_beta                  92.138959
_cell_angle_gamma                 89.727689
_cell_volume                      3772.86509478

loop_
_atom_site_label
_atom_site_type_symbol
_atom_type_description
_atom_site_fract_x
_atom_site_fract_y
_atom_site_fract_z
_atom_type_partial_charge
C1    C     C_R   0.364677 0.500379 0.505289 0.852906
C2    C     C_R   0.955774 0.563983 0.447973 -0.175196
C3    C     C_R   0.831927 0.690255 0.307629 -0.157835
C4    C     C_R   0.037455 0.474012 0.301827 -0.187151
C5    C     C_R   0.028191 0.565491 0.462410 -0.196818
C6    C     C_R   0.069595 0.519227 0.391809 0.128508
C7    C     C_R   0.923814 0.515572 0.364369 0.154225
C8    C     C_R   0.176575 0.445497 0.438512 -0.225100
C9    C     C_R   0.182738 0.575842 0.454717 -0.231804
C10   C     C_R   0.497999 0.499628 0.257477 0.828018
C11   C     C_R   0.246741 0.438974 0.480667 -0.014501
C12   C     C_R   0.251729 0.571155 0.501913 0.003882
C13   C     C_3   0.579189 0.521052 0.939427 0.423458
C14   C     C_R   0.286829 0.502813 0.501761 -0.171862
C15   C     C_R   0.145183 0.513649 0.422006 0.079972
C16   C     C_R   0.550228 0.732572 0.557413 0.274993
C17   C     C_R   0.538355 0.267687 0.582880 0.290983
C18   C     C_R   0.547264 0.809249 0.545488 -0.060295
C19   C     C_R   0.534351 0.190870 0.575873 -0.071260
C20   C     C_R   0.490798 0.842167 0.478395 -0.002451
C21   C     C_R   0.491660 0.158028 0.482090 0.004204
C22   C     C_R   0.440015 0.797193 0.422167 -0.300674
C23   C     C_R   0.455443 0.203387 0.396360 -0.296762
C24   C     C_R   0.756039 0.444131 0.486735 0.103595
C25   C     C_R   0.445973 0.721316 0.432867 0.041905
C26   C     C_R   0.459762 0.279125 0.407617 0.051312
C27   C     C_R   0.504227 0.962313 0.367505 -0.190361
C28   C     C_R   0.504655 0.038702 0.368573 -0.195103
C29   C     C_R   0.484517 0.077102 0.474453 0.140466
C30   C     C_R   0.483428 0.922908 0.472092 0.140915
C31   C     C_R   0.634821 0.500054 0.490587 0.883786
C32   C     C_R   0.460984 0.037354 0.576738 -0.171346
C33   C     C_R   0.460891 0.961309 0.575891 -0.173883
C34   C     C_R   0.503809 0.499414 0.742757 0.859008
C35   C     C_R   0.731029 0.556921 0.368557 0.095421
C36   C     C_3   0.435620 0.541963 0.061492 -0.176815
C37   C     C_3   0.490412 0.416913 0.070612 -0.138731
C38   C     C_3   0.444742 0.547727 0.920485 -0.475934
C39   C     C_3   0.486985 0.419903 0.926955 -0.476670
C40   C     C_3   0.570078 0.530095 0.080757 -0.394942
C41   C     C_3   0.499658 0.497502 0.121802 0.020643
C42   C     C_3   0.505049 0.497550 0.879534 0.129522
C43   C     C_R   0.413788 0.615649 0.113232 0.181246
C44   C     C_R   0.453118 0.679192 0.093989 -0.135670
C45   C     C_R   0.423703 0.747496 0.114037 -0.162959
C46   C     C_R   0.825419 0.445214 0.445366 0.003206
C47   C     C_R   0.354749 0.753675 0.152730 -0.149835
C48   C     C_R   0.316013 0.691544 0.176476 -0.157744
C49   C     C_R   0.345524 0.623106 0.158976 -0.168789
C50   C     C_R   0.537167 0.352896 0.117415 0.157012
C51   C     C_R   0.598921 0.358847 0.194262 -0.069624
C52   C     C_R   0.635786 0.297059 0.235726 -0.155040
C53   C     C_R   0.612005 0.228286 0.202205 -0.111283
C54   C     C_R   0.551323 0.221084 0.126734 -0.128395
C55   C     C_R   0.514431 0.282564 0.084579 -0.210449
C56   C     C_R   0.273567 0.365351 0.513927 0.157116
C57   C     C_R   0.801590 0.559031 0.333910 -0.006125
C58   C     C_R   0.303565 0.351624 0.633435 -0.092057
C59   C     C_R   0.326667 0.281935 0.666667 -0.145849
C60   C     C_R   0.318499 0.225021 0.582259 -0.102762
C61   C     C_R   0.287800 0.237841 0.464051 -0.149710
C62   C     C_R   0.265615 0.307688 0.429655 -0.191644
C63   C     C_R   0.281448 0.636367 0.565864 0.158749
C64   C     C_R   0.274292 0.705835 0.512243 -0.192383
C65   C     C_R   0.298055 0.766983 0.577328 -0.141688
C66   C     C_R   0.329263 0.759562 0.696309 -0.106459
C67   C     C_R   0.335415 0.691122 0.751482 -0.138631
C68   C     C_R   0.848243 0.503980 0.373831 -0.105977
C69   C     C_R   0.311215 0.629916 0.687053 -0.101082
C70   C     C_3   0.608695 0.699577 0.634851 -0.895126
C71   C     C_3   0.586394 0.300502 0.681432 -0.893801
C72   C     C_R   0.604531 0.853803 0.601320 0.149505
C73   C     C_R   0.663593 0.869696 0.532007 -0.145225
C74   C     C_R   0.722448 0.902187 0.589483 -0.147583
C75   C     C_R   0.722707 0.918321 0.716341 -0.107570
C76   C     C_R   0.663277 0.904185 0.785048 -0.112530
C77   C     C_R   0.604053 0.872447 0.727612 -0.152581
C78   C     C_R   0.580392 0.146198 0.659880 0.139639
C79   C     C_R   0.708648 0.500888 0.450404 -0.111006
C80   C     C_R   0.562104 0.133413 0.783309 -0.160528
C81   C     C_R   0.610139 0.099809 0.866769 -0.127166
C82   C     C_R   0.676973 0.080458 0.828251 -0.106421
C83   C     C_R   0.695177 0.092591 0.705180 -0.116071
C84   C     C_R   0.646825 0.124722 0.620750 -0.135713
C85   C     C_3   0.607752 0.592957 0.887910 -0.940616
C86   C     C_3   0.637409 0.463459 0.916642 -0.918917
C87   C     C_3   0.733550 0.384186 0.573095 -0.906018
C88   C     C_3   0.680757 0.614527 0.315835 -0.871183
C89   C     C_R   0.875773 0.386142 0.479873 0.147613
C90   C     C_R   0.964386 0.472079 0.288251 -0.161094
C91   C     C_R   0.924916 0.394888 0.579324 -0.136391
C92   C     C_R   0.973577 0.339891 0.608824 -0.141362
C93   C     C_R   0.973080 0.275826 0.539919 -0.116997
C94   C     C_R   0.923830 0.266614 0.441525 -0.148903
C95   C     C_R   0.875228 0.321594 0.411431 -0.170414
C96   C     C_R   0.828102 0.620015 0.258142 0.151261
C97   C     C_R   0.849755 0.607622 0.136637 -0.154926
C98   C     C_R   0.874581 0.664926 0.065343 -0.136729
C99   C     C_R   0.878033 0.734766 0.114935 -0.112151
C100  C     C_R   0.856757 0.747406 0.235999 -0.148096
H1    H     H_    0.068694 0.438310 0.246084 0.125504
H2    H     H_    0.523074 0.067770 0.288497 0.125058
H3    H     H_    0.443876 0.065316 0.658627 0.119493
H4    H     H_    0.444650 0.932230 0.657588 0.121339
H5    H     H_    0.388829 0.506710 0.072311 0.117582
H6    H     H_    0.437123 0.399978 0.099142 0.119572
H7    H     H_    0.394516 0.531464 0.872482 0.144873
H8    H     H_    0.433162 0.404503 0.892272 0.161568
H9    H     H_    0.454369 0.604128 0.890278 0.190207
H10   H     H_    0.522664 0.379139 0.887724 0.201183
H11   H     H_    0.570730 0.587862 0.106999 0.166239
H12   H     H_    0.051302 0.599522 0.534610 0.131435
H13   H     H_    0.616319 0.507955 0.133166 0.146373
H14   H     H_    0.939479 0.434286 0.223885 0.126780
H15   H     H_    0.924359 0.596925 0.508195 0.128918
H16   H     H_    0.504246 0.677319 0.054387 0.118562
H17   H     H_    0.453729 0.795823 0.095853 0.126698
H18   H     H_    0.331460 0.806655 0.165010 0.121955
H19   H     H_    0.262425 0.696313 0.205774 0.128610
H20   H     H_    0.313200 0.576012 0.174545 0.115755
H21   H     H_    0.618384 0.409857 0.227619 0.121980
H22   H     H_    0.682540 0.302584 0.295400 0.125375
H23   H     H_    0.145118 0.397143 0.424808 0.140805
H24   H     H_    0.640251 0.180568 0.235580 0.114271
H25   H     H_    0.532193 0.167771 0.101992 0.110711
H26   H     H_    0.467045 0.275268 0.027037 0.117205
H27   H     H_    0.309184 0.394966 0.700650 0.095806
H28   H     H_    0.350520 0.271988 0.758145 0.111449
H29   H     H_    0.336269 0.171048 0.608172 0.120423
H30   H     H_    0.281697 0.193698 0.398676 0.124474
H31   H     H_    0.242293 0.316817 0.337485 0.118516
H32   H     H_    0.250093 0.712883 0.420496 0.116460
H33   H     H_    0.292506 0.820166 0.535219 0.126081
H34   H     H_    0.156609 0.628114 0.450108 0.130811
H35   H     H_    0.347911 0.806924 0.746288 0.117209
H36   H     H_    0.357818 0.685756 0.844989 0.141106
H37   H     H_    0.314113 0.577519 0.732165 0.090759
H38   H     H_    0.596764 0.643297 0.651039 0.294951
H39   H     H_    0.659429 0.704699 0.588041 0.229593
H40   H     H_    0.612863 0.725366 0.727731 0.223577
H41   H     H_    0.591823 0.359035 0.671471 0.287346
H42   H     H_    0.566609 0.287908 0.774618 0.223414
H43   H     H_    0.640112 0.277380 0.676082 0.229105
H44   H     H_    0.664792 0.854869 0.434762 0.116970
H45   H     H_    0.395344 0.820924 0.371689 0.152733
H46   H     H_    0.768332 0.913599 0.536291 0.117179
H47   H     H_    0.768778 0.942323 0.761238 0.106772
H48   H     H_    0.663420 0.917073 0.883130 0.114964
H49   H     H_    0.559004 0.859761 0.782300 0.110732
H50   H     H_    0.511455 0.150930 0.815259 0.109069
H51   H     H_    0.596114 0.089802 0.961817 0.111716
H52   H     H_    0.714554 0.055669 0.893623 0.106507
H53   H     H_    0.746975 0.077609 0.675440 0.117904
H54   H     H_    0.661994 0.135463 0.526365 0.116280
H55   H     H_    0.648745 0.616043 0.952526 0.239270
H56   H     H_    0.422615 0.180342 0.322359 0.143577
H57   H     H_    0.634961 0.582244 0.800840 0.248039
H58   H     H_    0.566138 0.634477 0.872887 0.234925
H59   H     H_    0.629060 0.411814 0.965770 0.246164
H60   H     H_    0.640099 0.451822 0.815936 0.218382
H61   H     H_    0.689835 0.483444 0.950048 0.244684
H62   H     H_    0.707953 0.407954 0.654331 0.232028
H63   H     H_    0.697230 0.347294 0.521417 0.258972
H64   H     H_    0.777470 0.350614 0.612198 0.245361
H65   H     H_    0.628207 0.592120 0.295652 0.254694
H66   H     H_    0.676995 0.660019 0.382227 0.249605
H67   H     H_    0.406561 0.687530 0.388131 0.170367
H68   H     H_    0.696944 0.636166 0.224956 0.227444
H69   H     H_    0.925755 0.444382 0.633073 0.126144
H70   H     H_    0.011712 0.346955 0.684978 0.126892
H71   H     H_    0.010819 0.233313 0.562823 0.120750
H72   H     H_    0.923473 0.216967 0.388329 0.122922
H73   H     H_    0.837553 0.314212 0.334549 0.121894
H74   H     H_    0.847104 0.553737 0.097279 0.120274
H75   H     H_    0.891085 0.655211 0.971618 0.125095
H76   H     H_    0.897222 0.779076 0.059581 0.117352
H77   H     H_    0.859527 0.801482 0.274345 0.120659
H78   H     H_    0.430327 0.313080 0.341870 0.135295
H79   H     H_    0.815745 0.700554 0.401450 0.125421
H80   H     H_    0.522299 0.933918 0.286690 0.126193
N1    N     N_R   0.499980 0.689440 0.500020 -0.103690
N2    N     N_R   0.499980 0.310560 0.500020 -0.096597
O1    O     O_R   0.398180 0.560840 0.500010 -0.608746
O2    O     O_R   0.398180 0.439160 0.500010 -0.604593
O3    O     O_R   0.499990 0.560810 0.314820 -0.619633
O4    O     O_R   0.499990 0.439190 0.314820 -0.632842
O5    O     O_R   0.601820 0.560790 0.500050 -0.622110
O6    O     O_R   0.601820 0.439210 0.500050 -0.622258
O7    O     O_R   0.500010 0.560810 0.685230 -0.624397
O8    O     O_R   0.500010 0.439190 0.685230 -0.635117
Zn1   Zn    Zn3+2 0.500000 0.581210 0.500040 0.935100
Zn2   Zn    Zn3+2 0.500000 0.418790 0.500040 0.934217

loop_
_geom_bond_atom_site_label_1
_geom_bond_atom_site_label_2
_ccdc_geom_bond_type
C87   H63   S    
C70   H40   S    
C93   C94   A    
C98   H75   S    
C33   H4    S    
C73   C74   A    
C2    C7    A    
C34   C42   S    
C75   C76   A    
C97   C98   A    
C1    O1    A    
C46   C89   S    
C20   C30   S    
C53   C54   A    
C25   H67   S    
C65   C66   A    
C80   H50   S    
C85   H57   S    
C83   C84   A    
C40   H11   S    
C28   C29   A    
C19   C21   A    
C38   C42   S    
C29   C32   A    
C5    C6    A    
C11   C14   A    
C78   C80   A    
C49   H20   S    
C10   O3    A    
C85   H55   S    
C23   C26   A    
C38   H7    S    
O7    Zn1   S    
C3    H79   S    
C13   C40   S    
C94   H72   S    
C7    C68   S    
C84   H54   S    
C3    C100  A    
C47   H18   S    
C99   H76   S    
C63   C69   A    
C31   O6    A    
C92   H70   S    
C88   H68   S    
C57   C96   S    
C13   C86   S    
O2    Zn2   S    
C3    C96   A    
C89   C91   A    
C86   H59   S    
O5    Zn1   S    
C71   H41   S    
C9    H34   S    
C26   H78   S    
C87   H64   S    
C6    C15   S    
C59   C60   A    
C23   H56   S    
C96   C97   A    
C27   C30   A    
C18   C72   S    
C36   C41   S    
C61   C62   A    
N2    Zn2   S    
C100  H77   S    
C17   N2    A    
C13   C42   S    
C9    C12   A    
C1    O2    A    
C25   N1    A    
O3    Zn1   S    
C39   C42   S    
C4    C90   A    
C45   C47   A    
C69   H37   S    
C39   H8    S    
C54   H25   S    
C74   C75   A    
C91   H69   S    
C51   C52   A    
C47   C48   A    
C64   H32   S    
C34   O8    A    
C16   C70   S    
C27   H80   S    
C72   C73   A    
C4    C6    A    
C77   H49   S    
C91   C92   A    
C12   C63   S    
C16   N1    A    
C43   C49   A    
C13   C85   S    
C75   H47   S    
C59   H28   S    
C81   H51   S    
C7    C90   A    
C21   C29   S    
C22   C25   A    
C81   C82   A    
C66   H35   S    
C60   C61   A    
C67   C69   A    
C89   C95   A    
C19   C78   S    
C43   C44   A    
C46   C68   A    
C72   C77   A    
C28   H2    S    
C35   C88   S    
C24   C79   A    
C40   H13   S    
C22   H45   S    
C58   H27   S    
C4    H1    S    
C50   C51   A    
C32   H3    S    
C86   H61   S    
C76   C77   A    
C38   H9    S    
C31   C79   S    
C44   H16   S    
C95   H73   S    
C61   H30   S    
C71   H42   S    
C26   N2    A    
C40   C41   S    
C12   C14   A    
C17   C71   S    
C8    C15   A    
C88   H66   S    
C21   C23   A    
C51   H21   S    
C56   C62   A    
C39   H10   S    
C2    C5    A    
C55   H26   S    
C85   H58   S    
C57   C68   A    
C17   C19   A    
C52   C53   A    
C71   H43   S    
C45   H17   S    
C54   C55   A    
C93   H71   S    
O8    Zn2   S    
C97   H74   S    
C30   C33   A    
C36   H5    S    
C9    C15   A    
C62   H31   S    
C74   H46   S    
C34   O7    A    
C44   C45   A    
C20   C22   A    
C80   C81   A    
C53   H24   S    
O1    Zn1   S    
C60   H29   S    
C52   H22   S    
C8    H23   S    
C70   H38   S    
C83   H53   S    
C5    H12   S    
O6    Zn2   S    
C50   C55   A    
C99   C100  A    
C2    H15   S    
C35   C57   A    
C24   C46   A    
C64   C65   A    
C36   C38   S    
C67   H36   S    
C58   C59   A    
C37   H6    S    
C37   C39   S    
C32   C33   A    
C37   C50   S    
N1    Zn1   S    
C88   H65   S    
C8    C11   A    
C48   C49   A    
C35   C79   A    
C92   C93   A    
C10   O4    A    
C56   C58   A    
C66   C67   A    
C18   C20   A    
C90   H14   S    
C37   C41   S    
C94   C95   A    
C24   C87   S    
C82   H52   S    
C63   C64   A    
C78   C84   A    
C70   H39   S    
C87   H62   S    
C76   H48   S    
C16   C18   A    
C98   C99   A    
C31   O5    A    
C27   C28   A    
C48   H19   S    
C36   C43   S    
C1    C14   S    
O4    Zn2   S    
C82   C83   A    
C86   H60   S    
C65   H33   S    
C11   C56   S    
C10   C41   S    
C73   H44   S    
