data_mof_unit_40987.cif
_audit_creation_date              2013-03-05T16:45:43-0500
_audit_creation_method            fapswitch 2.2
_symmetry_space_group_name_H-M    P1
_symmetry_Int_Tables_number       1
_space_group_crystal_system       triclinic
_cell_length_a                    17.524313
_cell_length_b                    10.651966
_cell_length_c                    9.866516
_cell_angle_alpha                 90.156826
_cell_angle_beta                  89.790501
_cell_angle_gamma                 90.444288
_cell_volume                      1841.69217945

loop_
_atom_site_label
_atom_site_type_symbol
_atom_site_description
_atom_site_fract_x
_atom_site_fract_y
_atom_site_fract_z
_atom_type_partial_charge
O1    O     O_R   0.500010 0.316790 0.614690 -0.613933
O2    O     O_R   0.500000 0.316760 0.385350 -0.622178
C1    C     C_R   0.498244 0.259791 0.500069 0.887907
O3    O     O_R   0.389120 0.500020 0.614710 -0.631793
O4    O     O_R   0.389110 0.499990 0.385370 -0.599488
C2    C     C_R   0.353479 0.499537 0.500136 0.914023
Zn1   Zn    Zn3+2 0.500010 0.500020 0.653130 0.955720
Zn2   Zn    Zn3+2 0.499990 0.499980 0.346870 1.030070
O5    O     O_R   0.500000 0.683240 0.614650 -0.625406
O6    O     O_R   0.499990 0.683210 0.385310 -0.561022
O7    O     O_R   0.610890 0.500010 0.614630 -0.628895
O8    O     O_R   0.610880 0.499980 0.385290 -0.584522
C3    C     C_R   0.494111 0.739545 0.500215 0.923407
C4    C     C_R   0.646553 0.498307 0.499757 0.877724
C5    C     C_R   0.848564 0.487357 0.620309 -0.149531
H1    H     H_    0.880315 0.502260 0.713116 0.156925
C6    C     C_R   0.770089 0.503214 0.620088 -0.185935
H2    H     H_    0.741721 0.529052 0.713712 0.170697
C7    C     C_R   0.729060 0.486455 0.499400 -0.046738
C8    C     C_R   0.767107 0.452574 0.379497 -0.145128
H3    H     H_    0.736379 0.437078 0.285861 0.191910
C9    C     C_R   0.845515 0.436796 0.380083 -0.118661
H4    H     H_    0.874843 0.412185 0.286922 0.175353
C10   C     C_R   0.885695 0.454337 0.500338 0.125045
C11   C     C_1   0.965906 0.447946 0.498008 0.001734
C12   C     C_1   0.033627 0.448608 0.494057 0.055775
C13   C     C_R   0.154044 0.420530 0.604358 -0.181078
H5    H     H_    0.124516 0.380523 0.691012 0.171970
C14   C     C_R   0.232349 0.437227 0.609415 -0.184626
H6    H     H_    0.262750 0.406348 0.698260 0.162497
C15   C     C_R   0.270863 0.490655 0.499202 -0.075049
C16   C     C_R   0.230582 0.528059 0.383983 -0.173580
H7    H     H_    0.260722 0.569469 0.299021 0.204575
C17   C     C_R   0.151804 0.510044 0.376455 0.337168
C18   C     C_R   0.114027 0.456312 0.488941 0.010517
C19   C     C_R   0.496199 0.063440 0.622461 0.143234
C20   C     C_R   0.485871 0.128124 0.502148 -0.133150
C21   C     C_R   0.455650 0.066013 0.388943 -0.244911
H8    H     H_    0.439167 0.118453 0.300278 0.223595
C22   C     C_R   0.448595 0.935656 0.389524 -0.044845
C23   C     C_R   0.477621 0.870424 0.503180 -0.184533
C24   C     C_R   0.492917 0.935864 0.622649 0.123299
C25   C     C_3   0.557604 0.925598 0.720567 -0.434572
C26   C     C_3   0.561070 0.067888 0.720258 -0.444348
H9    H     H_    0.538972 0.885903 0.819529 0.233410
H10   H     H_    0.608991 0.881242 0.675158 0.203845
H11   H     H_    0.544292 0.110412 0.818898 0.230562
H12   H     H_    0.614400 0.106496 0.674615 0.201006
C27   C     C_R   0.455898 0.415556 0.071299 0.084167
N1    N     N_R   0.499490 0.499140 0.142800 -0.176053
C28   C     C_R   0.548652 0.575492 0.071168 0.346850
C29   C     C_R   0.548638 0.574772 0.927266 -0.196250
H13   H     H_    0.586645 0.636978 0.872095 0.170726
N2    N     N_R   0.499490 0.499180 0.857150 -0.127070
C30   C     C_R   0.455414 0.416801 0.928574 0.220376
C31   C     C_3   0.370653 0.407756 0.922486 -0.541680
C32   C     C_3   0.370796 0.404643 0.076722 -0.244002
H14   H     H_    0.344591 0.494547 0.881575 0.214956
H15   H     H_    0.351364 0.319560 0.872253 0.220015
H16   H     H_    0.343631 0.488182 0.123538 0.182583
C33   C     C_2   0.412332 0.873074 0.271279 0.999470
O9    O     O_2   0.371338 0.780888 0.287697 -0.647670
O10   O     O_R   0.422898 0.922384 0.141309 -0.741634
H17   H     H_    0.395124 0.871980 0.069179 0.349737
N3    N     N_R   0.599008 0.659388 0.140349 0.225123
O11   O     O_R   0.670920 0.631355 0.148367 -0.408965
O12   O     O_R   0.578767 0.775570 0.157224 -0.378314
C34   C     C_2   0.343810 0.281627 0.135656 0.972012
O13   O     O_2   0.364845 0.182053 0.086589 -0.608370
O14   O     O_R   0.294174 0.282068 0.246691 -0.808575
H18   H     H_    0.280378 0.194311 0.278416 0.344696
N4    N     N_R   0.111765 0.546987 0.255636 0.209734
O15   O     O_R   0.050312 0.487723 0.217193 -0.387274
O16   O     O_R   0.140939 0.631906 0.175770 -0.372634

loop_
_geom_bond_atom_site_label_1
_geom_bond_atom_site_label_2
_geom_bond_distance
_ccdc_geom_bond_type
O4    Zn2   1.978513 S    
C26   H12   1.112357 S    
C30   C31   1.489182 S    
C31   H15   1.111871 S    
C10   C11   1.407920 S    
C5    C6    1.386866 A    
C14   H6    1.080805 S    
O10   H17   1.013923 S    
Zn2   N1    2.013506 S    
C13   C14   1.383412 A    
C23   C24   1.393595 A    
C19   C24   1.359716 A    
C15   C16   1.400743 A    
C26   H11   1.111915 S    
Zn2   O8    1.981260 S    
C25   C26   1.516428 S    
C13   C18   1.395060 A    
C16   H7    1.082326 S    
C33   O9    1.222965 D    
C3    C23   1.426148 S    
N1    C28   1.375138 A    
O8    C4    1.293097 A    
C27   C32   1.495744 S    
C27   N1    1.365250 A    
C14   C15   1.397852 A    
C5    C10   1.394231 A    
C29   H13   1.082345 S    
C8    H3    1.082670 S    
Zn1   O7    1.978513 S    
C25   H9    1.112010 S    
C9    H4    1.083999 S    
C21   H8    1.080633 S    
O3    Zn1   1.981260 S    
Zn2   O6    1.987249 S    
C19   C20   1.387308 A    
C21   C22   1.393127 A    
C20   C21   1.400210 A    
C29   N2    1.363558 A    
C6    H2    1.083316 S    
O2    C1    1.285902 A    
O1    Zn1   1.987249 S    
O4    C2    1.291092 A    
C17   C18   1.410619 A    
C25   H10   1.112377 S    
C9    C10   1.393326 A    
C19   C26   1.494193 S    
O3    C2    1.293492 A    
N3    O12   1.300146 A    
C24   C25   1.496961 S    
C8    C9    1.385612 A    
C32   C34   1.507100 S    
C5    H1    1.083897 S    
C17   N4    1.442613 S    
C12   C18   1.411434 S    
C13   H5    1.084293 S    
O14   H18   1.013801 S    
C28   C29   1.419816 A    
C31   C32   1.522241 S    
C1    C20   1.417702 S    
N4    O16   1.301661 A    
N3    O11   1.300083 A    
C28   N3    1.425525 S    
O7    C4    1.292438 A    
Zn1   O5    1.989261 S    
C34   O14   1.396386 S    
O5    C3    1.284789 A    
N2    C30   1.360924 A    
C22   C23   1.418789 A    
C32   H16   1.111099 S    
C2    C15   1.450207 S    
Zn1   N2    2.012998 S    
C6    C7    1.403518 A    
C11   C12   1.187215 T    
C27   C30   1.408351 A    
C4    C7    1.452344 S    
C34   O13   1.223595 D    
C33   O10   1.398223 S    
O2    Zn2   1.989261 S    
C22   C33   1.484564 S    
C7    C8    1.403555 A    
C31   H14   1.111816 S    
N4    O15   1.301257 A    
O1    C1    1.282483 A    
O6    C3    1.285455 A    
C16   C17   1.394553 A    
