data_mof_unit_38084.cif
_audit_creation_date              2012-12-11T15:09:12-0500
_audit_creation_method            fapswitch 2.2
_symmetry_space_group_name_H-M    P1
_symmetry_Int_Tables_number       1
_space_group_crystal_system       triclinic
_cell_length_a                    25.979615
_cell_length_b                    27.576424
_cell_length_c                    8.37554
_cell_angle_alpha                 89.999948
_cell_angle_beta                  96.363501
_cell_angle_gamma                 90.035044
_cell_volume                      5963.47371346

loop_
_atom_site_label
_atom_site_type_symbol
_atom_type_description
_atom_site_fract_x
_atom_site_fract_y
_atom_site_fract_z
_atom_type_partial_charge
Ba1   Ba    Ba6+2 0.999910 0.465960 0.844870 1.634608
Ba2   Ba    Ba6+2 0.999910 0.534040 0.344870 1.633927
Ba3   Ba    Ba6+2 0.499910 0.965960 0.844870 1.634605
Ba4   Ba    Ba6+2 0.499910 0.034040 0.344870 1.633940
C1    C     C_3   0.040309 0.241130 0.610572 -0.386189
C2    C     C_R   0.845608 0.642071 0.597424 -0.120001
C3    C     C_3   0.516568 0.208721 0.109193 0.396964
C4    C     C_R   0.913806 0.383619 0.299683 -0.278083
C5    C     C_R   0.913743 0.616283 0.799873 -0.278401
C6    C     C_R   0.413808 0.883618 0.299688 -0.278117
C7    C     C_R   0.413745 0.116284 0.799874 -0.278364
C8    C     C_3   0.720192 0.354917 0.109070 -0.217396
C9    C     C_3   0.684196 0.361511 0.239851 -0.417263
C10   C     C_3   0.721850 0.644540 0.584283 -0.217611
C11   C     C_3   0.709681 0.624937 0.413495 -0.414255
C12   C     C_3   0.220199 0.854911 0.109101 -0.217455
C13   C     C_R   0.345316 0.857875 0.097961 -0.126051
C14   C     C_3   0.184254 0.861503 0.240004 -0.417341
C15   C     C_3   0.221853 0.144543 0.584293 -0.217613
C16   C     C_3   0.209684 0.124938 0.413509 -0.414254
C17   C     C_3   0.990544 0.188284 0.055770 -0.181162
C18   C     C_3   0.014214 0.163344 0.209592 -0.434065
C19   C     C_3   0.986448 0.810519 0.551689 -0.181759
C20   C     C_3   0.008400 0.836366 0.705819 -0.433772
C21   C     C_3   0.490651 0.688264 0.055850 -0.181050
C22   C     C_3   0.514411 0.663420 0.209758 -0.433834
C23   C     C_3   0.486403 0.310502 0.551518 -0.181716
C24   C     C_R   0.345610 0.142072 0.597427 -0.120009
C25   C     C_3   0.508359 0.336381 0.705584 -0.433767
C26   C     C_R   0.832098 0.319593 0.198411 -0.015878
C27   C     C_R   0.832240 0.680413 0.697211 -0.018916
C28   C     C_R   0.332104 0.819589 0.198409 -0.015859
C29   C     C_R   0.332243 0.180416 0.697212 -0.018908
C30   C     C_R   0.860909 0.313992 0.350513 -0.138736
C31   C     C_R   0.860896 0.685976 0.849814 -0.142452
C32   C     C_R   0.360913 0.813989 0.350515 -0.138739
C33   C     C_3   0.039833 0.759239 0.111082 -0.388097
C34   C     C_R   0.360901 0.185979 0.849813 -0.142463
C35   C     C_R   0.901121 0.346426 0.401662 -0.003063
C36   C     C_R   0.901065 0.653535 0.901467 -0.001275
C37   C     C_R   0.401124 0.846424 0.401666 -0.003078
C38   C     C_R   0.401069 0.153538 0.901468 -0.001298
C39   C     C_R   0.797077 0.235544 0.150994 -0.093645
C40   C     C_R   0.796402 0.764510 0.657506 -0.094470
C41   C     C_R   0.297084 0.735541 0.150981 -0.093654
C42   C     C_R   0.296406 0.264513 0.657503 -0.094475
C43   C     C_R   0.257414 0.702212 0.103932 -0.084187
C44   C     C_3   0.540316 0.741136 0.610582 -0.386174
C45   C     C_R   0.256748 0.297811 0.610636 -0.083566
C46   C     C_R   0.757408 0.202215 0.103948 -0.084187
C47   C     C_R   0.756744 0.797808 0.610642 -0.083562
C48   C     C_R   0.207475 0.718201 0.046953 0.044880
C49   C     C_R   0.207410 0.281851 0.546879 0.044187
C50   C     C_R   0.707468 0.218204 0.046965 0.044876
C51   C     C_R   0.707406 0.781848 0.546885 0.044189
C52   C     C_R   0.197926 0.768338 0.041887 -0.077176
C53   C     C_R   0.198505 0.231679 0.533973 -0.077813
C54   C     C_R   0.697917 0.268341 0.041902 -0.077151
C55   C     C_3   0.539809 0.259256 0.110916 -0.388118
C56   C     C_R   0.698501 0.731676 0.533975 -0.077809
C57   C     C_R   0.736588 0.302355 0.097163 0.069461
C58   C     C_R   0.737483 0.697527 0.584709 0.070974
C59   C     C_R   0.236597 0.802352 0.097153 0.069473
C60   C     C_R   0.237486 0.197531 0.584712 0.070973
C61   C     C_3   0.999580 0.276957 0.146744 0.335499
C62   C     C_3   0.998420 0.722306 0.645265 0.334625
C63   C     C_3   0.499562 0.776961 0.146620 0.335537
C64   C     C_3   0.498423 0.222312 0.645257 0.334638
C65   C     C_R   0.787866 0.285917 0.146994 0.049077
C66   C     C_R   0.885065 0.390768 0.150657 0.082824
C67   C     C_R   0.787984 0.714079 0.644815 0.047622
C68   C     C_R   0.287873 0.785913 0.146989 0.049100
C69   C     C_R   0.287988 0.214082 0.644816 0.047621
C70   C     C_R   0.135575 0.688770 0.842462 -0.140823
C71   C     C_R   0.135640 0.311439 0.342261 -0.140717
C72   C     C_R   0.635571 0.188773 0.842465 -0.140849
C73   C     C_R   0.635634 0.811435 0.342272 -0.140700
C74   C     C_R   0.096683 0.655206 0.789794 -0.011359
C75   C     C_R   0.096753 0.344952 0.289669 -0.011700
C76   C     C_R   0.596680 0.155207 0.789791 -0.011395
C77   C     C_R   0.885156 0.609161 0.650699 0.080113
C78   C     C_R   0.596748 0.844948 0.289680 -0.011676
C79   C     C_R   0.115001 0.609606 0.037781 0.062296
C80   C     C_R   0.114950 0.390424 0.537863 0.062424
C81   C     C_R   0.615000 0.109605 0.037777 0.062290
C82   C     C_R   0.614949 0.890423 0.537867 0.062419
C83   C     C_R   0.155097 0.642443 0.088917 -0.126656
C84   C     C_R   0.154948 0.357565 0.589226 -0.127467
C85   C     C_R   0.655094 0.142444 0.088917 -0.126650
C86   C     C_R   0.654946 0.857563 0.589231 -0.127474
C87   C     C_R   0.165190 0.682922 0.993121 -0.005897
C88   C     C_R   0.385068 0.890768 0.150660 0.082808
C89   C     C_R   0.165132 0.317159 0.493251 -0.005750
C90   C     C_R   0.665185 0.182924 0.993126 -0.005884
C91   C     C_R   0.665128 0.817156 0.493259 -0.005761
C92   C     C_R   0.085267 0.617198 0.890538 -0.275104
C93   C     C_R   0.085293 0.382890 0.390482 -0.275194
C94   C     C_R   0.585267 0.117198 0.890533 -0.275094
C95   C     C_R   0.585289 0.882888 0.390490 -0.275211
C96   C     C_3   0.962630 0.235849 0.088092 -0.151672
C97   C     C_3   0.960172 0.762062 0.583802 -0.151207
C98   C     C_3   0.462673 0.735808 0.087989 -0.151698
C99   C     C_R   0.385157 0.109161 0.650702 0.080113
C100  C     C_3   0.460153 0.262043 0.583761 -0.151168
C101  C     C_3   0.147417 0.469289 0.221988 0.316054
C102  C     C_3   0.147393 0.530778 0.721817 0.316195
C103  C     C_3   0.647414 0.969287 0.221981 0.316050
C104  C     C_3   0.647395 0.030778 0.721816 0.316202
C105  C     C_3   0.196253 0.438475 0.243073 -0.396737
C106  C     C_3   0.196219 0.561659 0.743016 -0.397144
C107  C     C_3   0.696249 0.938473 0.243081 -0.396733
C108  C     C_3   0.696217 0.061663 0.742954 -0.397126
C109  C     C_3   0.851487 0.530994 0.968526 0.317828
C110  C     C_R   0.845310 0.357878 0.097962 -0.126056
C111  C     C_3   0.851328 0.469143 0.466848 0.316357
C112  C     C_3   0.351488 0.030995 0.968537 0.317828
C113  C     C_3   0.351331 0.969149 0.466796 0.316350
C114  C     C_3   0.802623 0.561791 0.954311 -0.400523
C115  C     C_3   0.802125 0.438746 0.448007 -0.402555
C116  C     C_3   0.302623 0.061790 0.954295 -0.400541
C117  C     C_3   0.302107 0.938762 0.447692 -0.402679
C118  C     C_3   0.016850 0.291549 0.609148 0.395755
C119  C     C_3   0.016574 0.708710 0.109295 0.396877
C120  C     C_3   0.516849 0.791552 0.609131 0.395815
H1    H     H_    0.041183 0.314458 0.696804 0.096860
H2    H     H_    0.187134 0.598816 0.781008 0.067167
H3    H     H_    0.437980 0.249292 0.470319 0.126788
H4    H     H_    0.131635 0.472285 0.338861 0.009922
H5    H     H_    0.131539 0.527815 0.838592 0.009870
H6    H     H_    0.631627 0.972282 0.338844 0.009914
H7    H     H_    0.631555 0.027816 0.838613 0.009856
H8    H     H_    0.118781 0.451417 0.132536 0.065157
H9    H     H_    0.118801 0.548588 0.632166 0.065316
H10   H     H_    0.618782 0.951417 0.132517 0.065186
H11   H     H_    0.618792 0.048585 0.632193 0.065302
H12   H     H_    0.835452 0.221844 0.190369 0.065783
H13   H     H_    0.687214 0.901343 0.281532 0.067436
H14   H     H_    0.834209 0.778333 0.703243 0.066199
H15   H     H_    0.335458 0.721841 0.190354 0.065780
H16   H     H_    0.334213 0.278336 0.703240 0.066197
H17   H     H_    0.647942 0.340318 0.211863 0.130769
H18   H     H_    0.703968 0.349655 0.357890 0.137185
H19   H     H_    0.673814 0.400410 0.248444 0.122179
H20   H     H_    0.753187 0.379782 0.138363 0.109701
H21   H     H_    0.700053 0.366784 0.991576 0.102763
H22   H     H_    0.674532 0.642666 0.352208 0.124968
H23   H     H_    0.742493 0.631328 0.341867 0.131937
H24   H     H_    0.687132 0.098819 0.780959 0.067162
H25   H     H_    0.702360 0.585313 0.418091 0.128647
H26   H     H_    0.751719 0.621442 0.651039 0.107802
H27   H     H_    0.686787 0.640705 0.648235 0.103891
H28   H     H_    0.148007 0.840299 0.212140 0.130808
H29   H     H_    0.204064 0.849657 0.357982 0.137209
H30   H     H_    0.173868 0.900399 0.248624 0.122199
H31   H     H_    0.253191 0.879784 0.138266 0.109716
H32   H     H_    0.200021 0.866772 0.991673 0.102787
H33   H     H_    0.174535 0.142666 0.352220 0.124971
H34   H     H_    0.242495 0.131328 0.341879 0.131935
H35   H     H_    0.213337 0.436107 0.127481 0.125467
H36   H     H_    0.202363 0.085314 0.418111 0.128650
H37   H     H_    0.251722 0.121446 0.651053 0.107801
H38   H     H_    0.186790 0.140710 0.648247 0.103892
H39   H     H_    0.047302 0.184627 0.268347 0.128588
H40   H     H_    0.984643 0.158487 0.294349 0.131320
H41   H     H_    0.028940 0.127060 0.179558 0.123481
H42   H     H_    0.961893 0.163136 0.991502 0.104109
H43   H     H_    0.021302 0.194947 0.976563 0.141474
H44   H     H_    0.978271 0.840022 0.789322 0.131167
H45   H     H_    0.042189 0.816391 0.766065 0.129347
H46   H     H_    0.213416 0.563936 0.627593 0.125559
H47   H     H_    0.021664 0.873210 0.675840 0.123913
H48   H     H_    0.017884 0.804855 0.474202 0.141767
H49   H     H_    0.957114 0.834604 0.485595 0.104706
H50   H     H_    0.547507 0.684753 0.268227 0.128576
H51   H     H_    0.484886 0.658597 0.294721 0.131228
H52   H     H_    0.529153 0.627124 0.179888 0.123422
H53   H     H_    0.462018 0.663057 0.991806 0.104035
H54   H     H_    0.521369 0.694924 0.976475 0.141394
H55   H     H_    0.478241 0.340036 0.789138 0.131145
H56   H     H_    0.542168 0.316430 0.765827 0.129350
H57   H     H_    0.713343 0.936114 0.127505 0.125476
H58   H     H_    0.521598 0.373225 0.675511 0.123915
H59   H     H_    0.517832 0.304836 0.473996 0.141787
H60   H     H_    0.457052 0.334566 0.485406 0.104700
H61   H     H_    0.713398 0.063941 0.627504 0.125564
H62   H     H_    0.865524 0.528083 0.849046 0.008837
H63   H     H_    0.866213 0.472407 0.348694 0.009784
H64   H     H_    0.365534 0.028086 0.849068 0.008836
H65   H     H_    0.041016 0.685831 0.196670 0.096696
H66   H     H_    0.366270 0.972435 0.348708 0.009853
H67   H     H_    0.881203 0.548716 0.054893 0.061348
H68   H     H_    0.880385 0.450917 0.554033 0.060018
H69   H     H_    0.381199 0.048717 0.054922 0.061358
H70   H     H_    0.380354 0.950904 0.554067 0.060024
H71   H     H_    0.772550 0.545211 0.866397 0.119871
H72   H     H_    0.772836 0.455760 0.358637 0.122494
H73   H     H_    0.272559 0.045215 0.866343 0.119874
H74   H     H_    0.272861 0.955793 0.358220 0.122534
H75   H     H_    0.810916 0.598773 0.913128 0.061083
H76   H     H_    0.541184 0.814470 0.696736 0.096819
H77   H     H_    0.810367 0.401814 0.406444 0.065657
H78   H     H_    0.310921 0.098776 0.913151 0.061088
H79   H     H_    0.310345 0.901834 0.406118 0.065695
H80   H     H_    0.787559 0.564469 0.073062 0.124197
H81   H     H_    0.786049 0.435872 0.565107 0.124509
H82   H     H_    0.287546 0.064460 0.073029 0.124195
H83   H     H_    0.285973 0.935875 0.564700 0.124500
H84   H     H_    0.017389 0.306967 0.486876 -0.100420
H85   H     H_    0.017133 0.693405 0.986877 -0.100469
H86   H     H_    0.517371 0.806961 0.486853 -0.100432
H87   H     H_    0.541036 0.185848 0.196516 0.096601
H88   H     H_    0.517102 0.193416 0.986767 -0.100582
H89   H     H_    0.078995 0.242939 0.566913 0.065262
H90   H     H_    0.078351 0.757650 0.066394 0.064511
H91   H     H_    0.578994 0.742944 0.566878 0.065260
H92   H     H_    0.578298 0.257678 0.066053 0.064477
H93   H     H_    0.044703 0.226383 0.734388 0.127695
H94   H     H_    0.044527 0.773794 0.235164 0.127004
H95   H     H_    0.544728 0.726402 0.734407 0.127698
H96   H     H_    0.544552 0.273807 0.235000 0.126938
H97   H     H_    0.935053 0.229410 0.178351 0.045923
H98   H     H_    0.224993 0.454867 0.335586 0.122319
H99   H     H_    0.931850 0.767643 0.672351 0.046202
H100  H     H_    0.435079 0.729360 0.178201 0.045869
H101  H     H_    0.431840 0.267629 0.672338 0.046171
H102  H     H_    0.178466 0.636324 0.202388 0.082926
H103  H     H_    0.178162 0.363639 0.703003 0.082845
H104  H     H_    0.678462 0.136325 0.202390 0.082923
H105  H     H_    0.678161 0.863638 0.703005 0.082853
H106  H     H_    0.266107 0.663802 0.108585 0.065537
H107  H     H_    0.265007 0.336244 0.621336 0.065270
H108  H     H_    0.766102 0.163805 0.108603 0.065536
H109  H     H_    0.224885 0.545383 0.835927 0.122240
H110  H     H_    0.765002 0.836241 0.621344 0.065271
H111  H     H_    0.823270 0.363293 0.981820 0.081028
H112  H     H_    0.824319 0.636812 0.480495 0.089475
H113  H     H_    0.323278 0.863287 0.981814 0.081038
H114  H     H_    0.324321 0.136813 0.480499 0.089473
H115  H     H_    0.159510 0.781176 0.999076 0.059477
H116  H     H_    0.160281 0.218887 0.488377 0.059916
H117  H     H_    0.659499 0.281177 0.999094 0.059483
H118  H     H_    0.660277 0.718884 0.488377 0.059908
H119  H     H_    0.143973 0.718266 0.763975 0.070417
H120  H     H_    0.724982 0.954860 0.335624 0.122312
H121  H     H_    0.144093 0.282061 0.263428 0.070908
H122  H     H_    0.643968 0.218269 0.763982 0.070407
H123  H     H_    0.644087 0.782057 0.263439 0.070914
H124  H     H_    0.850964 0.285577 0.430938 0.077041
H125  H     H_    0.850896 0.714350 0.930245 0.077298
H126  H     H_    0.350968 0.785575 0.430940 0.077031
H127  H     H_    0.350901 0.214354 0.930243 0.077285
H128  H     H_    0.055356 0.591381 0.849097 0.064214
H129  H     H_    0.055409 0.408698 0.349018 0.064167
H130  H     H_    0.555357 0.091379 0.849089 0.064215
H131  H     H_    0.724894 0.045390 0.835832 0.122230
H132  H     H_    0.555407 0.908697 0.349023 0.064169
H133  H     H_    0.015063 0.216634 0.531182 0.109455
H134  H     H_    0.014357 0.783767 0.032613 0.109961
H135  H     H_    0.515068 0.716632 0.531248 0.109444
H136  H     H_    0.514297 0.283782 0.032559 0.109983
H137  H     H_    0.944017 0.409137 0.341163 0.063512
H138  H     H_    0.943856 0.590735 0.841653 0.063417
H139  H     H_    0.444018 0.909137 0.341169 0.063523
H140  H     H_    0.443858 0.090736 0.841655 0.063412
H141  H     H_    0.975297 0.308273 0.176023 -0.023486
H142  H     H_    0.187220 0.401347 0.281559 0.067429
H143  H     H_    0.975045 0.690393 0.675043 -0.023589
H144  H     H_    0.475231 0.808264 0.175687 -0.023339
H145  H     H_    0.475067 0.190397 0.675128 -0.023654
H146  H     H_    0.023990 0.265285 0.256840 -0.018971
H147  H     H_    0.022080 0.734930 0.755600 -0.017728
H148  H     H_    0.523944 0.765339 0.256836 -0.019067
H149  H     H_    0.522087 0.234961 0.755539 -0.017685
H150  H     H_    0.939465 0.247670 0.975195 0.123864
H151  H     H_    0.938005 0.749336 0.470313 0.126774
H152  H     H_    0.439521 0.747586 0.975010 0.123848
O1    O     O_2   0.898940 0.431940 0.867860 -0.457326
O2    O     O_3   0.030942 0.710807 0.527286 -0.590530
O3    O     O_3   0.531209 0.789179 0.027015 -0.590095
O4    O     O_3   0.530935 0.210805 0.527267 -0.590485
O5    O     O_3   0.058810 0.523750 0.066650 -0.495503
O6    O     O_3   0.058810 0.476250 0.566650 -0.495619
O7    O     O_3   0.558810 0.023750 0.066650 -0.495507
O8    O     O_3   0.558810 0.976250 0.566650 -0.495618
O9    O     O_3   0.941140 0.476130 0.123050 -0.495727
O10   O     O_3   0.941140 0.523870 0.623050 -0.495114
O11   O     O_3   0.441140 0.976130 0.123050 -0.495737
O12   O     O_2   0.898940 0.568060 0.367860 -0.458455
O13   O     O_3   0.441140 0.023870 0.623050 -0.495109
O14   O     O_3   0.982430 0.389880 0.635700 -0.488875
O15   O     O_3   0.982430 0.610120 0.135700 -0.488855
O16   O     O_3   0.482430 0.889880 0.635700 -0.488875
O17   O     O_3   0.482430 0.110120 0.135700 -0.488820
O18   O     O_2   0.897737 0.350073 0.735067 -0.474479
O19   O     O_2   0.897547 0.649725 0.234669 -0.476335
O20   O     O_2   0.397738 0.850074 0.735075 -0.474482
O21   O     O_2   0.397549 0.149726 0.234672 -0.476344
O22   O     O_3   0.839008 0.484981 0.022288 -0.639834
O23   O     O_2   0.398940 0.931940 0.867860 -0.457309
O24   O     O_3   0.838977 0.514989 0.522177 -0.637995
O25   O     O_3   0.339008 0.984981 0.022284 -0.639836
O26   O     O_3   0.338978 0.014988 0.522180 -0.637992
O27   O     O_3   0.966157 0.288582 0.652062 -0.592678
O28   O     O_3   0.965901 0.711412 0.152408 -0.593351
O29   O     O_3   0.466165 0.788586 0.652093 -0.592695
O30   O     O_3   0.465909 0.211410 0.152432 -0.593315
O31   O     O_2   0.100770 0.431440 0.821660 -0.458390
O32   O     O_2   0.100770 0.568560 0.321660 -0.458644
O33   O     O_2   0.600770 0.931440 0.821660 -0.458383
O34   O     O_2   0.398940 0.068060 0.367860 -0.458475
O35   O     O_2   0.600770 0.068560 0.321660 -0.458634
O36   O     O_3   0.017130 0.389790 0.053700 -0.467544
O37   O     O_3   0.017130 0.610210 0.553700 -0.467837
O38   O     O_3   0.517130 0.889790 0.053700 -0.467579
O39   O     O_3   0.517130 0.110210 0.553700 -0.467819
O40   O     O_2   0.102035 0.350308 0.958512 -0.487230
O41   O     O_2   0.101928 0.649899 0.458368 -0.486920
O42   O     O_2   0.602049 0.850321 0.958557 -0.487204
O43   O     O_2   0.601926 0.149900 0.458359 -0.486897
O44   O     O_3   0.160567 0.484786 0.669232 -0.635423
O45   O     O_3   0.160559 0.515269 0.169135 -0.635494
O46   O     O_3   0.660567 0.984786 0.669227 -0.635420
O47   O     O_3   0.660559 0.015269 0.169139 -0.635496
O48   O     O_3   0.031189 0.289182 0.027061 -0.590114
P1    P     P_3+3 0.893960 0.447890 0.040050 0.985303
P2    P     P_3+3 0.063052 0.656704 0.583668 0.951718
P3    P     P_3+3 0.563116 0.843397 0.083625 0.951941
P4    P     P_3+3 0.563050 0.156705 0.583662 0.951778
P5    P     P_3+3 0.935462 0.655800 0.106147 0.958811
P6    P     P_3+3 0.935560 0.344119 0.606228 0.960387
P7    P     P_3+3 0.435465 0.155802 0.106151 0.958852
P8    P     P_3+3 0.435562 0.844118 0.606238 0.960373
P9    P     P_3+3 0.893960 0.552110 0.540050 0.986114
P10   P     P_3+3 0.393960 0.947890 0.040050 0.985296
P11   P     P_3+3 0.393960 0.052110 0.540050 0.986105
P12   P     P_3+3 0.105800 0.447360 0.649510 0.982524
P13   P     P_3+3 0.105800 0.552640 0.149510 0.982704
P14   P     P_3+3 0.605800 0.947360 0.649510 0.982527
P15   P     P_3+3 0.605800 0.052640 0.149510 0.982710
P16   P     P_3+3 0.063113 0.343396 0.083622 0.951959

loop_
_geom_bond_atom_site_label_1
_geom_bond_atom_site_label_2
_ccdc_geom_bond_type
O41   P2    D    
C109  O22   S    
C83   C87   A    
O44   P12   S    
C15   C16   S    
C3    H88   S    
C98   H100  S    
C86   C91   A    
O23   P10   D    
C71   C89   A    
C115  H72   S    
Ba2   O12   S    
O18   P6    D    
O38   P3    S    
C84   H103  S    
C41   H15   S    
Ba4   O7    S    
C56   C58   A    
C85   C90   A    
C20   H47   S    
C104  H7    S    
C72   C90   A    
C102  H9    S    
C1    H93   S    
C3    O30   S    
C74   C92   A    
C10   H27   S    
C32   H126  S    
C86   H105  S    
C115  H81   S    
O10   P9    S    
C102  O44   S    
O39   P4    S    
C54   C57   A    
Ba2   P9    S    
C16   H34   S    
C17   C18   S    
C6    C37   A    
C33   H94   S    
C14   H28   S    
C3    C55   S    
Ba1   O10   S    
Ba2   O5    S    
C41   C43   A    
O48   P16   S    
Ba3   O38   S    
Ba2   O6    S    
C82   C86   A    
Ba1   P12   S    
C21   H54   S    
O13   P11   S    
C108  H131  S    
Ba3   P10   S    
C104  O46   S    
C17   H42   S    
C73   H123  S    
C15   H38   S    
Ba1   O1    S    
O3    P3    S    
C1    H89   S    
C12   H31   S    
C116  H73   S    
O29   P8    S    
C9    H18   S    
C82   C95   A    
Ba3   O23   S    
O14   P6    S    
C63   H148  S    
C29   C69   S    
C24   C29   A    
C55   H136  S    
C33   H90   S    
C11   H25   S    
C26   C65   S    
C36   P5    S    
C107  H13   S    
C2    H112  S    
C75   C93   A    
C114  H80   S    
C80   C84   A    
C43   C48   A    
C64   O4    S    
C29   C34   A    
C103  O47   S    
C31   C36   A    
O30   P7    S    
Ba1   O5    S    
C19   C97   S    
C73   C78   A    
C45   C49   A    
O7    P15   S    
C47   C51   A    
C23   H59   S    
O20   P8    D    
C25   H55   S    
C13   C28   A    
C48   C87   S    
C71   C75   A    
C62   H143  S    
C44   H95   S    
C23   C25   S    
C116  H78   S    
Ba3   P14   S    
C8    H20   S    
C28   C32   A    
C103  H10   S    
Ba4   O35   S    
O26   P11   S    
C21   C98   S    
C88   P10   S    
C10   C58   S    
C23   C100  S    
C111  H63   S    
O16   P8    S    
C33   C119  S    
C64   H149  S    
C108  H24   S    
C113  O26   S    
O42   P3    D    
C19   C20   S    
C46   H108  S    
C14   H30   S    
C106  H109  S    
C24   H114  S    
C27   C67   S    
O17   P7    S    
C44   H91   S    
C39   C65   A    
C2    C77   A    
C62   C97   S    
Ba4   P15   S    
Ba3   O16   S    
O9    P1    S    
Ba4   O11   S    
C25   H58   S    
C26   C30   A    
C30   C35   A    
Ba4   O17   S    
C117  H79   S    
C104  H11   S    
C108  H61   S    
C21   C22   S    
C1    C118  S    
O22   P1    S    
C112  C116  S    
C96   H150  S    
C8    H21   S    
C95   H132  S    
O46   P14   S    
C18   H40   S    
C22   H52   S    
C83   H102  S    
C5    H138  S    
C1    H133  S    
C7    H140  S    
C61   H146  S    
C38   P7    S    
C106  H2    S    
Ba2   O9    S    
Ba3   O8    S    
Ba1   O36   S    
C111  C115  S    
C16   H36   S    
C85   H104  S    
C63   O3    S    
Ba3   Ba4   S    
C105  H35   S    
C93   H129  S    
O34   P11   D    
C101  C105  S    
O15   P5    S    
C40   H14   S    
C74   P2    S    
C103  C107  S    
C101  O45   S    
C72   C76   A    
O27   P6    S    
C11   H22   S    
C3    H87   S    
C39   C46   A    
C110  H111  S    
C56   H118  S    
C118  H1    S    
C119  O28   S    
C64   H145  S    
C63   H144  S    
O40   P16   D    
C120  H86   S    
C79   C92   A    
Ba4   O8    S    
C99   P11   S    
C58   C67   A    
C39   H12   S    
C117  H74   S    
C8    C9    S    
Ba4   P11   S    
Ba3   O13   S    
C10   C11   S    
C4    H137  S    
O35   P15   D    
C42   C69   A    
C79   C83   A    
C78   C95   A    
C61   H141  S    
C100  H101  S    
C28   C68   S    
C43   H106  S    
Ba1   O31   S    
C42   C45   A    
C46   C50   A    
Ba2   O32   S    
C53   C60   A    
C80   C93   A    
C81   P15   S    
O24   P9    S    
C55   H96   S    
C102  C106  S    
C21   H53   S    
C22   H50   S    
C107  H57   S    
C6    H139  S    
C7    C38   A    
C15   H37   S    
O31   P12   D    
C62   H147  S    
Ba4   O34   S    
C12   H32   S    
O25   P10   S    
C12   C59   S    
C9    H17   S    
C66   P1    S    
C2    C27   A    
C6    C88   A    
C51   C56   A    
O5    P13   S    
C32   C37   A    
C79   P13   S    
C103  H6    S    
Ba4   O39   S    
C101  H8    S    
C118  O27   S    
C76   P4    S    
C33   H134  S    
C81   C85   A    
C55   H92   S    
Ba2   P13   S    
C5    C36   A    
O6    P12   S    
C104  C108  S    
O1    P1    D    
C111  O24   S    
C70   C87   A    
O19   P5    D    
C15   C60   S    
C10   H26   S    
Ba2   O37   S    
C70   H119  S    
C106  H46   S    
C16   H33   S    
C27   C31   A    
C117  H83   S    
C42   H16   S    
C26   C110  A    
C35   P6    S    
C49   C53   A    
C76   C94   A    
C4    C66   A    
C64   C100  S    
C61   C96   S    
C19   H49   S    
C120  H76   S    
C17   H43   S    
C11   H23   S    
C8    C57   S    
C24   C99   A    
C100  H3    S    
C112  O25   S    
Ba1   O14   S    
C9    H19   S    
C59   C68   A    
C77   P9    S    
C70   C74   A    
O33   P14   D    
O2    P2    S    
C105  H98   S    
C102  H5    S    
C44   H135  S    
O47   P15   S    
C107  H120  S    
C52   H115  S    
C115  H77   S    
C61   O48   S    
C66   C110  A    
C112  H64   S    
C47   H110  S    
C20   H44   S    
C34   C38   A    
Ba1   O6    S    
C31   H125  S    
C40   C67   A    
Ba1   Ba2   S    
C113  C117  S    
C23   H60   S    
C113  H70   S    
O12   P9    D    
C18   H41   S    
C19   H48   S    
C25   H56   S    
C81   C94   A    
C4    C35   A    
O37   P2    S    
C119  H65   S    
C71   H121  S    
C97   H99   S    
Ba3   O7    S    
C37   P8    S    
Ba3   O33   S    
C120  O29   S    
C13   C88   A    
C114  H75   S    
O36   P16   S    
C109  H67   S    
O8    P14   S    
C118  H84   S    
C51   C91   S    
C17   C96   S    
C73   C91   A    
C82   P14   S    
Ba2   O15   S    
C45   H107  S    
C54   H117  S    
C114  H71   S    
O21   P7    D    
O45   P13   S    
C34   H127  S    
C60   C69   A    
C52   C59   A    
C78   P3    S    
C20   H45   S    
C14   H29   S    
C112  H69   S    
C40   C47   A    
C30   H124  S    
C75   P16   S    
C111  H68   S    
C94   H130  S    
O4    P4    S    
O11   P10   S    
C50   C54   A    
C57   C65   A    
C84   C89   A    
C101  H4    S    
O28   P5    S    
C72   H122  S    
C105  H142  S    
C44   C120  S    
C80   P12   S    
C116  H82   S    
C96   H97   S    
C18   H39   S    
C22   H51   S    
C109  H62   S    
C119  H85   S    
C62   O2    S    
O32   P13   D    
C50   C90   S    
C53   H116  S    
C113  H66   S    
C109  C114  S    
O43   P4    D    
C12   C14   S    
C92   H128  S    
C97   H151  S    
C7    C99   A    
C98   H152  S    
C49   C89   S    
Ba1   P1    S    
C48   C52   A    
C63   C98   S    
C5    C77   A    
C41   C68   A    
C13   H113  S    
