data_mof_unit_29494.cif
_audit_creation_date              2012-12-10T16:52:41-0500
_audit_creation_method            fapswitch 2.2
_symmetry_space_group_name_H-M    P1
_symmetry_Int_Tables_number       1
_space_group_crystal_system       triclinic
_cell_length_a                    13.004416
_cell_length_b                    10.935999
_cell_length_c                    9.673339
_cell_angle_alpha                 88.880142
_cell_angle_beta                  96.7029
_cell_angle_gamma                 90.21826
_cell_volume                      1366.04040171

loop_
_atom_site_label
_atom_site_type_symbol
_atom_type_description
_atom_site_fract_x
_atom_site_fract_y
_atom_site_fract_z
_atom_type_partial_charge
C1    C     C_R   0.495209 0.265665 0.500848 0.870778
C2    C     C_R   0.029813 0.510982 0.570962 -0.024144
C3    C     C_R   0.971847 0.506799 0.438340 0.100448
C4    C     C_R   0.864755 0.504268 0.427800 -0.254115
C5    C     C_R   0.872612 0.482915 0.680915 0.336336
C6    C     C_R   0.979092 0.511685 0.692513 0.344123
C7    C     C_2   0.457505 0.937043 0.401891 0.291379
C8    C     C_2   0.518293 0.865094 0.494121 0.074548
C9    C     C_2   0.475635 0.068212 0.391409 -0.115769
C10   C     C_2   0.479123 0.135143 0.505176 -0.251917
C11   C     C_2   0.439985 0.429685 0.914207 0.006656
C12   C     C_R   0.300401 0.501250 0.473512 0.832179
C13   C     C_2   0.436729 0.433756 0.069421 -0.002599
C14   C     C_R   0.501460 0.734515 0.498482 0.858774
C15   C     C_R   0.699885 0.494977 0.527496 0.903866
C16   C     C_R   0.813826 0.492129 0.547101 -0.216062
C17   C     C_R   0.187459 0.505438 0.458518 -0.071903
C18   C     C_R   0.021668 0.506074 0.317364 -0.119738
C19   C     C_R   0.129215 0.505768 0.327305 -0.111013
C20   C     C_R   0.137543 0.508616 0.578901 -0.113741
Cu1   Cu    Cu3+1 0.500020 0.500020 0.638640 1.063206
Cu2   Cu    Cu3+1 0.499980 0.499980 0.361360 1.043366
H1    H     H_    0.821131 0.508044 0.325159 0.198530
H2    H     H_    0.466890 0.092795 0.604460 0.191109
H3    H     H_    0.388656 0.365657 0.856046 0.156875
H4    H     H_    0.544257 0.563403 0.899588 0.226590
H5    H     H_    0.379355 0.377326 0.113179 0.162742
H6    H     H_    0.556182 0.548421 0.113654 0.218529
H7    H     H_    0.977369 0.503417 0.215468 0.185922
H8    H     H_    0.166519 0.503997 0.232938 0.200230
H9    H     H_    0.183476 0.503781 0.679323 0.212621
H10   H     H_    0.479290 0.110041 0.289292 0.193998
N1    N     N_2   0.498860 0.498660 0.846770 -0.259775
N2    N     N_2   0.498840 0.498630 0.152900 -0.270375
O1    O     O_R   0.500020 0.321960 0.617050 -0.559810
O2    O     O_R   0.499980 0.321920 0.382890 -0.590345
O3    O     O_R   0.349010 0.500000 0.598060 -0.595397
O4    O     O_R   0.348980 0.499950 0.363910 -0.566679
O5    O     O_R   0.500020 0.678080 0.617110 -0.573735
O6    O     O_R   0.499980 0.678040 0.382950 -0.532812
O7    O     O_R   0.651020 0.500050 0.636090 -0.519870
O8    O     O_R   0.650990 0.500000 0.401940 -0.591672
S1    S     S_3+6 0.819891 0.414330 0.826617 0.082469
O9    O     O_2   0.762838 0.509447 0.897871 -0.282459
O10   O     O_2   0.746239 0.313464 0.778083 -0.242454
O11   O     O_3   0.913445 0.352910 0.941493 -0.450935
H11   H     H_    0.879044 0.332303 0.025093 0.372128
S2    S     S_3+6 0.045318 0.564041 0.852885 0.049764
O12   O     O_2   0.107991 0.461304 0.925213 -0.284627
O13   O     O_2   0.116930 0.667243 0.823549 -0.273101
O14   O     O_3   0.961512 0.616071 0.957788 -0.465782
H12   H     H_    0.004500 0.662262 0.030430 0.372808
S3    S     S_3+6 0.347811 0.881634 0.294168 0.026401
O15   O     O_2   0.383076 0.815280 0.173514 -0.247838
O16   O     O_2   0.286311 0.795911 0.376122 -0.303770
O17   O     O_3   0.272398 0.999871 0.232821 -0.511842
H13   H     H_    0.213570 0.962254 0.174095 0.395459
S4    S     S_3+6 0.634982 0.915454 0.592164 0.041916
O18   O     O_2   0.686629 0.013969 0.514318 -0.220151
O19   O     O_2   0.611471 0.964362 0.729209 -0.264921
O20   O     O_3   0.717711 0.797291 0.622615 -0.500164
H14   H     H_    0.700449 0.757716 0.709985 0.375766

loop_
_geom_bond_atom_site_label_1
_geom_bond_atom_site_label_2
_ccdc_geom_bond_type
C12   C17   S    
C4    C16   A    
S1    O9    D    
Cu1   O1    S    
C11   C13   S    
C9    C10   D    
H4    N1    S    
Cu2   O2    S    
Cu1   O5    S    
Cu2   O6    S    
S4    O20   S    
S2    O13   D    
C2    C3    A    
C5    S1    S    
H6    N2    S    
C7    C8    D    
C18   H7    S    
C2    C6    A    
Cu1   Cu2   S    
S1    O10   D    
C15   O7    A    
O14   H12   S    
Cu2   O8    S    
C6    S2    S    
Cu1   O7    S    
C5    C6    A    
C15   O8    A    
S2    O12   D    
C17   C19   A    
C14   O6    A    
S3    O16   D    
C12   O4    A    
O20   H14   S    
Cu2   N2    S    
S1    O11   S    
S4    O18   D    
Cu1   N1    S    
C11   H3    S    
C2    C20   A    
C15   C16   S    
Cu2   O4    S    
C11   N1    D    
C17   C20   A    
Cu1   O3    S    
O17   H13   S    
C1    O1    A    
C3    C18   A    
C10   H2    S    
C18   C19   A    
C13   N2    D    
S3    O17   S    
C12   O3    A    
C7    C9    S    
C4    H1    S    
C7    S3    S    
O11   H11   S    
C13   H5    S    
C5    C16   A    
C8    C14   S    
C9    H10   S    
C8    S4    S    
C14   O5    A    
S3    O15   D    
C19   H8    S    
S4    O19   D    
S2    O14   S    
C1    C10   S    
C3    C4    A    
C1    O2    A    
C20   H9    S    
