data_mof_unit_40964.cif
_audit_creation_date              2012-12-11T17:07:57-0500
_audit_creation_method            fapswitch 2.2
_symmetry_space_group_name_H-M    P1
_symmetry_Int_Tables_number       1
_space_group_crystal_system       triclinic
_cell_length_a                    17.184317
_cell_length_b                    17.184314
_cell_length_c                    17.292256
_cell_angle_alpha                 89.99998
_cell_angle_beta                  90.0
_cell_angle_gamma                 90.000021
_cell_volume                      5106.41528761

loop_
_atom_site_label
_atom_site_type_symbol
_atom_type_description
_atom_site_fract_x
_atom_site_fract_y
_atom_site_fract_z
_atom_type_partial_charge
Br1   Br    Br    0.904986 0.259601 0.780803 -0.540117
Br2   Br    Br    0.240401 0.404985 0.280804 -0.540119
Br3   Br    Br    0.496345 0.165433 0.270630 -0.514451
Br4   Br    Br    0.759601 0.595014 0.280803 -0.540120
Br5   Br    Br    0.404986 0.240399 0.719197 -0.540122
Br6   Br    Br    0.165429 0.496347 0.729374 -0.514453
Br7   Br    Br    0.595009 0.759614 0.719203 -0.540131
Br8   Br    Br    0.834567 0.503655 0.729370 -0.514456
Br9   Br    Br    0.665443 0.003663 0.770644 -0.514443
Br10  Br    Br    0.095016 0.740402 0.780805 -0.540117
Br11  Br    Br    0.334568 0.996345 0.770630 -0.514449
Br12  Br    Br    0.003655 0.665432 0.229370 -0.514451
Br13  Br    Br    0.740399 0.095014 0.219197 -0.540120
Br14  Br    Br    0.996346 0.334569 0.229372 -0.514452
Br15  Br    Br    0.259604 0.904987 0.219198 -0.540122
Br16  Br    Br    0.503657 0.834565 0.270634 -0.514448
C1    C     C_R   0.394530 0.302310 0.897887 -0.081919
C2    C     C_R   0.197690 0.894530 0.397887 -0.081919
C3    C     C_R   0.775555 0.863550 0.198455 -0.098796
C4    C     C_R   0.136451 0.224445 0.801545 -0.098797
C5    C     C_R   0.317231 0.771922 0.651429 -0.135383
C6    C     C_R   0.863550 0.775552 0.801543 -0.098795
C7    C     C_R   0.682768 0.228077 0.651430 -0.135382
C8    C     C_R   0.636451 0.275554 0.698456 -0.098795
C9    C     C_R   0.817232 0.728075 0.848568 -0.135385
C10   C     C_R   0.363549 0.724445 0.698455 -0.098797
C11   C     C_R   0.182768 0.271922 0.848570 -0.135384
C12   C     C_R   0.728078 0.817232 0.151430 -0.135383
C13   C     C_R   0.075021 0.167988 0.355106 -0.119552
C14   C     C_R   0.724446 0.363549 0.301545 -0.098796
C15   C     C_R   0.271922 0.182768 0.151430 -0.135383
C16   C     C_R   0.275554 0.636450 0.301544 -0.098796
C17   C     C_R   0.802309 0.105470 0.397887 -0.081919
C18   C     C_R   0.894530 0.197690 0.602113 -0.081920
C19   C     C_R   0.167988 0.075021 0.644894 -0.119551
C20   C     C_R   0.105470 0.802310 0.602113 -0.081920
C21   C     C_R   0.832012 0.924979 0.644894 -0.119548
C22   C     C_3   0.863132 0.339242 0.711825 0.073675
C23   C     C_3   0.686948 0.895873 0.743601 0.063237
C24   C     C_3   0.136867 0.660760 0.711827 0.073673
C25   C     C_R   0.667988 0.424979 0.855106 -0.119553
C26   C     C_3   0.313055 0.104134 0.743592 0.063233
C27   C     C_3   0.895866 0.686945 0.256408 0.063235
C28   C     C_3   0.660758 0.136868 0.288175 0.073674
C29   C     C_3   0.104135 0.313055 0.256409 0.063234
C30   C     C_3   0.339244 0.863132 0.288177 0.073674
C31   C     C_3   0.395868 0.813054 0.243594 0.063235
C32   C     C_3   0.160760 0.363132 0.211826 0.073673
C33   C     C_3   0.604134 0.186945 0.243592 0.063235
C34   C     C_3   0.839242 0.636868 0.211825 0.073674
C35   C     C_3   0.363132 0.160758 0.788175 0.073673
C36   C     C_R   0.605470 0.697690 0.897887 -0.081916
C37   C     C_3   0.186944 0.604136 0.756410 0.063234
C38   C     C_3   0.636870 0.839249 0.788183 0.073673
C39   C     C_3   0.813055 0.395866 0.756408 0.063235
C40   C     C_R   0.420487 0.670211 0.855320 -0.064627
C41   C     C_R   0.302646 0.392935 0.896379 -0.117873
C42   C     C_R   0.579513 0.329789 0.855320 -0.064622
C43   C     C_R   0.697354 0.607065 0.896379 -0.117877
C44   C     C_R   0.392935 0.302646 0.103621 -0.117871
C45   C     C_R   0.329789 0.579513 0.144680 -0.064624
C46   C     C_R   0.607065 0.697354 0.103621 -0.117871
C47   C     C_R   0.332012 0.575021 0.855106 -0.119552
C48   C     C_R   0.670211 0.420487 0.144680 -0.064624
C49   C     C_R   0.892935 0.197354 0.396379 -0.117872
C50   C     C_R   0.829789 0.920487 0.355320 -0.064624
C51   C     C_R   0.107065 0.802646 0.396379 -0.117873
C52   C     C_R   0.170210 0.079513 0.355320 -0.064625
C53   C     C_R   0.920487 0.829789 0.644680 -0.064625
C54   C     C_R   0.802646 0.107065 0.603621 -0.117870
C55   C     C_R   0.079513 0.170210 0.644680 -0.064625
C56   C     C_R   0.197354 0.892935 0.603621 -0.117870
C57   C     C_R   0.317804 0.315774 0.879698 0.120065
C58   C     C_R   0.424979 0.667988 0.144894 -0.119550
C59   C     C_R   0.638132 0.364824 0.811574 0.066248
C60   C     C_R   0.682196 0.684226 0.879698 0.120064
C61   C     C_R   0.361867 0.635176 0.811574 0.066248
C62   C     C_R   0.364824 0.638132 0.188426 0.066248
C63   C     C_R   0.684226 0.682196 0.120302 0.120064
C64   C     C_R   0.635176 0.361868 0.188426 0.066248
C65   C     C_R   0.315774 0.317804 0.120302 0.120065
C66   C     C_R   0.864824 0.861868 0.311574 0.066248
C67   C     C_R   0.184226 0.817804 0.379698 0.120065
C68   C     C_R   0.135176 0.138132 0.311574 0.066248
C69   C     C_R   0.697690 0.605470 0.102113 -0.081919
C70   C     C_R   0.815774 0.182196 0.379698 0.120064
C71   C     C_R   0.817804 0.184226 0.620302 0.120067
C72   C     C_R   0.138132 0.135176 0.688426 0.066248
C73   C     C_R   0.182196 0.815774 0.620301 0.120065
C74   C     C_R   0.861868 0.864824 0.688426 0.066250
C75   C     C_R   0.743688 0.364793 0.713075 0.091081
C76   C     C_R   0.709860 0.815702 0.829539 -0.010948
C77   C     C_R   0.256311 0.635207 0.713076 0.091081
C78   C     C_R   0.290143 0.184300 0.829534 -0.010945
C79   C     C_R   0.815700 0.709857 0.170465 -0.010946
C80   C     C_R   0.575021 0.332012 0.144894 -0.119551
C81   C     C_R   0.635206 0.256312 0.286925 0.091082
C82   C     C_R   0.184300 0.290143 0.170466 -0.010945
C83   C     C_R   0.364794 0.743687 0.286926 0.091082
C84   C     C_R   0.315701 0.790142 0.329536 -0.010947
C85   C     C_R   0.135207 0.243688 0.213076 0.091081
C86   C     C_R   0.684300 0.209857 0.329535 -0.010946
C87   C     C_R   0.864794 0.756312 0.213075 0.091081
C88   C     C_R   0.243688 0.135206 0.786925 0.091082
C89   C     C_R   0.209856 0.684300 0.670466 -0.010944
C90   C     C_R   0.756316 0.864795 0.786929 0.091084
C91   C     C_R   0.302309 0.394530 0.102112 -0.081920
C92   C     C_R   0.790143 0.315700 0.670465 -0.010947
C93   C     C_R   0.670108 0.338972 0.737668 0.039704
C94   C     C_R   0.737171 0.743725 0.855428 0.061030
C95   C     C_R   0.329892 0.661028 0.737668 0.039702
C96   C     C_R   0.262830 0.256274 0.855427 0.061031
C97   C     C_R   0.743726 0.737170 0.144573 0.061031
C98   C     C_R   0.661028 0.329892 0.262332 0.039703
C99   C     C_R   0.256274 0.262830 0.144573 0.061031
C100  C     C_R   0.338972 0.670107 0.262332 0.039704
C101  C     C_R   0.243725 0.762830 0.355427 0.061031
C102  C     C_R   0.924979 0.832012 0.355106 -0.119552
C103  C     C_R   0.161028 0.170108 0.237668 0.039703
C104  C     C_R   0.756274 0.237170 0.355427 0.061031
C105  C     C_R   0.838972 0.829892 0.237668 0.039704
C106  C     C_R   0.170108 0.161028 0.762332 0.039703
C107  C     C_R   0.237170 0.756274 0.644573 0.061031
C108  C     C_R   0.829894 0.838972 0.762333 0.039705
C109  C     C_R   0.762830 0.243725 0.644573 0.061032
C110  C     C_R   0.228077 0.682768 0.348569 -0.135384
C111  C     C_R   0.224445 0.136451 0.198455 -0.098796
C112  C     C_R   0.771922 0.317232 0.348570 -0.135384
H1    H     H_    0.422314 0.246391 0.904976 0.095434
H2    H     H_    0.253609 0.922314 0.404976 0.095434
H3    H     H_    0.032709 0.210426 0.337897 0.146410
H4    H     H_    0.746391 0.077686 0.404976 0.095433
H5    H     H_    0.922314 0.253609 0.595024 0.095433
H6    H     H_    0.210425 0.032708 0.662103 0.146410
H7    H     H_    0.077686 0.746391 0.595024 0.095432
H8    H     H_    0.789575 0.967292 0.662103 0.146405
H9    H     H_    0.906559 0.367366 0.673285 0.156374
H10   H     H_    0.687683 0.884124 0.680435 0.153293
H11   H     H_    0.093439 0.632636 0.673288 0.156374
H12   H     H_    0.710426 0.467291 0.837897 0.146409
H13   H     H_    0.312316 0.115886 0.680427 0.153296
H14   H     H_    0.884114 0.687684 0.319573 0.153296
H15   H     H_    0.632634 0.093440 0.326715 0.156374
H16   H     H_    0.115888 0.312316 0.319574 0.153296
H17   H     H_    0.367368 0.906558 0.326718 0.156375
H18   H     H_    0.384116 0.812316 0.180429 0.153295
H19   H     H_    0.132635 0.406560 0.173287 0.156375
H20   H     H_    0.615886 0.187684 0.180427 0.153296
H21   H     H_    0.867366 0.593440 0.173285 0.156375
H22   H     H_    0.406560 0.132634 0.826715 0.156374
H23   H     H_    0.577687 0.753609 0.904976 0.095437
H24   H     H_    0.187684 0.615889 0.819575 0.153297
H25   H     H_    0.593446 0.867374 0.826727 0.156375
H26   H     H_    0.812316 0.384114 0.819573 0.153297
H27   H     H_    0.456737 0.718840 0.839098 0.130810
H28   H     H_    0.246054 0.420094 0.900218 0.115335
H29   H     H_    0.543263 0.281160 0.839098 0.130804
H30   H     H_    0.753946 0.579906 0.900219 0.115334
H31   H     H_    0.420094 0.246054 0.099781 0.115334
H32   H     H_    0.281160 0.543262 0.160902 0.130803
H33   H     H_    0.579906 0.753946 0.099781 0.115333
H34   H     H_    0.289574 0.532709 0.837898 0.146411
H35   H     H_    0.718840 0.456737 0.160902 0.130804
H36   H     H_    0.920094 0.253946 0.400219 0.115335
H37   H     H_    0.781160 0.956737 0.339098 0.130805
H38   H     H_    0.079906 0.746054 0.400219 0.115334
H39   H     H_    0.218840 0.043263 0.339098 0.130806
H40   H     H_    0.956738 0.781160 0.660902 0.130802
H41   H     H_    0.746054 0.079906 0.599782 0.115330
H42   H     H_    0.043263 0.218840 0.660902 0.130804
H43   H     H_    0.253946 0.920094 0.599781 0.115334
H44   H     H_    0.175205 0.657705 0.371583 0.150964
H45   H     H_    0.467291 0.710425 0.162103 0.146408
H46   H     H_    0.243264 0.077909 0.211342 0.179285
H47   H     H_    0.824794 0.342295 0.371585 0.150964
H48   H     H_    0.756736 0.922092 0.211342 0.179284
H49   H     H_    0.077909 0.243264 0.788657 0.179284
H50   H     H_    0.342295 0.824793 0.628414 0.150963
H51   H     H_    0.922091 0.756731 0.788654 0.179282
H52   H     H_    0.657705 0.175205 0.628416 0.150960
H53   H     H_    0.577909 0.256735 0.711343 0.179283
H54   H     H_    0.842295 0.675202 0.871581 0.150965
H55   H     H_    0.422091 0.743264 0.711342 0.179288
H56   H     H_    0.753609 0.577686 0.095024 0.095433
H57   H     H_    0.157705 0.324794 0.871585 0.150964
H58   H     H_    0.675206 0.842295 0.128415 0.150962
H59   H     H_    0.743265 0.422091 0.288657 0.179284
H60   H     H_    0.324793 0.157704 0.128415 0.150963
H61   H     H_    0.256734 0.577909 0.288656 0.179283
H62   H     H_    0.532709 0.289574 0.162103 0.146410
H63   H     H_    0.246391 0.422314 0.095024 0.095433
H64   H     H_    0.967291 0.789574 0.337897 0.146409
N1    N     N_R   0.425360 0.368540 0.922560 -0.048228
N2    N     N_R   0.131460 0.925360 0.422560 -0.048228
N3    N     N_R   0.074640 0.131460 0.422560 -0.046649
N4    N     N_R   0.868540 0.074640 0.422560 -0.048228
N5    N     N_R   0.925360 0.131460 0.577440 -0.048228
N6    N     N_R   0.131460 0.074640 0.577440 -0.046649
N7    N     N_R   0.074640 0.868540 0.577440 -0.048227
N8    N     N_R   0.868540 0.925360 0.577440 -0.046649
N9    N     N_R   0.425340 0.631500 0.922560 -0.048911
N10   N     N_R   0.368500 0.425340 0.922560 -0.049419
N11   N     N_R   0.574660 0.368500 0.922560 -0.048911
N12   N     N_R   0.631460 0.425360 0.922560 -0.046648
N13   N     N_R   0.631500 0.574660 0.922560 -0.049419
N14   N     N_R   0.425340 0.368500 0.077440 -0.049419
N15   N     N_R   0.368500 0.574660 0.077440 -0.048911
N16   N     N_R   0.574660 0.631500 0.077440 -0.049419
N17   N     N_R   0.631500 0.425340 0.077440 -0.048911
N18   N     N_R   0.925340 0.131500 0.422560 -0.049419
N19   N     N_R   0.868500 0.925340 0.422560 -0.048911
N20   N     N_R   0.074660 0.868500 0.422560 -0.049419
N21   N     N_R   0.131500 0.074660 0.422560 -0.048911
N22   N     N_R   0.925340 0.868500 0.577440 -0.048911
N23   N     N_R   0.574640 0.631460 0.922560 -0.048229
N24   N     N_R   0.868500 0.074660 0.577440 -0.049419
N25   N     N_R   0.074660 0.131500 0.577440 -0.048911
N26   N     N_R   0.131500 0.925340 0.577440 -0.049419
N27   N     N_R   0.368540 0.574640 0.922560 -0.046648
N28   N     N_R   0.425360 0.631460 0.077440 -0.046649
N29   N     N_R   0.631460 0.574640 0.077440 -0.048228
N30   N     N_R   0.574640 0.368540 0.077440 -0.046649
N31   N     N_R   0.368540 0.425360 0.077440 -0.048228
N32   N     N_R   0.925360 0.868540 0.422560 -0.046649
Ni1   Ni    Ni4+2 0.500000 0.369720 0.000000 0.233936
Ni2   Ni    Ni4+2 0.630280 0.500000 0.000000 0.233935
Ni3   Ni    Ni4+2 0.500000 0.630280 0.000000 0.233935
Ni4   Ni    Ni4+2 0.369720 0.500000 0.000000 0.233935
Ni5   Ni    Ni4+2 0.000000 0.869720 0.500000 0.233935
Ni6   Ni    Ni4+2 0.130280 0.000000 0.500000 0.233935
Ni7   Ni    Ni4+2 0.000000 0.130280 0.500000 0.233935
Ni8   Ni    Ni4+2 0.869720 0.000000 0.500000 0.233935

loop_
_geom_bond_atom_site_label_1
_geom_bond_atom_site_label_2
_ccdc_geom_bond_type
C28   C33   S    
C20   C73   A    
C39   H26   S    
C5    C10   A    
C65   C91   A    
C51   C67   A    
N20   Ni5   S    
C2    N2    A    
N2    Ni6   S    
C1    N1    A    
C34   H21   S    
C20   N7    A    
C15   C111  A    
N11   N12   A    
C76   C94   A    
C30   H17   S    
C38   H25   S    
Br3   C33   S    
C49   C70   A    
N15   N28   A    
C47   H34   S    
C21   C74   A    
C54   H41   S    
Br12  C27   S    
C28   H15   S    
N16   Ni3   S    
C14   C98   A    
C43   H30   S    
C34   C79   S    
C23   C38   S    
C88   C106  A    
C41   C57   A    
C24   H11   S    
Br9   C23   S    
C31   C83   S    
C89   C107  A    
Br11  C26   S    
Br10  C24   S    
C11   H57   S    
C21   N8    A    
C47   N27   A    
C61   C95   S    
C3    H48   S    
N26   Ni6   S    
C25   H12   S    
C39   C75   S    
C77   C89   A    
Br13  C28   S    
C102  H64   S    
C44   C65   A    
C22   C39   S    
N4    Ni8   S    
C35   H22   S    
C58   N28   A    
C6    C9    A    
C41   N10   A    
C16   H61   S    
C29   H16   S    
N8    N22   A    
C7    C8    A    
C44   H31   S    
C37   H24   S    
Br1   C22   S    
Br15  C30   S    
C92   C109  A    
C64   C80   A    
C101  C110  A    
N14   N31   A    
C66   C105  S    
C4    C106  A    
C81   C86   A    
C26   C35   S    
C7    C109  A    
N4    N18   A    
C10   H55   S    
C43   N13   A    
C111  H46   S    
C23   H10   S    
C78   C88   A    
C55   N25   A    
C1    C57   A    
N17   N30   A    
C48   C64   A    
N7    N26   A    
C80   H62   S    
C26   H13   S    
C40   H27   S    
C54   C71   A    
C19   H6    S    
C46   N16   A    
C79   C87   A    
C42   C59   A    
Br14  C29   S    
C91   N31   A    
N5    Ni7   S    
C41   H28   S    
C14   C112  A    
C24   C89   S    
C59   C93   S    
N3    N21   A    
N19   Ni8   S    
C53   N22   A    
C1    H1    S    
C27   C87   S    
C52   C68   A    
C56   H43   S    
C46   C63   A    
N13   Ni2   S    
C17   N4    A    
C13   C68   A    
C72   C106  S    
C63   C69   A    
C45   H32   S    
C83   C100  A    
C28   C86   S    
N31   Ni4   S    
N10   Ni4   S    
C40   N9    A    
C73   C107  S    
N30   Ni1   S    
Br2   C32   S    
N16   N29   A    
C13   N3    A    
C102  N32   A    
N29   Ni2   S    
C42   H29   S    
C36   N23   A    
C40   C61   A    
N28   Ni3   S    
Br4   C34   S    
C85   C103  A    
C15   H60   S    
C17   C70   A    
C81   C98   A    
C38   C76   S    
C3    C12   A    
C12   H58   S    
C18   C71   A    
C50   C66   A    
C19   C72   A    
C83   C84   A    
C45   C62   A    
N18   Ni7   S    
C65   C99   S    
N14   Ni1   S    
N6    Ni6   S    
C2    C67   A    
C49   N18   A    
C23   C90   S    
N3    Ni7   S    
C51   N20   A    
C16   C100  A    
C25   N12   A    
C52   N21   A    
N9    N27   A    
C7    H52   S    
N5    N24   A    
C29   C85   S    
C25   C59   A    
C45   N15   A    
Br8   C39   S    
C67   C101  S    
C9    C94   A    
C17   H4    S    
C76   C90   A    
C5    H50   S    
C77   C95   A    
C42   N11   A    
C69   H56   S    
C80   N30   A    
C63   C97   S    
N27   Ni4   S    
C48   N17   A    
C2    H2    S    
N6    N25   A    
N17   Ni2   S    
C66   C102  A    
Br6   C37   S    
N12   Ni2   S    
C53   C74   A    
C87   C105  A    
C20   H7    S    
C71   C109  S    
C86   C104  A    
C9    H54   S    
C51   H38   S    
C57   C96   S    
C47   C61   A    
C29   C32   S    
N9    Ni3   S    
C30   C84   S    
C30   C31   S    
C3    C105  A    
C112  H47   S    
C21   H8    S    
C50   H37   S    
C8    H53   S    
C74   C108  S    
C75   C92   A    
C62   C100  S    
C8    C93   A    
C64   C98   S    
C6    H51   S    
C36   C60   A    
N11   Ni1   S    
C26   C88   S    
C68   C103  S    
C11   C96   A    
C104  C112  A    
C27   C34   S    
C6    C108  A    
C4    H49   S    
C4    C11   A    
C82   C85   A    
C56   N26   A    
C18   H5    S    
N13   N23   A    
C54   N24   A    
C14   H59   S    
C75   C93   A    
Br16  C31   S    
N7    Ni5   S    
C53   H40   S    
N1    Ni1   S    
N32   Ni5   S    
N25   Ni7   S    
C56   C73   A    
C18   N5    A    
C44   N14   A    
C82   C99   A    
C13   H3    S    
C79   C97   A    
C36   H23   S    
N19   N32   A    
C10   C95   A    
C49   H36   S    
C78   C96   A    
N24   Ni8   S    
C22   H9    S    
C58   H45   S    
N23   Ni3   S    
C32   C82   S    
C15   C99   A    
C22   C92   S    
C55   H42   S    
C31   H18   S    
C33   C81   S    
C110  H44   S    
C12   C97   A    
N1    N10   A    
C35   C78   S    
N2    N20   A    
C55   C72   A    
C46   H33   S    
C52   H39   S    
N15   Ni4   S    
C33   H20   S    
C60   C94   S    
C24   C37   S    
C58   C62   A    
C91   H63   S    
Br5   C35   S    
C27   H14   S    
C70   C104  S    
C84   C101  A    
N8    Ni8   S    
Br7   C38   S    
C90   C108  A    
C50   N19   A    
C16   C110  A    
N22   Ni5   S    
C69   N29   A    
C43   C60   A    
C37   C77   S    
C5    C107  A    
N21   Ni6   S    
C19   N6    A    
C103  C111  A    
C32   H19   S    
C48   H35   S    
