data_mof_unit_47121.cif
_audit_creation_date              2012-10-26T21:20:08-0400
_audit_creation_method            fapswitch 2.2
_symmetry_space_group_name_H-M    P1
_symmetry_Int_Tables_number       1
_space_group_crystal_system       triclinic
_cell_length_a                    13.150713
_cell_length_b                    10.782001
_cell_length_c                    9.501891
_cell_angle_alpha                 90.188721
_cell_angle_beta                  94.06566
_cell_angle_gamma                 90.033196
_cell_volume                      1343.88440057

loop_
_atom_site_label
_atom_site_type_symbol
_atom_type_description
_atom_site_fract_x
_atom_site_fract_y
_atom_site_fract_z
_atom_type_partial_charge
C1    C     C_R   0.496399 0.262411 0.499642 0.599364
C2    C     C_R   0.699133 0.501758 0.522602 0.549767
C3    C     C_R   0.810658 0.510932 0.529004 0.011414
C4    C     C_R   0.190091 0.504633 0.466798 0.008939
C5    C     C_R   0.038022 0.440702 0.330367 -0.158612
C6    C     C_R   0.962882 0.568457 0.670762 -0.159986
C7    C     C_R   0.142321 0.448977 0.347079 -0.160330
C8    C     C_R   0.859005 0.549984 0.657065 -0.158333
C9    C     C_R   0.131538 0.551600 0.575574 -0.016243
C10   C     C_R   0.869543 0.487802 0.410742 -0.009484
C11   C     C_R   0.024237 0.536345 0.561056 0.044526
C12   C     C_R   0.503194 0.737558 0.500424 0.594990
C13   C     C_R   0.976942 0.487901 0.433400 0.045444
C14   C     C_R   0.578853 0.067683 0.446687 0.343669
C15   C     C_R   0.420961 0.932086 0.554936 0.344952
C16   C     C_R   0.584082 0.938561 0.446058 -0.051807
C17   C     C_R   0.415896 0.061301 0.555875 -0.052810
C18   C     C_3   0.822359 0.475933 0.258898 -0.254119
C19   C     C_3   0.788492 0.342503 0.223259 -0.264856
C20   C     C_3   0.759239 0.326639 0.065919 -0.427036
C21   C     C_3   0.180762 0.625166 0.700130 -0.228062
C22   C     C_3   0.198897 0.544352 0.832717 -0.302160
C23   C     C_R   0.503677 0.871299 0.500412 -0.005115
C24   C     C_3   0.244807 0.620450 0.957224 -0.424617
C25   C     C_3   0.678400 0.877265 0.393772 -0.222973
C26   C     C_3   0.765382 0.875380 0.510180 -0.286400
C27   C     C_3   0.866073 0.838324 0.451348 -0.447895
C28   C     C_3   0.322719 0.123047 0.610901 -0.223786
C29   C     C_3   0.236323 0.132647 0.494467 -0.290559
C30   C     C_3   0.138263 0.179186 0.553514 -0.449122
C31   C     C_R   0.495851 0.128556 0.500156 -0.005868
C32   C     C_R   0.445601 0.413294 0.068469 0.466821
C33   C     C_R   0.554994 0.586215 0.931605 0.464930
C34   C     C_R   0.446446 0.412818 0.919814 -0.027246
C35   C     C_R   0.554655 0.586266 0.080391 -0.031552
C36   C     C_R   0.301284 0.504517 0.476598 0.543800
Cu1   Cu    Cu3+1 0.500000 0.500020 0.640660 1.023613
Cu2   Cu    Cu3+1 0.500000 0.499980 0.359340 1.016721
F1    F     F_    0.656804 0.134810 0.399250 -0.673560
F2    F     F_    0.343653 0.864725 0.604095 -0.670607
F3    F     F_    0.389106 0.327556 0.131832 -0.633340
F4    F     F_    0.611670 0.671743 0.868201 -0.631579
H1    H     H_    0.815631 0.572442 0.746573 0.166135
H2    H     H_    0.850978 0.276579 0.254269 0.166220
H3    H     H_    0.721976 0.317998 0.282551 0.266066
H4    H     H_    0.760445 0.543725 0.235758 0.161190
H5    H     H_    0.876761 0.507419 0.182366 0.125909
H6    H     H_    0.319613 0.659621 0.932585 0.180429
H7    H     H_    0.192681 0.697291 0.981937 0.154658
H8    H     H_    0.256223 0.560352 0.051670 0.169755
H9    H     H_    0.126911 0.501849 0.863116 0.151039
H10   H     H_    0.250655 0.466703 0.811404 0.182726
H11   H     H_    0.253110 0.668662 0.673415 0.238317
H12   H     H_    0.186126 0.409111 0.265720 0.163580
H13   H     H_    0.132677 0.706528 0.722699 0.138398
H14   H     H_    0.857962 0.748569 0.394339 0.159039
H15   H     H_    0.890395 0.910390 0.377481 0.161910
H16   H     H_    0.925960 0.828947 0.539084 0.155886
H17   H     H_    0.774988 0.968574 0.559808 0.208102
H18   H     H_    0.746664 0.808166 0.593035 0.179212
H19   H     H_    0.663414 0.781146 0.356572 0.135634
H20   H     H_    0.702545 0.928708 0.300464 0.200077
H21   H     H_    0.111240 0.111772 0.630774 0.160552
H22   H     H_    0.151202 0.270349 0.606476 0.162387
H23   H     H_    0.006787 0.392573 0.237187 0.115744
H24   H     H_    0.078112 0.189748 0.466339 0.156492
H25   H     H_    0.259065 0.197689 0.411705 0.180322
H26   H     H_    0.221276 0.040228 0.445014 0.203960
H27   H     H_    0.296570 0.068661 0.700838 0.203013
H28   H     H_    0.340152 0.216736 0.653960 0.139935
H29   H     H_    0.993297 0.605657 0.770458 0.115062
H30   H     H_    0.403420 0.343129 0.859149 0.124341
H31   H     H_    0.598658 0.655026 0.141290 0.125379
H32   H     H_    0.695849 0.389995 0.032101 0.162521
H33   H     H_    0.825675 0.346474 0.003557 0.145316
H34   H     H_    0.733978 0.229724 0.044304 0.171097
N1    N     N_R   0.500030 0.500030 0.852080 -0.264709
N2    N     N_R   0.499970 0.499970 0.147920 -0.265373
O1    O     O_R   0.499990 0.319660 0.618740 -0.536591
O2    O     O_R   0.500010 0.680340 0.381260 -0.538650
O3    O     O_R   0.499990 0.319630 0.381170 -0.402123
O4    O     O_R   0.500010 0.680370 0.618830 -0.401307
O5    O     O_R   0.349000 0.499990 0.599490 -0.536546
O6    O     O_R   0.651000 0.500010 0.400510 -0.540058
O7    O     O_R   0.348990 0.499960 0.361920 -0.470463
O8    O     O_R   0.651010 0.500040 0.638080 -0.465479

loop_
_geom_bond_atom_site_label_1
_geom_bond_atom_site_label_2
_ccdc_geom_bond_type
C4    C36   S    
C30   H22   S    
C2    O6    A    
C28   H27   S    
C8    H1    S    
C1    C31   S    
C14   C31   A    
C9    C21   S    
C18   H5    S    
C21   H13   S    
Cu1   O1    S    
C12   C23   S    
C26   C27   S    
Cu1   Cu2   S    
C33   F4    S    
C28   C29   S    
C34   N1    A    
C36   O5    A    
C1    O3    A    
C24   H7    S    
C20   H34   S    
C18   C19   S    
C14   F1    S    
C29   H25   S    
C19   C20   S    
C32   F3    S    
C26   H17   S    
C5    C13   A    
C15   C23   A    
C21   C22   S    
C4    C7    A    
C18   H4    S    
C24   H8    S    
C6    H29   S    
Cu2   O7    S    
C12   O4    A    
C24   H6    S    
Cu1   O8    S    
C5    H23   S    
C3    C8    A    
C27   H15   S    
C6    C11   A    
C5    C7    A    
C27   H14   S    
C6    C8    A    
Cu2   N2    S    
C25   C26   S    
Cu1   N1    S    
C10   C13   A    
C20   H33   S    
C32   C34   A    
C29   C30   S    
C29   H26   S    
C20   H32   S    
C25   H19   S    
C9    C11   A    
C30   H24   S    
C16   C23   A    
Cu2   O3    S    
C1    O1    A    
C22   C24   S    
Cu1   O4    S    
C34   H30   S    
C19   H2    S    
C22   H10   S    
C16   C25   S    
C15   C17   A    
C35   H31   S    
Cu2   O6    S    
C17   C28   S    
C28   H28   S    
C27   H16   S    
C19   H3    S    
C36   O7    A    
C35   N2    A    
C2    C3    S    
C3    C10   A    
C21   H11   S    
C11   C13   A    
C33   N1    A    
Cu2   O2    S    
C10   C18   S    
C17   C31   A    
C12   O2    A    
C33   C35   A    
C2    O8    A    
C14   C16   A    
C25   H20   S    
C15   F2    S    
C32   N2    A    
Cu1   O5    S    
C7    H12   S    
C4    C9    A    
C30   H21   S    
C26   H18   S    
C22   H9    S    
