data_mof_unit_20628.cif
_audit_creation_date              2012-12-10T20:27:16-0500
_audit_creation_method            fapswitch 2.2
_symmetry_space_group_name_H-M    P1
_symmetry_Int_Tables_number       1
_space_group_crystal_system       triclinic
_cell_length_a                    10.776003
_cell_length_b                    10.683197
_cell_length_c                    9.863365
_cell_angle_alpha                 90.141614
_cell_angle_beta                  103.872384
_cell_angle_gamma                 90.049948
_cell_volume                      1102.36744074

loop_
_atom_site_label
_atom_site_type_symbol
_atom_type_description
_atom_site_fract_x
_atom_site_fract_y
_atom_site_fract_z
_atom_type_partial_charge
C1    C     C_R   0.496251 0.259904 0.498933 0.893298
C2    C     C_R   0.567585 0.586645 0.089924 -0.139112
C3    C     C_R   0.567732 0.586549 0.945985 -0.123759
C4    C     C_R   0.258930 0.504111 0.441846 0.952681
C5    C     C_R   0.440990 0.405927 0.912936 0.138000
C6    C     C_3   0.302771 0.372058 0.869627 -0.569123
C7    C     C_3   0.302823 0.371833 0.024094 0.241674
C8    C     C_R   0.496092 0.740074 0.499043 0.872658
C9    C     C_R   0.741135 0.504305 0.558087 0.942395
C10   C     C_2   0.122339 0.519912 0.408694 -0.360749
C11   C     C_2   0.067914 0.552384 0.511215 -0.157667
C12   C     C_R   0.475796 0.128500 0.493396 -0.108885
C13   C     C_2   0.877750 0.521462 0.590626 -0.373418
C14   C     C_2   0.931729 0.550424 0.486665 -0.146258
C15   C     C_R   0.466398 0.064186 0.613225 0.129587
C16   C     C_R   0.460617 0.064183 0.366402 -0.187226
C17   C     C_R   0.459894 0.934950 0.366306 -0.232687
C18   C     C_R   0.475349 0.871359 0.493496 -0.102459
C19   C     C_R   0.466378 0.936369 0.613325 0.143350
C20   C     C_3   0.547614 0.929748 0.759100 -0.494902
C21   C     C_3   0.547531 0.071703 0.759067 -0.472039
C22   C     C_R   0.441653 0.405421 0.055857 0.130622
H1    H     H_    0.876054 0.561881 0.379720 0.186130
H2    H     H_    0.066378 0.502941 0.302872 0.155331
H3    H     H_    0.459230 0.112441 0.269761 0.185073
H4    H     H_    0.457138 0.886068 0.269249 0.171862
H5    H     H_    0.495221 0.888863 0.832808 0.203583
H6    H     H_    0.643448 0.888612 0.764414 0.202610
H7    H     H_    0.495003 0.112819 0.832677 0.198513
H8    H     H_    0.338043 0.191549 0.045322 0.324905
H9    H     H_    0.643338 0.113121 0.764481 0.209375
H10   H     H_    0.620143 0.658061 0.158196 0.146056
H11   H     H_    0.620477 0.657813 0.905672 0.142038
H12   H     H_    0.243374 0.448221 0.810967 0.189567
H13   H     H_    0.287469 0.278637 0.818363 0.211114
H14   H     H_    0.242088 0.445804 0.054449 0.147926
H15   H     H_    0.123451 0.569767 0.617094 0.179050
H16   H     H_    0.933965 0.509276 0.697125 0.152116
N1    N     N_R   0.499160 0.499140 0.142600 -0.120639
N2    N     N_R   0.499160 0.499180 0.856960 -0.092479
O1    O     O_R   0.500020 0.316790 0.614700 -0.614320
O2    O     O_R   0.500000 0.316760 0.385350 -0.601657
O3    O     O_R   0.317820 0.500020 0.571850 -0.616459
O4    O     O_R   0.317800 0.499980 0.342510 -0.611224
O5    O     O_R   0.500000 0.683240 0.614650 -0.622928
O6    O     O_R   0.499980 0.683210 0.385300 -0.632064
O7    O     O_R   0.682200 0.500020 0.657490 -0.615067
O8    O     O_R   0.682180 0.499980 0.428150 -0.613858
O9    O     O_3   0.280425 0.252979 0.074833 -0.739593
Zn1   Zn    Zn3+2 0.500010 0.500020 0.653140 0.943706
Zn2   Zn    Zn3+2 0.499990 0.499980 0.346860 0.955357

loop_
_geom_bond_atom_site_label_1
_geom_bond_atom_site_label_2
_ccdc_geom_bond_type
C14   H1    S    
N1    Zn2   S    
O3    Zn1   S    
C6    C7    S    
C4    O3    A    
C7    C22   S    
C4    O4    A    
C7    H14   S    
O1    Zn1   S    
C19   C20   S    
C12   C15   A    
O2    Zn2   S    
C2    C3    A    
C13   C14   D    
C6    H13   S    
C15   C19   A    
C21   H9    S    
C13   H16   S    
C1    C12   S    
C21   H7    S    
O5    Zn1   S    
N2    Zn1   S    
C17   H4    S    
C2    N1    A    
O4    Zn2   S    
C1    O1    A    
C20   H5    S    
H8    O9    S    
C3    N2    A    
C9    O7    A    
O7    Zn1   S    
C17   C18   A    
C5    C6    S    
C11   C14   S    
C8    O6    A    
C10   C11   D    
C3    H11   S    
C4    C10   S    
C12   C16   A    
C1    O2    A    
C15   C21   S    
C20   C21   S    
C7    O9    S    
C9    O8    A    
C2    H10   S    
C18   C19   A    
C5    N2    A    
C16   H3    S    
C11   H15   S    
C9    C13   S    
C8    O5    A    
C20   H6    S    
C10   H2    S    
C22   N1    A    
O6    Zn2   S    
O8    Zn2   S    
C8    C18   S    
C5    C22   A    
C6    H12   S    
C16   C17   A    
