data_mof_unit_12288.cif
_audit_creation_date              2012-12-11T14:04:00-0500
_audit_creation_method            fapswitch 2.2
_symmetry_space_group_name_H-M    P1
_symmetry_Int_Tables_number       1
_space_group_crystal_system       triclinic
_cell_length_a                    19.081637
_cell_length_b                    10.986735
_cell_length_c                    18.88187
_cell_angle_alpha                 90.618576
_cell_angle_beta                  89.292766
_cell_angle_gamma                 90.255823
_cell_volume                      3957.91816228

loop_
_atom_site_label
_atom_site_type_symbol
_atom_type_description
_atom_site_fract_x
_atom_site_fract_y
_atom_site_fract_z
_atom_type_partial_charge
C1    C     C_R   0.242874 0.456571 0.654534 0.566446
C2    C     C_R   0.758788 0.463800 0.350175 0.581797
C3    C     C_R   0.742883 0.956539 0.654561 0.567190
C4    C     C_R   0.258790 0.963806 0.350180 0.581002
C5    C     C_2   0.255275 0.834098 0.528432 0.190771
C6    C     C_2   0.751600 0.838507 0.472610 0.205807
C7    C     C_2   0.755256 0.334121 0.528430 0.190863
C8    C     C_2   0.251570 0.338436 0.472609 0.205757
C9    C     C_R   0.010206 0.675191 0.420902 -0.020245
C10   C     C_R   0.005802 0.651690 0.569237 -0.005636
C11   C     C_R   0.510257 0.175191 0.420867 -0.019602
C12   C     C_R   0.505861 0.151696 0.569204 -0.006243
C13   C     C_R   0.987827 0.895970 0.435313 -0.057769
C14   C     C_R   0.964299 0.864165 0.579614 -0.080290
C15   C     C_R   0.487914 0.395974 0.435271 -0.057695
C16   C     C_R   0.464360 0.364181 0.579569 -0.080351
C17   C     C_R   0.966330 0.993976 0.477590 -0.103227
C18   C     C_R   0.952863 0.977360 0.549297 -0.108417
C19   C     C_R   0.466422 0.493988 0.477543 -0.103271
C20   C     C_R   0.452940 0.477378 0.549248 -0.108383
C21   C     C_R   0.989107 0.764663 0.538282 0.024595
C22   C     C_R   0.995553 0.778468 0.464125 0.028663
C23   C     C_R   0.489172 0.264671 0.538244 0.024303
C24   C     C_R   0.495625 0.278473 0.464089 0.028917
C25   C     C_R   0.021162 0.547676 0.523522 0.032581
C26   C     C_R   0.037109 0.570037 0.451459 0.022764
C27   C     C_R   0.521238 0.047686 0.523486 0.032306
C28   C     C_R   0.537169 0.070038 0.451416 0.023105
C29   C     C_R   0.021257 0.421774 0.544627 0.171836
C30   C     C_R   0.072213 0.480563 0.408877 0.166278
C31   C     C_R   0.521335 0.921788 0.544593 0.171512
C32   C     C_R   0.572245 0.980543 0.408818 0.166470
C33   C     C_R   0.049747 0.332319 0.499370 -0.155999
C34   C     C_R   0.077062 0.362010 0.433592 -0.140979
C35   C     C_R   0.549828 0.832330 0.499341 -0.156047
C36   C     C_R   0.577115 0.862004 0.433549 -0.141092
C37   C     C_2   0.234489 0.892546 0.930650 -0.068185
C38   C     C_2   0.765030 0.891755 0.069666 -0.068459
C39   C     C_2   0.734391 0.392498 0.930681 -0.067762
C40   C     C_2   0.264900 0.391856 0.069718 -0.068860
C41   C     C_2   0.247848 0.896703 0.085605 -0.151118
C42   C     C_2   0.751624 0.899563 0.914440 -0.150057
C43   C     C_2   0.747807 0.396726 0.085583 -0.152978
C44   C     C_2   0.251565 0.399545 0.914424 -0.147716
C45   C     C_R   0.228386 0.877002 0.649811 0.575940
C46   C     C_R   0.771752 0.877563 0.350231 0.574294
C47   C     C_R   0.728387 0.377007 0.649814 0.575931
C48   C     C_R   0.271757 0.377548 0.350240 0.574074
C49   C     C_2   0.188356 0.919313 0.052026 -0.123199
C50   C     C_2   0.810603 0.924572 0.948883 -0.121653
C51   C     C_2   0.688222 0.419198 0.052084 -0.122777
C52   C     C_2   0.310424 0.424685 0.948986 -0.121931
C53   C     C_2   0.179417 0.903432 0.976459 0.202604
C54   C     C_2   0.819934 0.904852 0.023862 0.203459
C55   C     C_2   0.679286 0.404287 0.976413 0.203199
C56   C     C_2   0.319761 0.403586 0.023776 0.203017
C57   C     C_2   0.989286 0.663001 0.916612 -0.091191
C58   C     C_2   0.990483 0.653793 0.073815 -0.061123
C59   C     C_2   0.510216 0.155345 0.926600 -0.061517
C60   C     C_2   0.511092 0.161869 0.083933 -0.091461
C61   C     C_2   0.962419 0.569339 0.030271 -0.141688
C62   C     C_2   0.977924 0.563273 0.954922 -0.170313
C63   C     C_2   0.520671 0.062408 0.044012 -0.170635
C64   C     C_2   0.536705 0.069343 0.968941 -0.145149
C65   C     C_R   0.030739 0.652158 0.643841 0.558542
C66   C     C_R   0.972198 0.657508 0.353520 0.589501
C67   C     C_R   0.530759 0.152157 0.643827 0.560500
C68   C     C_R   0.472209 0.157507 0.353511 0.587805
C69   C     C_R   0.238996 0.463793 0.849381 0.544658
C70   C     C_R   0.760791 0.462893 0.150737 0.541511
C71   C     C_R   0.739014 0.963760 0.849372 0.541211
C72   C     C_R   0.260802 0.962903 0.150740 0.545106
C73   C     C_R   0.223160 0.865555 0.856342 0.566980
C74   C     C_R   0.776820 0.864785 0.143611 0.567215
C75   C     C_R   0.723124 0.365523 0.856361 0.565215
C76   C     C_R   0.276771 0.364836 0.143640 0.569035
C77   C     C_R   0.027781 0.652738 0.849969 0.560036
C78   C     C_R   0.968791 0.651232 0.147702 0.554347
C79   C     C_R   0.531498 0.151741 0.852528 0.554817
C80   C     C_R   0.472341 0.152325 0.150254 0.561830
C81   C     C_2   0.251513 0.916404 0.581026 -0.081238
C82   C     C_2   0.749492 0.917192 0.419351 -0.056738
C83   C     C_2   0.751511 0.416416 0.581030 -0.081302
C84   C     C_2   0.249501 0.417156 0.419366 -0.056783
C85   C     C_2   0.238078 0.890436 0.409555 -0.086923
C86   C     C_2   0.763108 0.878915 0.596082 -0.085271
C87   C     C_2   0.738077 0.390419 0.409545 -0.087024
C88   C     C_2   0.263106 0.378938 0.596061 -0.085090
C89   C     C_2   0.283241 0.871325 0.460792 -0.099419
C90   C     C_2   0.722503 0.876744 0.539951 -0.088653
C91   C     C_2   0.783231 0.371350 0.460794 -0.099372
C92   C     C_2   0.222473 0.376662 0.539952 -0.088743
Cr1   Cr    Cr6+3 0.113970 0.508630 0.747920 1.051043
Cr2   Cr    Cr6+3 0.886030 0.508630 0.252080 1.051024
Cr3   Cr    Cr6+3 0.613970 0.008630 0.747920 1.048526
Cr4   Cr    Cr6+3 0.386030 0.008630 0.252080 1.053084
Cr5   Cr    Cr6+3 0.269200 0.666740 0.749850 1.038683
Cr6   Cr    Cr6+3 0.730800 0.666740 0.250150 1.033620
Cr7   Cr    Cr6+3 0.769200 0.166740 0.749850 1.035146
Cr8   Cr    Cr6+3 0.230800 0.166740 0.250150 1.037139
Cr9   Cr    Cr6+3 0.112300 0.820070 0.749800 1.082586
Cr10  Cr    Cr6+3 0.887700 0.820070 0.250200 1.075278
Cr11  Cr    Cr6+3 0.612300 0.320070 0.749800 1.084649
Cr12  Cr    Cr6+3 0.387700 0.320070 0.250200 1.073109
H1    H     H_    0.336864 0.905033 0.457353 0.146756
H2    H     H_    0.673816 0.927504 0.540539 0.165129
H3    H     H_    0.836847 0.405098 0.457369 0.146732
H4    H     H_    0.173767 0.427364 0.540548 0.165122
H5    H     H_    0.290489 0.845862 0.061134 0.113309
H6    H     H_    0.709307 0.846780 0.937909 0.108644
H7    H     H_    0.790542 0.346248 0.061040 0.107459
H8    H     H_    0.209373 0.346291 0.937782 0.114688
H9    H     H_    0.288076 0.889903 0.948905 0.061848
H10   H     H_    0.711327 0.889513 0.051603 0.055954
H11   H     H_    0.787926 0.388765 0.949002 0.055323
H12   H     H_    0.211137 0.391296 0.051795 0.061891
H13   H     H_    0.929901 0.496078 0.050995 0.159541
H14   H     H_    0.984284 0.472798 0.932007 0.166363
H15   H     H_    0.512508 0.971894 0.065309 0.166731
H16   H     H_    0.568147 0.995175 0.947297 0.162020
H17   H     H_    0.023021 0.727764 0.054299 0.169780
H18   H     H_    0.978759 0.752661 0.938698 0.200107
H19   H     H_    0.523084 0.251452 0.063284 0.194882
H20   H     H_    0.478663 0.230023 0.947078 0.176886
H21   H     H_    0.182583 0.870796 0.417546 0.117769
H22   H     H_    0.816178 0.843706 0.593388 0.127789
H23   H     H_    0.682584 0.370741 0.417521 0.117680
H24   H     H_    0.316193 0.343807 0.593347 0.127936
H25   H     H_    0.267765 0.010323 0.573717 0.104212
H26   H     H_    0.729164 0.008366 0.426666 0.115337
H27   H     H_    0.767776 0.510330 0.573727 0.104113
H28   H     H_    0.229213 0.508349 0.426703 0.115324
H29   H     H_    0.959692 0.082900 0.454511 0.114480
H30   H     H_    0.934283 0.052724 0.581724 0.124732
H31   H     H_    0.459794 0.582912 0.454460 0.114274
H32   H     H_    0.434358 0.552748 0.581669 0.124855
H33   H     H_    0.000557 0.914357 0.380520 0.125467
H34   H     H_    0.951637 0.854559 0.635271 0.113358
H35   H     H_    0.500646 0.414343 0.380476 0.125047
H36   H     H_    0.451681 0.354582 0.635222 0.114065
H37   H     H_    0.050734 0.238000 0.515442 0.120440
H38   H     H_    0.100551 0.291225 0.400887 0.138079
H39   H     H_    0.550817 0.738013 0.515417 0.120490
H40   H     H_    0.600587 0.791207 0.400840 0.137947
H41   H     H_    0.144938 0.963174 0.079913 0.203161
H42   H     H_    0.853660 0.971237 0.922223 0.201391
H43   H     H_    0.644767 0.462636 0.080140 0.200381
H44   H     H_    0.353433 0.471902 0.922579 0.203646
O1    O     O_R   0.043230 0.549300 0.667990 -0.474217
O2    O     O_R   0.956770 0.549300 0.332010 -0.477386
O3    O     O_R   0.543230 0.049300 0.667990 -0.472175
O4    O     O_R   0.456770 0.049300 0.332010 -0.479232
O5    O     O_R   0.262920 0.788600 0.824420 -0.515735
O6    O     O_R   0.737080 0.788600 0.175580 -0.517524
O7    O     O_R   0.762920 0.288600 0.824420 -0.517558
O8    O     O_R   0.237080 0.288600 0.175580 -0.515647
O9    O     O_R   0.167530 0.905110 0.830340 -0.450489
O10   O     O_R   0.832470 0.905110 0.169660 -0.451968
O11   O     O_R   0.667530 0.405110 0.830340 -0.450378
O12   O     O_R   0.332470 0.405110 0.169660 -0.452473
O13   O     O_R   0.054010 0.748440 0.822860 -0.459145
O14   O     O_R   0.945990 0.748440 0.177140 -0.457853
O15   O     O_R   0.554010 0.248440 0.822860 -0.455295
O16   O     O_R   0.445990 0.248440 0.177140 -0.461556
O17   O     O_3   0.165160 0.665150 0.749190 -0.250301
O18   O     O_3   0.834840 0.665150 0.250810 -0.249997
O19   O     O_3   0.665160 0.165150 0.749190 -0.251673
O20   O     O_3   0.334840 0.165150 0.250810 -0.248552
O21   O     O_R   0.178620 0.457600 0.674100 -0.485928
O22   O     O_R   0.821380 0.457600 0.325900 -0.487742
O23   O     O_R   0.678620 0.957600 0.674100 -0.484895
O24   O     O_R   0.321380 0.957600 0.325900 -0.488886
O25   O     O_R   0.284680 0.542100 0.669460 -0.488191
O26   O     O_R   0.715320 0.542100 0.330540 -0.497278
O27   O     O_R   0.784680 0.042100 0.669460 -0.488039
O28   O     O_R   0.215320 0.042100 0.330540 -0.497397
O29   O     O_R   0.262860 0.790390 0.676650 -0.478563
O30   O     O_R   0.737140 0.790390 0.323350 -0.481747
O31   O     O_R   0.762860 0.290390 0.676650 -0.478449
O32   O     O_R   0.237140 0.290390 0.323350 -0.481926
O33   O     O_R   0.167460 0.907030 0.670940 -0.497088
O34   O     O_R   0.832540 0.907030 0.329060 -0.502986
O35   O     O_R   0.667460 0.407030 0.670940 -0.496891
O36   O     O_R   0.332540 0.407030 0.329060 -0.503257
O37   O     O_R   0.053950 0.750220 0.675100 -0.501473
O38   O     O_R   0.946050 0.750220 0.324900 -0.511797
O39   O     O_R   0.553950 0.250220 0.675100 -0.500219
O40   O     O_R   0.446050 0.250220 0.324900 -0.513088
O41   O     O_R   0.043300 0.547370 0.827390 -0.521503
O42   O     O_R   0.956700 0.547370 0.172610 -0.522390
O43   O     O_R   0.543300 0.047370 0.827390 -0.525880
O44   O     O_R   0.456700 0.047370 0.172610 -0.518778
O45   O     O_R   0.178690 0.455820 0.821860 -0.498957
O46   O     O_R   0.821310 0.455820 0.178140 -0.504382
O47   O     O_R   0.678690 0.955820 0.821860 -0.506688
O48   O     O_R   0.321310 0.955820 0.178140 -0.497092
O49   O     O_R   0.284750 0.540170 0.828860 -0.523181
O50   O     O_R   0.715250 0.540170 0.171140 -0.519674
O51   O     O_R   0.784750 0.040170 0.828860 -0.522672
O52   O     O_R   0.215250 0.040170 0.171140 -0.520023
Cl1   Cl    Cl    0.090693 0.915183 0.951413 -0.584605
Cl2   Cl    Cl    0.909033 0.914381 0.048580 -0.578664
Cl3   Cl    Cl    0.590643 0.418583 0.951187 -0.577862
Cl4   Cl    Cl    0.408931 0.409349 0.048150 -0.586431
Cl5   Cl    Cl    0.215972 0.688729 0.534332 -0.664007
Cl6   Cl    Cl    0.795702 0.697337 0.466002 -0.653035
Cl7   Cl    Cl    0.715938 0.188763 0.534323 -0.664047
Cl8   Cl    Cl    0.295658 0.197256 0.465995 -0.652853
N1    N     N_2   0.098476 0.506475 0.339197 -0.505664
H45   H     H_    0.112417 0.432964 0.307700 0.254724
C93   C     C_3   0.141113 0.614701 0.328912 -0.311566
H46   H     H_    0.114594 0.676173 0.291585 0.149418
H47   H     H_    0.192810 0.589399 0.305636 0.129857
H48   H     H_    0.150368 0.664423 0.379433 0.165468
N2    N     N_2   0.987362 0.379894 0.607407 -0.478400
H49   H     H_    0.005116 0.297672 0.625950 0.239810
C94   C     C_3   0.912225 0.387344 0.607683 -0.293739
H50   H     H_    0.892075 0.368063 0.661772 0.159857
H51   H     H_    0.890993 0.318412 0.570233 0.149615
H52   H     H_    0.895052 0.480008 0.592935 0.150431
N3    N     N_2   0.598434 0.006394 0.339101 -0.506796
H53   H     H_    0.612316 0.932860 0.307595 0.253807
C95   C     C_3   0.641058 0.114604 0.328717 -0.312031
H54   H     H_    0.614526 0.175969 0.291339 0.147961
H55   H     H_    0.692752 0.089255 0.305451 0.130328
H56   H     H_    0.650322 0.164451 0.379195 0.165628
N4    N     N_2   0.487404 0.879906 0.607351 -0.477892
H57   H     H_    0.505174 0.797712 0.625920 0.240224
C96   C     C_3   0.412263 0.887250 0.607541 -0.293096
H58   H     H_    0.392063 0.867943 0.661608 0.160844
H59   H     H_    0.391100 0.818290 0.570067 0.149203
H60   H     H_    0.395068 0.979891 0.592772 0.150485

loop_
_geom_bond_atom_site_label_1
_geom_bond_atom_site_label_2
_ccdc_geom_bond_type
C47   C83   S    
C7    C83   D    
Cr6   O6    S    
Cr11  O19   S    
C6    C82   D    
C87   C91   D    
C86   H22   S    
C14   C18   A    
C85   H21   S    
C35   C36   A    
C78   O42   A    
C75   O11   A    
C57   C77   S    
C3    O23   A    
Cr2   O18   S    
C30   N1    S    
C87   H23   S    
C32   N3    S    
C95   H56   S    
C45   O33   A    
C57   C62   D    
C94   H52   S    
C15   C19   A    
C12   C23   A    
Cr1   O21   S    
C59   C64   D    
C50   C54   S    
C60   C63   D    
Cr11  O35   S    
C32   C36   A    
C14   C21   A    
C66   O2    A    
C96   H60   S    
C31   N4    S    
N2    C94   S    
Cr6   O26   S    
Cr5   O17   S    
C9    C22   A    
C29   N2    S    
Cr12  O20   S    
C19   H31   S    
Cr4   O4    S    
C73   O9    A    
C11   C24   A    
C63   H15   S    
C74   O6    A    
C8    Cl8   S    
N4    H57   S    
C46   O30   A    
C9    C66   S    
C80   O16   A    
C47   O31   A    
C57   H18   S    
C46   C82   S    
Cr1   O1    S    
C92   H4    S    
C39   C55   D    
C14   H34   S    
C29   C33   A    
C40   C76   S    
C43   C70   S    
C40   C56   D    
Cr7   O7    S    
Cr8   O28   S    
Cr3   O47   S    
C23   C24   A    
Cr4   O20   S    
C8    C92   S    
C39   C75   S    
C82   H26   S    
C4    O24   A    
C15   H35   S    
C61   C62   S    
C2    O26   A    
C16   C20   A    
C37   C53   D    
C70   O46   A    
C44   C52   D    
C58   C61   D    
Cr1   O17   S    
C52   H44   S    
N3    C95   S    
C79   O43   A    
C21   C22   A    
C3    C86   S    
C69   O49   A    
C80   O44   A    
Cr10  O10   S    
C16   H36   S    
C43   H7    S    
Cr12  O12   S    
Cr9   O37   S    
C62   H14   S    
C41   C49   D    
C67   O39   A    
C9    C26   A    
C17   C18   A    
Cr7   O19   S    
N4    C96   S    
C10   C21   A    
C25   C29   A    
C33   C34   A    
Cr12  O40   S    
C12   C67   S    
C65   O37   A    
Cr5   O25   S    
C30   C34   A    
C12   C27   A    
C27   C31   A    
Cr10  O34   S    
C34   H38   S    
C91   H3    S    
C28   C32   A    
Cr11  O39   S    
C90   H2    S    
C95   H54   S    
C7    Cl7   S    
C86   C90   D    
C59   C79   S    
C48   O36   A    
C74   O10   A    
C4    C85   S    
C33   H37   S    
C25   C26   A    
C6    C90   S    
C61   H13   S    
Cr5   O5    S    
C84   H28   S    
C53   Cl1   S    
C48   C84   S    
Cr5   O29   S    
Cr12  O16   S    
C13   H33   S    
C60   H19   S    
N2    H49   S    
Cr2   O42   S    
Cr7   O31   S    
C96   H58   S    
C68   O4    A    
Cr5   O49   S    
C72   O52   A    
N3    H53   S    
C5    C81   D    
C71   O47   A    
C93   H46   S    
C38   C54   D    
C51   H43   S    
Cr10  O14   S    
C1    O25   A    
C69   O45   A    
N1    H45   S    
C49   H41   S    
C2    C87   S    
C88   C92   D    
C20   H32   S    
Cr9   O17   S    
Cr6   O18   S    
C42   C50   D    
C41   C72   S    
Cr8   O52   S    
C10   C25   A    
C47   O35   A    
C15   C24   A    
Cr12  O36   S    
C2    O22   A    
C78   O14   A    
C16   C23   A    
C39   H11   S    
C66   O38   A    
C17   H29   S    
C81   H25   S    
C96   H59   S    
C31   C35   A    
Cr3   O3    S    
Cr8   O8    S    
C73   O5    A    
Cr8   O32   S    
C44   H8    S    
C7    C91   S    
C48   O32   A    
Cr9   O33   S    
C11   C68   S    
Cr6   O30   S    
C38   C74   S    
C10   C65   S    
C3    O27   A    
C59   H20   S    
C37   C73   S    
C60   C80   S    
C58   H17   S    
C85   C89   D    
Cr3   O43   S    
Cr10  O38   S    
C93   H47   S    
Cr2   O46   S    
Cr1   O45   S    
C55   Cl3   S    
C8    C84   D    
C79   O15   A    
Cr3   O19   S    
Cr4   O24   S    
C72   O48   A    
Cr10  O18   S    
C95   H55   S    
C71   O51   A    
C56   Cl4   S    
Cr1   O41   S    
C94   H51   S    
C50   H42   S    
Cr11  O15   S    
C64   H16   S    
C13   C17   A    
Cr8   O20   S    
C77   O41   A    
C89   H1    S    
C46   O34   A    
C19   C20   A    
Cr9   O13   S    
C83   H27   S    
C94   H50   S    
Cr9   O9    S    
C88   H24   S    
C54   Cl2   S    
Cr2   O22   S    
C45   O29   A    
Cr11  O11   S    
Cr6   O50   S    
C40   H12   S    
C76   O12   A    
C11   C28   A    
C1    C88   S    
C67   O3    A    
C38   H10   S    
C43   C51   D    
C1    O21   A    
C42   C71   S    
N1    C93   S    
C77   O13   A    
C76   O8    A    
C13   C22   A    
C18   H30   S    
C51   C55   S    
C42   H6    S    
Cr4   O44   S    
C6    Cl6   S    
C49   C53   S    
C58   C78   S    
C5    Cl5   S    
C63   C64   S    
C75   O7    A    
Cr2   O2    S    
Cr4   O48   S    
C93   H48   S    
Cr7   O27   S    
C68   O40   A    
C70   O50   A    
C4    O28   A    
Cr7   O51   S    
C27   C28   A    
C65   O1    A    
C44   C69   S    
C37   H9    S    
C41   H5    S    
C45   C81   S    
C36   H40   S    
Cr3   O23   S    
C5    C89   S    
C52   C56   S    
C35   H39   S    
C26   C30   A    
