data_mof_unit_26434.cif
_audit_creation_date              2012-12-11T14:30:10-0500
_audit_creation_method            fapswitch 2.2
_symmetry_space_group_name_H-M    P1
_symmetry_Int_Tables_number       1
_space_group_crystal_system       triclinic
_cell_length_a                    12.612249
_cell_length_b                    12.612221
_cell_length_c                    26.966866
_cell_angle_alpha                 89.999882
_cell_angle_beta                  89.998757
_cell_angle_gamma                 120.001371
_cell_volume                      3714.83233511

loop_
_atom_site_label
_atom_site_type_symbol
_atom_type_description
_atom_site_fract_x
_atom_site_fract_y
_atom_site_fract_z
_atom_type_partial_charge
C1    C     C_R   0.556956 0.457533 0.821868 0.540949
C2    C     C_R   0.457534 0.556956 0.178132 0.540952
C3    C     C_R   0.997871 0.307335 0.474377 -0.130560
C4    C     C_R   0.309892 0.002934 0.025717 -0.130540
C5    C     C_R   0.692793 0.690413 0.474342 -0.130562
C6    C     C_R   0.307107 0.997404 0.525681 -0.130545
C7    C     C_R   0.002640 0.309735 0.974313 -0.130537
C8    C     C_R   0.690319 0.692872 0.525668 -0.130561
C9    C     C_R   0.307391 0.998000 0.974390 -0.130554
C10   C     C_R   0.002812 0.309834 0.525704 -0.130552
C11   C     C_R   0.690387 0.692804 0.974339 -0.130574
C12   C     C_1   0.971073 0.295108 0.131280 0.218485
C13   C     C_R   0.443038 0.900571 0.321869 0.540934
C14   C     C_1   0.324050 0.028947 0.368712 0.218487
C15   C     C_1   0.704914 0.675842 0.131309 0.218468
C16   C     C_1   0.971176 0.295127 0.368741 0.218485
C17   C     C_1   0.324382 0.029345 0.131366 0.218476
C18   C     C_1   0.704907 0.675914 0.368701 0.218478
C19   C     C_1   0.295070 0.970870 0.631326 0.218486
C20   C     C_1   0.029161 0.324233 0.868666 0.218493
C21   C     C_1   0.675832 0.704914 0.631313 0.218476
C22   C     C_1   0.295148 0.971252 0.868756 0.218493
C23   C     C_1   0.029285 0.324346 0.631354 0.218482
C24   C     C_R   0.099426 0.542466 0.178130 0.540932
C25   C     C_1   0.675880 0.704906 0.868696 0.218477
C26   C     C_R   0.996473 0.499495 0.973914 0.053400
C27   C     C_R   0.503031 0.003560 0.526080 0.053401
C28   C     C_R   0.500561 0.496935 0.973930 0.053414
C29   C     C_R   0.996517 0.499524 0.526092 0.053407
C30   C     C_R   0.503143 0.003797 0.973954 0.053404
C31   C     C_R   0.500543 0.496950 0.526075 0.053406
C32   C     C_R   0.499414 0.996339 0.473935 0.053403
C33   C     C_R   0.900587 0.443053 0.678136 0.540946
C34   C     C_R   0.003692 0.503097 0.026060 0.053401
C35   C     C_R   0.496936 0.500565 0.473930 0.053407
C36   C     C_R   0.499554 0.996575 0.026099 0.053400
C37   C     C_R   0.003734 0.503115 0.473947 0.053409
C38   C     C_R   0.496951 0.500542 0.026075 0.053414
C39   C     C_R   0.991147 0.689651 0.974284 -0.122304
C40   C     C_R   0.698517 0.008895 0.525711 -0.122316
C41   C     C_R   0.310355 0.301503 0.974290 -0.122341
C42   C     C_R   0.991044 0.689599 0.525710 -0.122323
C43   C     C_R   0.698454 0.008762 0.974286 -0.122318
C44   C     C_R   0.542469 0.099440 0.821875 0.540928
C45   C     C_R   0.310388 0.301461 0.525711 -0.122330
C46   C     C_R   0.689645 0.991157 0.474287 -0.122310
C47   C     C_R   0.008883 0.698514 0.025709 -0.122314
C48   C     C_R   0.301522 0.310329 0.474287 -0.122326
C49   C     C_R   0.689596 0.991025 0.025711 -0.122307
C50   C     C_R   0.008778 0.698457 0.474285 -0.122325
C51   C     C_R   0.301488 0.310368 0.025715 -0.122346
C52   C     C_R   0.963092 0.577908 0.896836 -0.139149
C53   C     C_R   0.614815 0.036923 0.603161 -0.139141
C54   C     C_R   0.422109 0.385190 0.896843 -0.139155
C55   C     C_R   0.556956 0.457534 0.678133 0.540955
C56   C     C_R   0.963064 0.577901 0.603164 -0.139134
C57   C     C_R   0.614793 0.036920 0.896850 -0.139165
C58   C     C_R   0.422117 0.385175 0.603159 -0.139132
C59   C     C_R   0.577880 0.963076 0.396844 -0.139161
C60   C     C_R   0.036941 0.614814 0.103153 -0.139146
C61   C     C_R   0.385197 0.422102 0.396842 -0.139161
C62   C     C_R   0.577903 0.963062 0.103165 -0.139136
C63   C     C_R   0.036908 0.614789 0.396847 -0.139166
C64   C     C_R   0.385184 0.422110 0.103160 -0.139139
C65   C     C_R   0.038155 0.518646 0.129166 -0.021014
C66   C     C_R   0.900583 0.443049 0.821865 0.540939
C67   C     C_R   0.480496 0.961856 0.370831 -0.021017
C68   C     C_R   0.481361 0.519474 0.129176 -0.021011
C69   C     C_R   0.038174 0.518642 0.370839 -0.021016
C70   C     C_R   0.480590 0.961958 0.129192 -0.021018
C71   C     C_R   0.481361 0.519489 0.370827 -0.021016
C72   C     C_R   0.518634 0.038097 0.629181 -0.021012
C73   C     C_R   0.961915 0.480551 0.870815 -0.021016
C74   C     C_R   0.519474 0.481357 0.629176 -0.021009
C75   C     C_R   0.518653 0.038210 0.870846 -0.021012
C76   C     C_R   0.961937 0.480577 0.629189 -0.021013
C77   C     C_R   0.542465 0.099419 0.678134 0.540948
C78   C     C_R   0.519483 0.481360 0.870826 -0.021014
C79   C     C_R   0.985614 0.590832 0.948033 0.013320
C80   C     C_R   0.605224 0.014416 0.551962 0.013320
C81   C     C_R   0.409195 0.394773 0.948043 0.013337
C82   C     C_R   0.985589 0.590825 0.551967 0.013320
C83   C     C_R   0.605235 0.014457 0.948052 0.013325
C84   C     C_R   0.409202 0.394759 0.551960 0.013327
C85   C     C_R   0.590790 0.985564 0.448044 0.013326
C86   C     C_R   0.014464 0.605245 0.051952 0.013321
C87   C     C_R   0.394781 0.409187 0.448042 0.013334
C88   C     C_R   0.457533 0.556958 0.321868 0.540945
C89   C     C_R   0.590836 0.985603 0.051970 0.013318
C90   C     C_R   0.014434 0.605224 0.448048 0.013330
C91   C     C_R   0.394771 0.409193 0.051961 0.013334
C92   C     C_R   0.997125 0.403897 0.895799 -0.021680
C93   C     C_R   0.406773 0.002902 0.604196 -0.021685
C94   C     C_R   0.596183 0.593202 0.895819 -0.021679
C95   C     C_R   0.997212 0.403967 0.604213 -0.021693
C96   C     C_R   0.406868 0.003218 0.895857 -0.021679
C97   C     C_R   0.596150 0.593212 0.604187 -0.021692
C98   C     C_R   0.403775 0.996965 0.395829 -0.021677
C99   C     C_R   0.443056 0.900591 0.178136 0.540937
C100  C     C_R   0.003058 0.406822 0.104166 -0.021683
C101  C     C_R   0.593198 0.596204 0.395822 -0.021676
C102  C     C_R   0.404004 0.997275 0.104223 -0.021687
C103  C     C_R   0.003137 0.406841 0.395847 -0.021673
C104  C     C_R   0.593213 0.596154 0.104185 -0.021692
C105  C     C_R   0.000468 0.404594 0.947784 0.003550
C106  C     C_R   0.404134 0.999568 0.552211 0.003549
C107  C     C_R   0.595494 0.595817 0.947805 0.003548
C108  C     C_R   0.000574 0.404663 0.552228 0.003550
C109  C     C_R   0.404300 0.999961 0.947843 0.003542
C110  C     C_R   0.099434 0.542467 0.321871 0.540941
C111  C     C_R   0.595453 0.595848 0.552202 0.003549
C112  C     C_R   0.404466 0.000263 0.447815 0.003548
C113  C     C_R   0.999769 0.404222 0.052180 0.003545
C114  C     C_R   0.595812 0.595513 0.447807 0.003550
C115  C     C_R   0.404707 0.000658 0.052239 0.003553
C116  C     C_R   0.999867 0.404262 0.447833 0.003543
C117  C     C_R   0.595843 0.595457 0.052200 0.003548
C118  C     C_R   0.997706 0.307254 0.025640 -0.130543
C119  C     C_R   0.309563 0.002335 0.474353 -0.130546
C120  C     C_R   0.692856 0.690329 0.025666 -0.130576
Cr1   Cr    Cr6+3 0.487630 0.241180 0.750000 1.073811
Cr2   Cr    Cr6+3 0.753550 0.512370 0.750000 1.073776
Cr3   Cr    Cr6+3 0.758820 0.246450 0.750000 1.073784
Cr4   Cr    Cr6+3 0.241180 0.487630 0.250000 1.073808
Cr5   Cr    Cr6+3 0.512370 0.753550 0.250000 1.073773
Cr6   Cr    Cr6+3 0.246450 0.758820 0.250000 1.073791
H1    H     H_    0.058630 0.698962 0.122232 0.149015
H2    H     H_    0.698903 0.058516 0.877762 0.149017
H3    H     H_    0.941247 0.640283 0.622228 0.149035
H4    H     H_    0.359665 0.301032 0.877769 0.149040
H5    H     H_    0.016533 0.777381 0.045029 0.112708
H6    H     H_    0.760865 0.983514 0.454966 0.112711
H7    H     H_    0.222606 0.239166 0.045032 0.112631
H8    H     H_    0.016362 0.777287 0.454959 0.112696
H9    H     H_    0.760746 0.983230 0.045017 0.112684
H10   H     H_    0.222660 0.239103 0.454968 0.112676
H11   H     H_    0.777414 0.016601 0.545025 0.112689
H12   H     H_    0.640338 0.941383 0.377766 0.149019
H13   H     H_    0.983449 0.760846 0.954971 0.112718
H14   H     H_    0.239197 0.222562 0.545027 0.112652
H15   H     H_    0.777271 0.016312 0.954958 0.112708
H16   H     H_    0.983282 0.760762 0.545018 0.112665
H17   H     H_    0.239143 0.222632 0.954973 0.112637
H18   H     H_    0.997185 0.230979 0.044297 0.116837
H19   H     H_    0.233811 0.002858 0.455696 0.116836
H20   H     H_    0.769154 0.766048 0.044327 0.116820
H21   H     H_    0.997394 0.231080 0.455724 0.116821
H22   H     H_    0.234227 0.003602 0.044388 0.116872
H23   H     H_    0.301014 0.359681 0.122234 0.149045
H24   H     H_    0.769071 0.766163 0.455682 0.116825
H25   H     H_    0.230806 0.996816 0.544345 0.116846
H26   H     H_    0.003232 0.234025 0.955648 0.116866
H27   H     H_    0.766036 0.769174 0.544330 0.116828
H28   H     H_    0.231146 0.997553 0.955739 0.116802
H29   H     H_    0.003457 0.234157 0.544373 0.116860
H30   H     H_    0.766124 0.769089 0.955678 0.116817
H31   H     H_    0.058546 0.698915 0.377762 0.149028
H32   H     H_    0.640264 0.941205 0.122224 0.149028
H33   H     H_    0.301041 0.359648 0.377767 0.149030
H34   H     H_    0.698991 0.058680 0.622231 0.149018
H35   H     H_    0.941326 0.640323 0.877767 0.149020
H36   H     H_    0.359691 0.301002 0.622232 0.149036
N1    N     N_1   0.945232 0.205884 0.152722 -0.279225
N2    N     N_1   0.205920 0.945416 0.847320 -0.279221
N3    N     N_1   0.055198 0.261053 0.652820 -0.279216
N4    N     N_1   0.739234 0.794119 0.847245 -0.279247
N5    N     N_1   0.260671 0.054781 0.347266 -0.279193
N6    N     N_1   0.794126 0.739190 0.152761 -0.279251
N7    N     N_1   0.945353 0.205904 0.347305 -0.279233
N8    N     N_1   0.261082 0.055239 0.152836 -0.279210
N9    N     N_1   0.794126 0.739280 0.347253 -0.279222
N10   N     N_1   0.205857 0.944992 0.652783 -0.279229
N11   N     N_1   0.055043 0.260905 0.847208 -0.279188
N12   N     N_1   0.739176 0.794126 0.652766 -0.279243
O1    O     O_R   0.460870 0.120930 0.805240 -0.491853
O2    O     O_R   0.120930 0.460870 0.194760 -0.491859
O3    O     O_R   0.539130 0.660060 0.305240 -0.491856
O4    O     O_R   0.339940 0.879070 0.194760 -0.491845
O5    O     O_R   0.498910 0.350470 0.801870 -0.496980
O6    O     O_R   0.851560 0.501090 0.698130 -0.497004
O7    O     O_R   0.649530 0.148440 0.801870 -0.496970
O8    O     O_R   0.498910 0.350470 0.698130 -0.496983
O9    O     O_R   0.851560 0.501090 0.801870 -0.497003
O10   O     O_R   0.649530 0.148440 0.698130 -0.496990
O11   O     O_R   0.350470 0.498910 0.301870 -0.496982
O12   O     O_R   0.660060 0.539130 0.694760 -0.491861
O13   O     O_R   0.501090 0.851560 0.198130 -0.497007
O14   O     O_R   0.148440 0.649530 0.301870 -0.496980
O15   O     O_R   0.350470 0.498910 0.198130 -0.496981
O16   O     O_R   0.501090 0.851560 0.301870 -0.496995
O17   O     O_R   0.148440 0.649530 0.198130 -0.496979
O18   O     O_3   0.666667 0.333333 0.750000 -0.254131
O19   O     O_3   0.333333 0.666667 0.250000 -0.254132
O20   O     O_R   0.879070 0.339940 0.805240 -0.491847
O21   O     O_R   0.460870 0.120930 0.694760 -0.491863
O22   O     O_R   0.660060 0.539130 0.805240 -0.491856
O23   O     O_R   0.879070 0.339940 0.694760 -0.491854
O24   O     O_R   0.120930 0.460870 0.305240 -0.491859
O25   O     O_R   0.539130 0.660060 0.194760 -0.491864
O26   O     O_R   0.339940 0.879070 0.305240 -0.491847

loop_
_geom_bond_atom_site_label_1
_geom_bond_atom_site_label_2
_ccdc_geom_bond_type
C36   C89   A    
C66   O9    A    
C71   C88   S    
C3    H21   S    
C56   C76   A    
C13   O26   A    
C5    C114  A    
C110  O24   A    
C43   C83   A    
C4    C115  A    
C10   C108  A    
C42   C82   A    
C44   O1    A    
C57   H2    S    
C99   O13   A    
C88   O3    A    
Cr1   O5    S    
C37   C116  A    
C18   N9    T    
C34   C113  A    
Cr2   O6    S    
C20   C92   S    
C49   H9    S    
C110  O14   A    
C33   O23   A    
Cr3   O10   S    
C37   C90   A    
C64   C68   A    
C41   H17   S    
C2    C68   S    
C3    C116  A    
C61   H33   S    
C76   C95   A    
C46   H6    S    
Cr4   O11   S    
C97   C111  A    
Cr2   O12   S    
C40   C80   A    
C28   C107  A    
C4    H22   S    
C62   C89   A    
Cr4   O24   S    
C120  H20   S    
C77   O10   A    
C22   N2    T    
C62   C70   A    
C35   C114  A    
C34   C86   A    
C55   O12   A    
C30   C83   A    
C102  C115  A    
C61   C87   A    
C67   C98   A    
C51   C91   A    
C23   N3    T    
C38   C117  A    
C35   C87   A    
C16   N7    T    
C26   C34   A    
C63   C69   A    
C23   C95   S    
Cr4   O19   S    
C42   H16   S    
C62   H32   S    
C29   C108  A    
Cr5   O16   S    
Cr5   O19   S    
C15   C104  S    
C52   C79   A    
C53   C72   A    
C56   H3    S    
C19   C93   S    
Cr3   O23   S    
C52   H35   S    
C46   C85   A    
C59   C67   A    
C61   C71   A    
C71   C101  A    
C25   C94   S    
C33   O6    A    
C101  C114  A    
C55   C74   S    
C7    C118  A    
Cr1   O18   S    
C11   C120  A    
C26   C105  A    
Cr4   O15   S    
C66   O20   A    
C50   C90   A    
C75   C96   A    
C14   C98   S    
C74   C97   A    
C69   C103  A    
C9    C109  A    
C54   H4    S    
C39   H13   S    
C94   C107  A    
C98   C112  A    
C30   C109  A    
C1    C78   S    
C2    O25   A    
C47   C86   A    
C53   C80   A    
C19   N10   T    
C65   C100  A    
C99   O4    A    
C52   C73   A    
C50   H8    S    
C117  C120  A    
Cr2   O22   S    
C60   C86   A    
C17   N8    T    
C43   C49   A    
C27   C106  A    
C66   C73   S    
C38   C91   A    
C45   H14   S    
C5    H24   S    
C7    H26   S    
C47   H5    S    
C18   C101  S    
C39   C79   A    
C44   C75   S    
C40   C46   A    
C17   C102  S    
C59   C85   A    
C72   C77   S    
C2    O15   A    
C58   C84   A    
C93   C106  A    
C5    C8    A    
C21   C97   S    
C69   C110  S    
C33   C76   S    
C20   N11   T    
C28   C38   A    
C4    C9    A    
C41   C81   A    
C40   H11   S    
C1    O22   A    
C57   C83   A    
C6    C106  A    
C48   C87   A    
Cr3   O20   S    
Cr2   O18   S    
C8    H27   S    
C24   C65   S    
C42   C50   A    
C6    H25   S    
C11   H30   S    
Cr2   O9    S    
C60   C65   A    
C27   C80   A    
Cr5   O3    S    
C51   H7    S    
C16   C103  S    
C31   C35   A    
C15   N6    T    
C8    C111  A    
C45   C84   A    
C63   H31   S    
C58   H36   S    
C6    C119  A    
C70   C99   S    
C58   C74   A    
C39   C47   A    
C104  C117  A    
C13   C67   S    
C45   C48   A    
Cr6   O26   S    
C88   O11   A    
C53   H34   S    
C32   C112  A    
C27   C32   A    
C22   C96   S    
C48   H10   S    
C60   H1    S    
C100  C113  A    
C68   C104  A    
C73   C92   A    
C49   C89   A    
C10   H29   S    
C9    H28   S    
C112  C119  A    
C70   C102  A    
C56   C82   A    
Cr4   O2    S    
C41   C51   A    
C25   N4    T    
C119  H19   S    
C96   C109  A    
C118  H18   S    
C26   C79   A    
C59   H12   S    
C30   C36   A    
C64   H23   S    
Cr5   O13   S    
C57   C75   A    
Cr6   O14   S    
C103  C116  A    
Cr3   O18   S    
C28   C81   A    
C29   C82   A    
Cr3   O7    S    
C3    C10   A    
C12   N1    T    
C11   C107  A    
C1    O5    A    
Cr6   O19   S    
Cr1   O1    S    
C78   C94   A    
C32   C85   A    
C63   C90   A    
C55   O8    A    
C72   C93   A    
C7    C105  A    
Cr6   O4    S    
C24   O17   A    
C77   O21   A    
Cr6   O17   S    
C12   C100  S    
C43   H15   S    
C95   C108  A    
C31   C84   A    
C113  C118  A    
C92   C105  A    
Cr5   O25   S    
C21   N12   T    
C29   C37   A    
C31   C111  A    
C64   C91   A    
C14   N5    T    
C36   C115  A    
C44   O7    A    
Cr1   O21   S    
C54   C81   A    
C13   O16   A    
Cr1   O8    S    
C54   C78   A    
C24   O2    A    
