data_mof_unit_45230.cif
_audit_creation_date              2012-12-11T14:21:14-0500
_audit_creation_method            fapswitch 2.2
_symmetry_space_group_name_H-M    P1
_symmetry_Int_Tables_number       1
_space_group_crystal_system       triclinic
_cell_length_a                    11.532311
_cell_length_b                    11.581861
_cell_length_c                    19.498367
_cell_angle_alpha                 90.951696
_cell_angle_beta                  90.498167
_cell_angle_gamma                 60.006355
_cell_volume                      2255.23298998

loop_
_atom_site_label
_atom_site_type_symbol
_atom_type_description
_atom_site_fract_x
_atom_site_fract_y
_atom_site_fract_z
_atom_type_partial_charge
C1    C     C_R   0.640944 0.117508 0.599029 0.552056
C2    C     C_1   0.642299 0.703801 0.667893 0.013928
C3    C     C_1   0.126656 0.198193 0.859358 0.006368
C4    C     C_1   0.171265 0.170717 0.727582 -0.025353
C5    C     C_1   0.150043 0.182004 0.798901 -0.026629
C6    C     C_1   0.195087 0.161657 0.667204 0.012748
C7    C     C_1   0.677763 0.190930 0.860981 0.009840
C8    C     C_1   0.658756 0.167333 0.729001 -0.026597
C9    C     C_1   0.665123 0.180743 0.800394 -0.026596
C10   C     C_1   0.653663 0.149830 0.668467 0.008735
C11   C     C_R   0.662429 0.677428 0.190347 0.008328
C12   C     C_R   0.612970 0.745764 0.598500 0.557530
C13   C     C_R   0.533345 0.740004 0.218068 0.020528
C14   C     C_R   0.520911 0.721986 0.287775 0.025567
C15   C     C_R   0.759661 0.641228 0.303071 -0.168705
C16   C     C_R   0.775032 0.625589 0.233195 -0.146082
C17   C     C_R   0.418777 0.798544 0.175552 -0.080384
C18   C     C_R   0.299728 0.809916 0.197782 -0.121492
C19   C     C_R   0.290385 0.774062 0.264082 -0.131495
C20   C     C_R   0.398536 0.731981 0.309219 -0.065040
C21   C     C_R   0.633896 0.690058 0.331464 0.009144
C22   C     C_R   0.127440 0.208061 0.198426 -0.000415
C23   C     C_R   0.241084 0.145472 0.598059 0.556079
C24   C     C_R   0.154974 0.295986 0.237272 -0.031855
C25   C     C_R   0.133807 0.303868 0.308412 0.002300
C26   C     C_R   0.130185 0.096852 0.304118 -0.147024
C27   C     C_R   0.107088 0.114075 0.233748 -0.140300
C28   C     C_R   0.203421 0.375223 0.208803 -0.123637
C29   C     C_R   0.219060 0.466508 0.250040 -0.152508
C30   C     C_R   0.173528 0.489996 0.317836 0.224476
C31   C     C_R   0.117900 0.417769 0.344821 0.274961
C32   C     C_R   0.151869 0.187570 0.341581 0.025899
C33   C     C_R   0.652424 0.172236 0.183939 -0.004837
C34   C     C_R   0.622454 0.082595 0.393872 0.532732
C35   C     C_R   0.717390 0.037880 0.203942 -0.009347
C36   C     C_R   0.725002 0.007599 0.274388 0.004969
C37   C     C_R   0.554309 0.239575 0.296631 -0.138187
C38   C     C_R   0.566363 0.271693 0.229709 -0.153053
C39   C     C_R   0.786594 0.933867 0.155374 -0.056755
C40   C     C_R   0.889141 0.811361 0.176243 0.220526
C41   C     C_R   0.911160 0.786599 0.245652 -0.111749
C42   C     C_R   0.824655 0.878187 0.294062 -0.132509
C43   C     C_R   0.636941 0.109463 0.321261 0.005631
C44   C     C_R   0.081675 0.230997 0.928688 0.538304
C45   C     C_R   0.613893 0.739401 0.401791 0.557230
C46   C     C_R   0.683522 0.604471 0.929597 0.538927
C47   C     C_R   0.707791 0.206401 0.930378 0.538969
C48   C     C_R   0.080892 0.237798 0.126772 0.527955
C49   C     C_R   0.681800 0.616101 0.123658 0.539833
C50   C     C_R   0.703616 0.208529 0.124137 0.532984
C51   C     C_R   0.234465 0.145763 0.404495 0.562537
C52   C     C_1   0.669544 0.646615 0.860270 0.008931
C53   C     C_1   0.655401 0.683685 0.728431 -0.025591
C54   C     C_1   0.663114 0.666802 0.799786 -0.026806
Cr1   Cr    Cr6+3 0.404720 0.198220 0.499960 1.111027
Cr2   Cr    Cr6+3 0.698290 0.897110 0.500380 1.090348
Cr3   Cr    Cr6+3 0.396970 0.904720 0.499610 1.057136
Cr4   Cr    Cr6+3 0.926180 0.151990 0.028120 1.045467
Cr5   Cr    Cr6+3 0.921330 0.451820 0.027470 1.102401
Cr6   Cr    Cr6+3 0.626260 0.446870 0.028710 1.043981
H1    H     H_    0.845657 0.615584 0.334803 0.181254
H2    H     H_    0.261135 0.523032 0.228445 0.160782
H3    H     H_    0.485934 0.319700 0.330343 0.175912
H4    H     H_    0.768269 0.950610 0.100873 0.154880
H5    H     H_    0.514212 0.375439 0.215029 0.144823
H6    H     H_    0.988518 0.691494 0.261980 0.166123
H7    H     H_    0.842411 0.843303 0.345735 0.198941
H8    H     H_    0.424961 0.823607 0.122920 0.122894
H9    H     H_    0.875827 0.570532 0.212886 0.180249
H10   H     H_    0.216017 0.842724 0.162836 0.139730
H11   H     H_    0.197667 0.781660 0.280576 0.175374
H12   H     H_    0.386509 0.699171 0.358715 0.201020
H13   H     H_    0.131897 0.013404 0.329173 0.146239
H14   H     H_    0.236458 0.362156 0.156068 0.174300
H15   H     H_    0.074637 0.052741 0.207000 0.149583
O1    O     O_R   0.267740 0.231960 0.575440 -0.472308
O2    O     O_R   0.685970 0.784660 0.430010 -0.493843
O3    O     O_R   0.502530 0.767000 0.423990 -0.529903
O4    O     O_R   0.288330 0.026350 0.429250 -0.506956
O5    O     O_3   0.499990 0.000020 0.499980 -0.297678
O6    O     O_R   0.821500 0.119340 0.952830 -0.499798
O7    O     O_R   0.037130 0.162530 0.957360 -0.494943
O8    O     O_R   0.056440 0.344740 0.951340 -0.492692
O9    O     O_R   0.797900 0.560360 0.957470 -0.480752
O10   O     O_R   0.596130 0.579390 0.952730 -0.508210
O11   O     O_R   0.639060 0.321160 0.958670 -0.495321
O12   O     O_R   0.527280 0.186640 0.570530 -0.486979
O13   O     O_R   0.821240 0.124200 0.104370 -0.515395
O14   O     O_R   0.036890 0.167040 0.097840 -0.507019
O15   O     O_R   0.056180 0.349610 0.102880 -0.488260
O16   O     O_R   0.797660 0.564870 0.097950 -0.462950
O17   O     O_R   0.595880 0.584250 0.104270 -0.517265
O18   O     O_R   0.638830 0.325670 0.099150 -0.498028
O19   O     O_3   0.824590 0.350230 0.028100 -0.264699
O20   O     O_R   0.728090 0.003450 0.576380 -0.491360
O21   O     O_R   0.682970 0.789190 0.570490 -0.478477
O22   O     O_R   0.499290 0.771880 0.575530 -0.497281
O23   O     O_R   0.285330 0.030870 0.569730 -0.496031
O24   O     O_R   0.270980 0.227080 0.423890 -0.465781
O25   O     O_R   0.530280 0.182120 0.430050 -0.488131
O26   O     O_R   0.731330 0.998570 0.424830 -0.509117
Cl1   Cl    Cl    0.187483 0.608617 0.369089 -0.643248
Cl2   Cl    Cl    0.033332 0.466443 0.425056 -0.546709
Cl3   Cl    Cl    0.991924 0.690330 0.115535 -0.638396

loop_
_geom_bond_atom_site_label_1
_geom_bond_atom_site_label_2
_ccdc_geom_bond_type
C18   H10   S    
Cr2   O20   S    
C22   C48   S    
C25   C31   A    
C41   C42   A    
Cr3   O4    S    
C19   H11   S    
C35   C36   A    
C23   O1    A    
C44   O8    A    
C2    C12   S    
C53   C54   S    
C26   C32   A    
C39   H4    S    
C26   C27   A    
C29   C30   A    
C14   C21   A    
C28   C29   A    
Cr5   O8    S    
Cr2   O26   S    
C44   O7    A    
Cr4   O7    S    
C30   C31   A    
Cr3   O23   S    
C15   C16   A    
C46   C52   S    
C26   H13   S    
Cr2   O21   S    
C18   C19   A    
C1    O12   A    
C36   C42   A    
C19   C20   A    
C8    C9    S    
Cr1   O25   S    
C34   O25   A    
C45   O3    A    
Cr5   O19   S    
C50   O13   A    
C46   O10   A    
Cr6   O18   S    
C25   C32   A    
C28   H14   S    
C48   O15   A    
C13   C14   A    
Cr3   O5    S    
C49   O16   A    
C27   H15   S    
C37   H3    S    
C52   C54   T    
C21   C45   S    
Cr6   O17   S    
C51   O24   A    
C3    C44   S    
C34   O26   A    
C1    C10   S    
C47   O11   A    
C14   C20   A    
C24   C25   A    
C4    C6    T    
Cr4   O6    S    
C39   C40   A    
Cr6   O11   S    
C33   C50   S    
Cr2   O2    S    
Cr5   O15   S    
C7    C47   S    
C37   C43   A    
C35   C39   A    
C32   C51   S    
C37   C38   A    
C11   C49   S    
C40   Cl3   S    
C11   C16   A    
C38   H5    S    
C1    O20   A    
Cr3   O22   S    
C30   Cl1   S    
C17   C18   A    
C15   H1    S    
Cr5   O16   S    
Cr5   O9    S    
C12   O22   A    
C46   O9    A    
Cr1   O1    S    
C40   C41   A    
C48   O14   A    
C42   H7    S    
C22   C24   A    
C49   O17   A    
C7    C9    T    
C29   H2    S    
C17   H8    S    
Cr3   O3    S    
C12   O21   A    
C16   H9    S    
C24   C28   A    
C4    C5    S    
C3    C5    T    
C2    C53   T    
Cr4   O13   S    
Cr6   O10   S    
C50   O18   A    
C41   H6    S    
C33   C38   A    
Cr2   O5    S    
C13   C17   A    
C22   C27   A    
Cr4   O19   S    
Cr1   O5    S    
C11   C13   A    
C6    C23   S    
C33   C35   A    
C47   O6    A    
Cr1   O12   S    
Cr4   O14   S    
C51   O4    A    
C15   C21   A    
C23   O23   A    
C8    C10   T    
Cr1   O24   S    
C20   H12   S    
C36   C43   A    
C45   O2    A    
C34   C43   S    
C31   Cl2   S    
Cr6   O19   S    
