data_mof_unit_47083.cif
_audit_creation_date              2012-12-10T17:19:38-0500
_audit_creation_method            fapswitch 2.2
_symmetry_space_group_name_H-M    P1
_symmetry_Int_Tables_number       1
_space_group_crystal_system       triclinic
_cell_length_a                    10.141939
_cell_length_b                    10.842162
_cell_length_c                    11.516807
_cell_angle_alpha                 91.165085
_cell_angle_beta                  82.56504
_cell_angle_gamma                 96.57627
_cell_volume                      1247.46503333

loop_
_atom_site_label
_atom_site_type_symbol
_atom_type_description
_atom_site_fract_x
_atom_site_fract_y
_atom_site_fract_z
_atom_type_partial_charge
C1    C     C_R   0.557469 0.732398 0.492532 0.868017
C2    C     C_R   0.442221 0.267228 0.508377 0.865100
C3    C     C_R   0.501140 0.500250 0.717724 0.886831
C4    C     C_R   0.499661 0.502342 0.282266 0.874056
C5    C     C_1   0.502963 0.501484 0.838051 -0.190980
C6    C     C_1   0.498526 0.504034 0.161869 -0.213316
C7    C     C_1   0.501963 0.502882 0.940472 -0.015985
C8    C     C_1   0.499684 0.504061 0.059458 -0.004727
C9    C     C_2   0.593339 0.864463 0.478931 -0.177156
C10   C     C_2   0.405802 0.134396 0.522846 -0.186504
C11   C     C_2   0.500769 0.936875 0.523354 -0.212189
C12   C     C_2   0.502469 0.063295 0.484996 -0.207099
C13   C     C_2   0.924186 0.467270 0.532235 0.373730
C14   C     C_2   0.074709 0.468881 0.500223 0.327544
H1    H     H_    0.590519 0.103082 0.428559 0.194464
H2    H     H_    0.416281 0.897892 0.584323 0.190044
H3    H     H_    0.117371 0.623701 0.592253 0.129306
H4    H     H_    0.885148 0.452044 0.367661 0.090993
N1    N     N_2   0.842700 0.448890 0.453570 -0.211027
N2    N     N_2   0.157300 0.551110 0.546430 -0.220208
O1    O     O_R   0.431060 0.692470 0.509350 -0.617335
O2    O     O_R   0.568940 0.307530 0.490650 -0.614586
O3    O     O_R   0.651120 0.659650 0.479540 -0.598506
O4    O     O_R   0.348880 0.340350 0.520460 -0.537466
O5    O     O_R   0.389960 0.516400 0.680450 -0.622340
O6    O     O_R   0.610040 0.483600 0.319550 -0.614811
O7    O     O_R   0.610030 0.483580 0.650650 -0.534607
O8    O     O_R   0.389970 0.516420 0.349350 -0.585564
Zn1   Zn    Zn3+2 0.353060 0.521910 0.519900 0.968956
Zn2   Zn    Zn3+2 0.646940 0.478090 0.480100 0.978107
C15   C     C_R   0.273106 0.085565 0.587005 0.153098
C16   C     C_R   0.222238 0.142704 0.691510 -0.101760
C17   C     C_R   0.097649 0.097520 0.751118 -0.169381
C18   C     C_R   0.023199 0.994387 0.707751 -0.119157
C19   C     C_R   0.072723 0.936809 0.604210 -0.143276
C20   C     C_R   0.195934 0.983248 0.542957 -0.172372
H5    H     H_    0.279363 0.221600 0.727471 0.116860
H6    H     H_    0.059098 0.142182 0.831296 0.125824
H7    H     H_    0.927005 0.959241 0.754219 0.131007
H8    H     H_    0.014685 0.857221 0.570393 0.147960
H9    H     H_    0.231373 0.939212 0.461394 0.145476
C21   C     C_R   0.721037 0.910874 0.407458 0.133177
C22   C     C_R   0.811695 0.999821 0.454007 -0.155766
C23   C     C_R   0.934241 0.039552 0.388847 -0.154866
C24   C     C_R   0.967827 0.990436 0.277116 -0.134403
C25   C     C_R   0.878090 0.901800 0.230161 -0.144478
C26   C     C_R   0.755101 0.861723 0.295105 -0.121085
H10   H     H_    0.788096 0.037169 0.541234 0.144720
H11   H     H_    0.003440 0.106862 0.426704 0.179434
H12   H     H_    0.063451 0.020115 0.226991 0.130490
H13   H     H_    0.904134 0.863641 0.143752 0.130223
H14   H     H_    0.686593 0.792430 0.258032 0.116755
O9    O     O_3   0.125011 0.363415 0.450227 -0.572960
C27   C     C_3   0.107248 0.350692 0.330869 0.101300
H15   H     H_    0.122930 0.441585 0.284566 0.130436
H16   H     H_    0.005978 0.303204 0.322882 0.123411
C28   C     C_3   0.206073 0.266712 0.269845 -0.794566
H17   H     H_    0.203531 0.180185 0.320100 0.237940
H18   H     H_    0.180975 0.242848 0.180470 0.191549
H19   H     H_    0.309390 0.312820 0.262035 0.248702
O10   O     O_3   0.870877 0.488103 0.647159 -0.581398
C29   C     C_3   0.922116 0.410774 0.723946 0.100616
H20   H     H_    0.023183 0.451427 0.741915 0.142544
H21   H     H_    0.927753 0.314792 0.688046 0.145718
C30   C     C_3   0.830717 0.400765 0.839692 -0.807976
H22   H     H_    0.730730 0.353945 0.825809 0.257750
H23   H     H_    0.873778 0.345221 0.902339 0.195301
H24   H     H_    0.819807 0.494657 0.877528 0.260410

loop_
_geom_bond_atom_site_label_1
_geom_bond_atom_site_label_2
_ccdc_geom_bond_type
C23   H11   S    
C2    O2    A    
C4    O6    A    
C11   C12   S    
C1    O1    A    
C26   H14   S    
C13   C14   S    
C11   H2    S    
C27   H15   S    
C29   H21   S    
C19   C20   A    
C12   H1    S    
C9    C21   S    
C22   C23   A    
C30   H24   S    
C16   C17   A    
H3    N2    S    
C3    O7    A    
C17   C18   A    
C20   H9    S    
C13   O10   S    
C7    C8    S    
C25   C26   A    
C24   C25   A    
O7    Zn2   S    
O5    Zn1   S    
C9    C11   D    
C28   H17   S    
C29   H20   S    
C10   C12   D    
C24   H12   S    
C10   C15   S    
O8    Zn1   S    
C4    O8    A    
C1    O3    A    
C21   C26   A    
C30   H22   S    
C2    O4    A    
O10   C29   S    
C27   H16   S    
C28   H18   S    
C16   H5    S    
C21   C22   A    
C13   N1    D    
C19   H8    S    
C18   H7    S    
C2    C10   S    
O3    Zn2   S    
C14   N2    D    
C3    O5    A    
C14   O9    S    
C1    C9    S    
C23   C24   A    
N2    Zn1   S    
C4    C6    S    
C18   C19   A    
C22   H10   S    
C5    C7    T    
C15   C20   A    
H4    N1    S    
C28   H19   S    
C6    C8    T    
O2    Zn2   S    
C29   C30   S    
C30   H23   S    
O4    Zn1   S    
N1    Zn2   S    
O1    Zn1   S    
C25   H13   S    
C27   C28   S    
C15   C16   A    
C17   H6    S    
O9    C27   S    
C3    C5    S    
O6    Zn2   S    
