data_mof_unit_50659.cif
_audit_creation_date              2012-12-10T18:00:48-0500
_audit_creation_method            fapswitch 2.2
_symmetry_space_group_name_H-M    P1
_symmetry_Int_Tables_number       1
_space_group_crystal_system       triclinic
_cell_length_a                    15.841268
_cell_length_b                    10.812458
_cell_length_c                    9.614951
_cell_angle_alpha                 89.422773
_cell_angle_beta                  88.092367
_cell_angle_gamma                 91.647957
_cell_volume                      1645.18427661

loop_
_atom_site_label
_atom_site_type_symbol
_atom_type_description
_atom_site_fract_x
_atom_site_fract_y
_atom_site_fract_z
_atom_type_partial_charge
C1    C     C_R   0.499400 0.262375 0.500458 0.772542
C2    C     C_R   0.499562 0.737616 0.499715 0.770782
C3    C     C_R   0.479829 0.936444 0.378722 -0.194541
C4    C     C_R   0.516173 0.063525 0.622745 -0.196376
C5    C     C_R   0.498853 0.871609 0.499857 -0.016929
C6    C     C_R   0.498446 0.128373 0.500953 -0.013882
C7    C     C_R   0.438727 0.437608 0.080534 -0.073474
C8    C     C_R   0.559773 0.564892 0.918496 -0.096794
C9    C     C_R   0.438767 0.434548 0.932899 0.256927
C10   C     C_R   0.563609 0.561460 0.065664 0.248471
C11   C     C_R   0.339975 0.499717 0.501940 0.823966
C12   C     C_R   0.660031 0.500244 0.498089 0.821843
C13   C     C_3   0.969313 0.386687 0.528850 0.218401
C14   C     C_3   0.030749 0.613297 0.471934 0.219085
C15   C     C_3   0.030150 0.420656 0.404622 -0.201080
C16   C     C_3   0.969906 0.579331 0.596161 -0.200434
C17   C     C_1   0.250195 0.499677 0.505896 -0.184954
C18   C     C_1   0.749834 0.500308 0.494275 -0.197665
C19   C     C_3   0.023158 0.464693 0.628469 -0.202098
C20   C     C_3   0.976916 0.535295 0.372314 -0.202020
C21   C     C_3   0.082925 0.499951 0.503903 0.110239
C22   C     C_3   0.917126 0.500034 0.496863 0.110213
C23   C     C_1   0.174589 0.499735 0.506359 -0.074849
C24   C     C_1   0.825448 0.500252 0.494120 -0.073113
C25   C     C_R   0.480022 0.064400 0.379039 -0.181609
C26   C     C_R   0.516612 0.935589 0.622102 -0.182336
Cu1   Cu    Cu3+1 0.500000 0.500020 0.640660 0.930587
Cu2   Cu    Cu3+1 0.500000 0.499980 0.359340 0.937657
H1    H     H_    0.055904 0.355114 0.327014 0.136445
H2    H     H_    0.944162 0.644882 0.673764 0.135606
H3    H     H_    0.465122 0.112996 0.284280 0.145369
H4    H     H_    0.531459 0.887042 0.716916 0.149369
H5    H     H_    0.464039 0.888560 0.284309 0.145530
H6    H     H_    0.530621 0.111454 0.717844 0.148979
H7    H     H_    0.390623 0.386291 0.141531 0.142505
H8    H     H_    0.606985 0.616018 0.855460 0.141165
N1    N     N_R   0.500020 0.500030 0.852070 -0.187619
N2    N     N_R   0.499980 0.499970 0.147930 -0.179044
O1    O     O_R   0.500000 0.319660 0.618740 -0.605957
O2    O     O_R   0.500000 0.680340 0.381260 -0.574309
O3    O     O_R   0.499990 0.319630 0.381170 -0.584412
O4    O     O_R   0.500010 0.680370 0.618830 -0.582379
O5    O     O_R   0.379080 0.500000 0.618760 -0.576748
O6    O     O_R   0.620920 0.500000 0.381240 -0.578670
O7    O     O_R   0.379080 0.499970 0.381190 -0.579368
O8    O     O_R   0.620920 0.500030 0.618810 -0.577820
C27   C     C_3   0.931796 0.257452 0.561052 -0.409216
C28   C     C_3   0.000655 0.165389 0.588398 -0.846613
H9    H     H_    0.043607 0.158091 0.495357 0.249309
H10   H     H_    0.037918 0.194902 0.678728 0.250294
H11   H     H_    0.971246 0.072794 0.611986 0.243822
H12   H     H_    0.888612 0.261789 0.654177 0.202554
H13   H     H_    0.894665 0.225688 0.471471 0.202842
C29   C     C_3   0.068316 0.742512 0.439769 -0.408816
C30   C     C_3   0.999497 0.834682 0.412604 -0.846383
H14   H     H_    0.962170 0.805275 0.322306 0.250787
H15   H     H_    0.956599 0.841976 0.505712 0.248975
H16   H     H_    0.028947 0.927256 0.389048 0.243925
H17   H     H_    0.105514 0.774177 0.529316 0.203148
H18   H     H_    0.111449 0.738179 0.346580 0.203080
H19   H     H_    0.956910 0.564856 0.267829 0.135801
H20   H     H_    0.043244 0.435154 0.732923 0.136607
C31   C     C_3   0.369906 0.353479 0.872957 -0.375595
C32   C     C_3   0.283543 0.412478 0.888967 -0.843102
H21   H     H_    0.285530 0.507488 0.843896 0.273165
H22   H     H_    0.235682 0.355771 0.834281 0.237896
H23   H     H_    0.263587 0.417281 0.000555 0.233782
H24   H     H_    0.382028 0.329469 0.764104 0.254513
H25   H     H_    0.367074 0.262882 0.929001 0.155924
C33   C     C_3   0.645904 0.617810 0.118455 -0.352677
C34   C     C_3   0.637334 0.742937 0.189200 -0.742451
H26   H     H_    0.576880 0.785931 0.164050 0.241404
H27   H     H_    0.643590 0.732989 0.303073 0.251718
H28   H     H_    0.689393 0.807517 0.152401 0.204269
H29   H     H_    0.682259 0.550920 0.177049 0.213771
H30   H     H_    0.691266 0.635745 0.029126 0.140069

loop_
_geom_bond_atom_site_label_1
_geom_bond_atom_site_label_2
_ccdc_geom_bond_type
C25   H3    S    
C30   H14   S    
C26   H4    S    
C29   H18   S    
C17   C23   T    
C18   C24   T    
C14   C21   S    
C19   C21   S    
Cu1   N1    S    
C6    C25   A    
Cu2   O2    S    
C19   H20   S    
C16   H2    S    
Cu2   O3    S    
C8    H8    S    
C20   H19   S    
C29   C30   S    
C28   H11   S    
C31   H25   S    
Cu1   O1    S    
C11   O5    A    
C33   C34   S    
C27   H13   S    
C28   H10   S    
C15   H1    S    
C29   H17   S    
C21   C23   S    
C15   C20   S    
C4    H6    S    
Cu2   O7    S    
C13   C19   S    
C1    C6    S    
C32   H23   S    
C14   C20   S    
C3    C25   A    
C12   O8    A    
C34   H27   S    
Cu2   O6    S    
C31   C32   S    
C32   H22   S    
Cu1   O5    S    
C27   C28   S    
Cu2   N2    S    
C9    N1    A    
C10   C33   S    
Cu1   O8    S    
C4    C6    A    
C28   H9    S    
C14   C29   S    
C20   C22   S    
C13   C15   S    
C33   H30   S    
C14   C16   S    
C11   O7    A    
C2    C5    S    
C8    N1    A    
Cu1   Cu2   S    
C13   C27   S    
C1    O3    A    
C7    C9    A    
C31   H24   S    
C11   C17   S    
C16   C22   S    
C9    C31   S    
C7    H7    S    
C3    C5    A    
C34   H28   S    
C4    C26   A    
C27   H12   S    
C10   N2    A    
C32   H21   S    
C30   H15   S    
C34   H26   S    
C12   O6    A    
Cu1   O4    S    
C2    O4    A    
C16   C19   S    
C7    N2    A    
C13   C22   S    
C22   C24   S    
C1    O1    A    
C5    C26   A    
C2    O2    A    
C15   C21   S    
C8    C10   A    
C30   H16   S    
C12   C18   S    
C33   H29   S    
C3    H5    S    
