data_mof_unit_49956.cif
_audit_creation_date              2012-12-11T16:24:19-0500
_audit_creation_method            fapswitch 2.2
_symmetry_space_group_name_H-M    P1
_symmetry_Int_Tables_number       1
_space_group_crystal_system       triclinic
_cell_length_a                    14.702559
_cell_length_b                    14.741259
_cell_length_c                    33.177915
_cell_angle_alpha                 95.819863
_cell_angle_beta                  96.007417
_cell_angle_gamma                 61.169218
_cell_volume                      6254.16599966

loop_
_atom_site_label
_atom_site_type_symbol
_atom_type_description
_atom_site_fract_x
_atom_site_fract_y
_atom_site_fract_z
_atom_type_partial_charge
C1    C     C_R   0.390555 0.700791 0.445819 0.559427
C2    C     C_1   0.331808 0.364720 0.225759 0.045174
C3    C     C_3   0.106643 0.787460 0.366331 -0.303051
C4    C     C_2   0.527697 0.786544 0.422073 0.594032
C5    C     C_3   0.053470 0.923032 0.078995 -0.241191
C6    C     C_2   0.515906 0.220511 0.183844 0.586593
C7    C     C_2   0.188156 0.809807 0.155816 0.609829
C8    C     C_2   0.492508 0.829591 0.065261 0.631428
C9    C     C_2   0.549272 0.747408 0.147329 0.573332
C10   C     C_2   0.193422 0.529783 0.578898 0.624231
C11   C     C_3   0.620600 0.166253 0.600090 -0.238772
C12   C     C_3   0.216661 0.616799 0.683199 -0.237058
C13   C     C_1   0.336294 0.369028 0.262221 0.025300
C14   C     C_2   0.482057 0.180016 0.670461 0.597313
C15   C     C_2   0.484110 0.225459 0.929041 0.631855
C16   C     C_2   0.509816 0.265109 0.847236 0.642658
C17   C     C_3   0.021339 0.061846 0.786861 -0.288140
C18   C     C_2   0.580285 0.449141 0.697412 0.591185
C19   C     C_3   0.945464 0.401288 0.590105 -0.279832
C20   C     C_3   0.992882 0.360506 0.704879 -0.283889
C21   C     C_2   0.432649 0.964708 0.891179 0.648842
C22   C     C_2   0.450226 0.912840 0.805301 0.622749
C23   C     C_3   0.638850 0.683418 0.687420 -0.279791
C24   C     C_R   0.406145 0.386731 0.433668 0.556158
C25   C     C_3   0.172238 0.927876 0.560129 -0.289499
C26   C     C_3   0.272032 0.654887 0.804548 -0.255717
C27   C     C_2   0.192991 0.808853 0.891847 0.620353
C28   C     C_3   0.117029 0.004114 0.676681 -0.301537
C29   C     C_3   0.145228 0.462188 0.417135 -0.252739
C30   C     C_3   0.081705 0.479634 0.198522 -0.252129
C31   C     C_3   0.038947 0.484417 0.095759 -0.244492
C32   C     C_2   0.159969 0.511668 0.309603 0.546337
C33   C     C_R   0.300022 0.306137 0.098923 0.019948
C34   C     C_R   0.753480 0.374608 0.409004 -0.008060
C35   C     C_R   0.779719 0.439371 0.390526 -0.135605
C36   C     C_R   0.806382 0.418207 0.350374 -0.142865
C37   C     C_R   0.807750 0.331609 0.327626 0.052797
C38   C     C_R   0.792490 0.259802 0.347541 0.136915
C39   C     C_R   0.764226 0.282812 0.387882 -0.122137
C40   C     C_R   0.344617 0.369766 0.305771 -0.021695
C41   C     C_R   0.816365 0.323265 0.201150 0.353638
C42   C     C_R   0.815594 0.324359 0.283061 0.355802
C43   C     C_R   0.832729 0.398673 0.140582 -0.108559
C44   C     C_R   0.700216 0.410333 0.447207 0.546920
C45   C     C_R   0.863778 0.385720 0.101456 -0.146408
C46   C     C_R   0.860267 0.222501 0.091260 0.128987
C47   C     C_R   0.831311 0.234661 0.131422 -0.089823
C48   C     C_R   0.824444 0.319446 0.157038 0.018153
C49   C     C_R   0.890447 0.292109 0.078309 0.040433
C50   C     C_R   0.372070 0.753560 0.407109 0.000863
C51   C     C_R   0.437986 0.297196 0.324116 -0.120603
C52   C     C_R   0.286902 0.764610 0.379395 0.121894
C53   C     C_R   0.294935 0.768486 0.337696 -0.097170
C54   C     C_R   0.379270 0.772724 0.323889 -0.022871
C55   C     C_R   0.453128 0.780469 0.351965 -0.131245
C56   C     C_R   0.392622 0.702562 0.560863 0.548283
C57   C     C_R   0.450127 0.772255 0.393569 0.017581
C58   C     C_R   0.381650 0.786550 0.198729 0.383813
C59   C     C_R   0.386423 0.773679 0.280019 0.341394
C60   C     C_R   0.265065 0.823208 0.134973 0.066114
C61   C     C_R   0.241464 0.852536 0.094608 0.106781
C62   C     C_R   0.453052 0.296812 0.366050 -0.158421
C63   C     C_R   0.411194 0.841727 0.092153 -0.070485
C64   C     C_R   0.438713 0.803425 0.131848 -0.005625
C65   C     C_R   0.361340 0.806301 0.154851 -0.054820
C66   C     C_R   0.306531 0.880278 0.076147 -0.031454
C67   C     C_R   0.369092 0.368424 0.585590 -0.044746
C68   C     C_R   0.406199 0.387984 0.548851 0.555283
C69   C     C_R   0.279849 0.449738 0.603749 0.045994
C70   C     C_R   0.270456 0.451767 0.645625 0.091182
C71   C     C_R   0.340974 0.366046 0.667844 -0.004150
C72   C     C_R   0.417756 0.276337 0.648285 0.065958
C73   C     C_R   0.412863 0.277296 0.161488 0.050289
C74   C     C_R   0.433412 0.277994 0.607257 0.095470
C75   C     C_R   0.320061 0.360127 0.791254 0.358100
C76   C     C_R   0.330484 0.368298 0.711179 0.374134
C77   C     C_R   0.215738 0.389570 0.848217 -0.144838
C78   C     C_R   0.203723 0.368913 0.886334 -0.147060
C79   C     C_R   0.392100 0.279575 0.900348 0.059309
C80   C     C_R   0.702435 0.412954 0.562177 0.572788
C81   C     C_R   0.404373 0.300170 0.860923 0.049183
C82   C     C_R   0.314774 0.351730 0.834434 -0.011277
C83   C     C_R   0.290674 0.308698 0.911688 -0.001549
C84   C     C_R   0.399411 0.253671 0.119563 0.076353
C85   C     C_R   0.733256 0.392110 0.604827 0.004340
C86   C     C_R   0.836871 0.349315 0.620561 0.123503
C87   C     C_R   0.858815 0.335070 0.662759 0.133449
C88   C     C_R   0.775828 0.364923 0.688109 0.000546
C89   C     C_R   0.671487 0.410220 0.671953 0.005666
C90   C     C_R   0.652392 0.421530 0.630223 -0.191280
C91   C     C_R   0.890964 0.213020 0.822366 0.149203
C92   C     C_R   0.375090 0.369886 0.390774 0.027513
C93   C     C_R   0.922565 0.199871 0.863582 -0.085304
C94   C     C_R   0.854175 0.385617 0.876212 -0.128416
C95   C     C_R   0.222815 0.397398 0.117975 0.128915
C96   C     C_R   0.820291 0.399727 0.835426 -0.125127
C97   C     C_R   0.840723 0.313970 0.808325 0.037527
C98   C     C_1   0.817672 0.330585 0.765926 0.025361
C99   C     C_1   0.799117 0.345493 0.730436 0.068328
C100  C     C_R   0.907828 0.285403 0.890397 -0.013506
C101  C     C_R   0.374443 0.755729 0.601585 -0.013086
C102  C     C_R   0.272579 0.816129 0.614863 0.175495
C103  C     C_R   0.258657 0.837643 0.656820 0.123455
C104  C     C_R   0.276245 0.437982 0.372587 0.122619
C105  C     C_R   0.346354 0.800709 0.684683 0.032203
C106  C     C_R   0.233753 0.417955 0.160040 0.127421
C107  C     C_R   0.447974 0.750149 0.671295 0.146533
C108  C     C_R   0.460637 0.728564 0.629543 -0.138722
C109  C     C_R   0.378347 0.893890 0.827507 0.013234
C110  C     C_R   0.369419 0.918737 0.869600 -0.017697
C111  C     C_R   0.250653 0.845421 0.869420 0.050496
C112  C     C_R   0.260002 0.820978 0.827304 0.092015
C113  C     C_R   0.319140 0.850482 0.806419 -0.036040
C114  C     C_1   0.324544 0.830837 0.763280 0.008806
C115  C     C_1   0.332588 0.816948 0.727374 0.011397
C116  C     C_R   0.261505 0.438962 0.329592 0.020507
C117  C     C_R   0.326593 0.353742 0.182054 -0.029687
C118  C     C_R   0.297776 0.903145 0.890051 -0.066393
C119  C     C_R   0.959097 0.266362 0.044401 0.545202
C120  C     C_R   0.274843 0.262308 0.059200 0.583499
C121  C     C_R   0.261777 0.954230 0.042502 0.573986
C122  C     C_R   0.962081 0.267813 0.930942 0.539529
C123  C     C_R   0.271839 0.265519 0.946129 0.575091
C124  C     C_R   0.258180 0.962264 0.929390 0.581778
C125  C     C_3   0.523401 0.073213 0.104108 -0.245565
C126  C     C_3   0.908037 0.084061 0.324959 -0.275835
C127  C     C_3   0.783108 0.176408 0.030072 -0.258076
Cr1   Cr    Cr6+3 0.576280 0.580550 0.506370 1.051344
Cr2   Cr    Cr6+3 0.346780 0.572400 0.496520 1.086230
Cr3   Cr    Cr6+3 0.576960 0.347070 0.497150 1.005514
Cr4   Cr    Cr6+3 0.087320 0.083240 0.984860 1.043318
Cr5   Cr    Cr6+3 0.087720 0.316210 0.996740 1.029476
Cr6   Cr    Cr6+3 0.317350 0.090340 0.995890 1.115449
H1    H     H_    0.746738 0.230525 0.402130 0.122641
H2    H     H_    0.146782 0.431172 0.828477 0.137610
H3    H     H_    0.963858 0.121930 0.874083 0.160120
H4    H     H_    0.572884 0.456471 0.617138 0.155006
H5    H     H_    0.782026 0.477402 0.824654 0.144125
H6    H     H_    0.842099 0.452628 0.896288 0.155340
H7    H     H_    0.529070 0.243330 0.378991 0.142459
H8    H     H_    0.537914 0.682849 0.618815 0.141678
H9    H     H_    0.773203 0.510213 0.406180 0.173570
H10   H     H_    0.544023 0.200816 0.096995 0.292735
H11   H     H_    0.569257 0.052489 0.133606 0.163101
H12   H     H_    0.872981 0.447038 0.090400 0.141817
H13   H     H_    0.574659 0.024778 0.079588 0.186274
H14   H     H_    0.457467 0.056100 0.103621 0.167263
H15   H     H_    0.754079 0.141167 0.337107 0.249505
H16   H     H_    0.943360 0.060353 0.355959 0.125195
H17   H     H_    0.955219 0.109733 0.309991 0.177152
H18   H     H_    0.909105 0.015960 0.306866 0.164923
H19   H     H_    0.851848 0.086305 0.079191 0.234392
H20   H     H_    0.702810 0.220408 0.040513 0.171355
H21   H     H_    0.789683 0.108184 0.010396 0.142485
H22   H     H_    0.797689 0.226256 0.011610 0.170836
H23   H     H_    0.820028 0.473665 0.336553 0.167306
H24   H     H_    0.173635 0.815770 0.421122 0.264206
H25   H     H_    0.044194 0.789922 0.383301 0.150165
H26   H     H_    0.129085 0.721954 0.343156 0.192244
H27   H     H_    0.075651 0.862013 0.351610 0.135837
H28   H     H_    0.558823 0.841472 0.477031 0.335087
H29   H     H_    0.171153 0.816072 0.041726 0.277967
H30   H     H_    0.013859 0.959873 0.050199 0.173638
H31   H     H_    0.052276 0.983724 0.102125 0.162180
H32   H     H_    0.009895 0.887022 0.089649 0.165960
H33   H     H_    0.670153 0.171154 0.186387 0.356362
H34   H     H_    0.821110 0.468437 0.158663 0.160871
H35   H     H_    0.105766 0.733507 0.157118 0.339291
H36   H     H_    0.573525 0.872827 0.108890 0.296742
H37   H     H_    0.660521 0.738861 0.190199 0.346954
H38   H     H_    0.089983 0.680680 0.572451 0.333625
H39   H     H_    0.500001 0.168591 0.558463 0.272081
H40   H     H_    0.657535 0.173172 0.573867 0.152607
H41   H     H_    0.665847 0.085764 0.610012 0.164853
H42   H     H_    0.624192 0.220299 0.625396 0.159420
H43   H     H_    0.149473 0.521497 0.684318 0.247613
H44   H     H_    0.273010 0.586469 0.709731 0.149372
H45   H     H_    0.817057 0.176672 0.142834 0.139371
H46   H     H_    0.146037 0.686786 0.693620 0.136745
H47   H     H_    0.251897 0.639637 0.660794 0.209861
H48   H     H_    0.569838 0.114113 0.720847 0.357278
H49   H     H_    0.630202 0.108571 0.937952 0.332304
H50   H     H_    0.646224 0.267790 0.857500 0.351853
H51   H     H_    0.863441 0.137521 0.769730 0.268571
H52   H     H_    0.031686 0.992608 0.767022 0.148467
H53   H     H_    0.070836 0.034706 0.815330 0.166248
H54   H     H_    0.047041 0.107610 0.770965 0.145448
H55   H     H_    0.521616 0.497537 0.752611 0.347979
H56   H     H_    0.234915 0.770209 0.315470 0.142959
H57   H     H_    0.980259 0.248986 0.597256 0.241698
H58   H     H_    0.981202 0.416520 0.619368 0.150810
H59   H     H_    0.875967 0.474156 0.580908 0.176526
H60   H     H_    0.002639 0.375654 0.566526 0.161388
H61   H     H_    0.020991 0.235850 0.662496 0.246640
H62   H     H_    0.051267 0.370304 0.689762 0.153723
H63   H     H_    0.028188 0.326611 0.734563 0.172626
H64   H     H_    0.925051 0.438362 0.710440 0.143418
H65   H     H_    0.540877 0.953628 0.935909 0.351727
H66   H     H_    0.469095 0.977620 0.758266 0.362700
H67   H     H_    0.514430 0.790983 0.341259 0.172301
H68   H     H_    0.532624 0.682587 0.724962 0.278909
H69   H     H_    0.692951 0.675492 0.714447 0.161041
H70   H     H_    0.638606 0.740774 0.668066 0.169055
H71   H     H_    0.667471 0.606579 0.670670 0.135785
H72   H     H_    0.115597 0.864474 0.597603 0.285820
H73   H     H_    0.104888 0.944727 0.537908 0.139579
H74   H     H_    0.242496 0.900898 0.542926 0.163192
H75   H     H_    0.157917 0.000487 0.578322 0.130448
H76   H     H_    0.174328 0.794075 0.778160 0.240118
H77   H     H_    0.340840 0.630088 0.786639 0.139235
H78   H     H_    0.125421 0.393610 0.894584 0.151547
H79   H     H_    0.224816 0.618921 0.789821 0.152142
H80   H     H_    0.298408 0.626972 0.835672 0.185601
H81   H     H_    0.186544 0.747634 0.942520 0.337710
H82   H     H_    0.145066 0.862432 0.695180 0.239108
H83   H     H_    0.163986 0.022010 0.701468 0.168828
H84   H     H_    0.035008 0.041818 0.685077 0.149506
H85   H     H_    0.119319 0.036633 0.648310 0.154022
H86   H     H_    0.142589 0.577932 0.385271 0.273206
H87   H     H_    0.087399 0.521426 0.437643 0.161745
H88   H     H_    0.104556 0.432004 0.394028 0.169735
H89   H     H_    0.501143 0.242533 0.305853 0.174865
H90   H     H_    0.203533 0.397879 0.435625 0.156270
H91   H     H_    0.175341 0.549193 0.198933 0.290320
H92   H     H_    0.121748 0.433226 0.225327 0.184905
H93   H     H_    0.053446 0.434921 0.176811 0.134742
H94   H     H_    0.013457 0.552558 0.208642 0.188442
H95   H     H_    0.140810 0.544707 0.096764 0.287527
H96   H     H_    0.994408 0.546804 0.118646 0.147633
H97   H     H_    0.044711 0.410137 0.103412 0.157625
H98   H     H_    0.996135 0.505934 0.065715 0.173547
H99   H     H_    0.221696 0.580841 0.280315 0.301943
N1    N     N_R   0.836012 0.391618 0.225978 -0.225526
N2    N     N_R   0.409386 0.842243 0.265193 -0.199342
N3    N     N_R   0.406067 0.849176 0.225269 -0.148535
N4    N     N_R   0.384641 0.390999 0.778232 -0.211626
N5    N     N_2   0.485729 0.181102 0.097298 -0.481258
N6    N     N_2   0.801846 0.166297 0.327112 -0.489317
N7    N     N_2   0.857923 0.141539 0.064606 -0.530348
N8    N     N_2   0.195026 0.771969 0.394116 -0.492109
N9    N     N_2   0.158359 0.843597 0.071573 -0.470018
N10   N     N_2   0.514454 0.188032 0.588279 -0.472162
N11   N     N_2   0.188336 0.539566 0.665064 -0.483623
N12   N     N_R   0.389898 0.394782 0.738711 -0.155948
N13   N     N_2   0.912936 0.124105 0.795467 -0.497256
N14   N     N_2   0.917098 0.321348 0.593770 -0.528324
N15   N     N_2   0.963387 0.290956 0.680014 -0.530679
N16   N     N_2   0.535481 0.718601 0.700413 -0.487674
N17   N     N_2   0.184535 0.849286 0.586271 -0.471247
N18   N     N_2   0.209541 0.766616 0.806085 -0.477777
N19   N     N_2   0.156173 0.893277 0.670767 -0.530202
N20   N     N_2   0.194768 0.508692 0.397575 -0.481352
N21   N     N_2   0.151093 0.504377 0.179737 -0.508850
N22   N     N_2   0.141141 0.474216 0.094013 -0.480825
N23   N     N_R   0.265070 0.338757 0.724131 -0.251862
N24   N     N_R   0.259718 0.335138 0.763579 -0.220445
N25   N     N_R   0.835310 0.392369 0.265999 -0.224135
N26   N     N_R   0.795525 0.256109 0.258176 -0.170216
N27   N     N_R   0.796900 0.254821 0.218036 -0.223353
N28   N     N_R   0.361891 0.715831 0.213668 -0.183975
N29   N     N_R   0.363741 0.709862 0.253533 -0.215275
O1    O     O_R   0.679450 0.499830 0.463150 -0.499865
O2    O     O_R   0.340240 0.172500 0.045430 -0.483360
O3    O     O_R   0.309670 0.000990 0.032050 -0.480092
O4    O     O_R   0.480650 0.664000 0.464630 -0.462976
O5    O     O_R   0.168330 0.982130 0.939200 -0.493657
O6    O     O_R   0.000140 0.178170 0.944610 -0.507660
O7    O     O_R   0.983010 0.336750 0.948660 -0.510769
O8    O     O_R   0.181800 0.312190 0.959860 -0.509878
O9    O     O_R   0.338500 0.175680 0.956950 -0.465732
O10   O     O_R   0.308050 0.003930 0.950020 -0.458335
O11   O     O_3   0.164130 0.163270 0.992500 -0.269209
O12   O     O_R   0.356040 0.477400 0.534170 -0.467495
O13   O     O_R   0.323930 0.675950 0.455370 -0.496208
O14   O     O_R   0.354700 0.475360 0.451930 -0.452155
O15   O     O_R   0.494470 0.320860 0.448390 -0.529418
O16   O     O_R   0.662580 0.357570 0.460050 -0.505395
O17   O     O_R   0.680900 0.502040 0.551870 -0.517849
O18   O     O_R   0.481990 0.666040 0.546870 -0.509558
O19   O     O_R   0.325370 0.678160 0.544080 -0.465922
O20   O     O_2   0.615185 0.758234 0.411574 -0.527360
O21   O     O_R   0.499582 0.835740 0.460510 -0.689606
O22   O     O_2   0.523325 0.178771 0.214944 -0.512537
O23   O     O_R   0.495910 0.323070 0.537100 -0.518312
O24   O     O_R   0.604576 0.214247 0.169171 -0.705006
O25   O     O_2   0.150550 0.864104 0.186303 -0.511608
O26   O     O_R   0.158590 0.735392 0.140350 -0.675650
O27   O     O_2   0.486106 0.803922 0.029338 -0.417135
O28   O     O_R   0.577742 0.843775 0.079823 -0.662803
O29   O     O_2   0.610544 0.669581 0.128451 -0.484856
O30   O     O_R   0.583612 0.783863 0.182999 -0.673181
O31   O     O_2   0.162556 0.503418 0.546484 -0.541966
O32   O     O_R   0.147240 0.634483 0.592290 -0.670276
O33   O     O_2   0.494820 0.096350 0.654713 -0.496812
O34   O     O_R   0.663920 0.359620 0.542290 -0.503770
O35   O     O_R   0.528562 0.184672 0.709036 -0.644880
O36   O     O_2   0.481187 0.256829 0.964705 -0.512473
O37   O     O_R   0.573421 0.138355 0.915485 -0.634591
O38   O     O_2   0.538624 0.207808 0.816620 -0.439024
O39   O     O_R   0.576481 0.296822 0.869748 -0.671510
O40   O     O_2   0.495118 0.466426 0.681363 -0.544994
O41   O     O_R   0.589794 0.469639 0.739276 -0.697157
O42   O     O_2   0.424837 0.044922 0.880091 -0.477390
O43   O     O_R   0.502363 0.914905 0.923666 -0.629635
O44   O     O_2   0.541741 0.877920 0.817323 -0.465736
O45   O     O_3   0.500010 0.500010 0.500010 -0.263526
O46   O     O_R   0.412927 0.970453 0.770710 -0.669046
O47   O     O_2   0.111606 0.812654 0.876962 -0.479806
O48   O     O_R   0.232513 0.769687 0.930150 -0.673206
O49   O     O_2   0.080777 0.510892 0.317028 -0.479169
O50   O     O_R   0.153157 0.581337 0.282322 -0.698184
O51   O     O_R   0.170070 0.978950 0.027680 -0.505619
O52   O     O_R   0.001760 0.175230 0.026640 -0.471082
O53   O     O_R   0.984760 0.333570 0.037150 -0.538933
O54   O     O_R   0.183410 0.309240 0.041890 -0.479195

loop_
_geom_bond_atom_site_label_1
_geom_bond_atom_site_label_2
_ccdc_geom_bond_type
C28   H83   S    
Cr6   O3    S    
C124  O10   A    
C56   O19   A    
C9    C64   S    
H48   O35   S    
C93   H3    S    
C110  C118  A    
C114  C115  T    
C16   O38   D    
C101  C102  A    
C111  C118  A    
H15   N6    S    
C56   C101  S    
C42   N25   A    
C125  H13   S    
C126  H16   S    
Cr6   O10   S    
Cr4   O6    S    
C125  H11   S    
C34   C35   A    
Cr5   O53   S    
C37   C42   S    
C76   N23   A    
C104  C116  A    
C25   N17   S    
C35   C36   A    
C31   H98   S    
C3    H25   S    
C50   C52   A    
Cr1   O4    S    
Cr1   O18   S    
C54   C59   S    
H82   N19   S    
C94   H6    S    
C50   C57   A    
C106  N21   S    
Cr2   O13   S    
C2    C117  S    
C21   C110  S    
C61   N9    S    
Cr1   O45   S    
C29   N20   S    
C58   N3    A    
C9    O30   S    
H37   O30   S    
C10   O31   D    
Cr3   O45   S    
C58   N28   A    
C21   O42   D    
C120  O54   A    
C37   C38   A    
H35   O26   S    
C17   H53   S    
C22   C109  S    
C30   N21   S    
C67   C74   A    
C118  C124  S    
C32   C116  S    
H29   N9    S    
C94   C96   A    
C93   C100  A    
C10   O32   S    
C123  O9    A    
C60   C65   A    
H86   N20   S    
C55   C57   A    
C25   H73   S    
C126  N6    S    
H50   O39   S    
C6    C73   S    
C31   N22   S    
C18   C89   S    
H33   O24   S    
Cr5   O11   S    
C85   C90   A    
C87   N15   S    
C103  N19   S    
C28   N19   S    
C7    O25   D    
C71   C76   S    
C41   N1    A    
C77   C82   A    
C121  O51   A    
C31   H96   S    
C32   O49   D    
C69   C70   A    
C88   C99   S    
C92   C104  A    
C8    O27   D    
C10   C69   S    
H99   O50   S    
C88   C89   A    
C15   O36   D    
C98   C99   T    
C26   H79   S    
C19   H58   S    
C39   H1    S    
C104  N20   S    
C30   H93   S    
C111  C112  A    
C97   C98   S    
C122  O7    A    
C85   C86   A    
C105  C107  A    
C26   H80   S    
C45   H12   S    
C5    H30   S    
C36   C37   A    
C96   H5    S    
C38   C39   A    
C23   N16   S    
C27   O47   D    
C58   C65   S    
C15   C79   S    
Cr4   O11   S    
C47   C48   A    
C4    O21   S    
C107  C108  A    
C17   N13   S    
C25   H75   S    
C3    N8    S    
H39   N10   S    
C3    H26   S    
C51   C62   A    
C24   C92   S    
C127  H21   S    
Cr1   O17   S    
C8    O28   S    
C20   N15   S    
H57   N14   S    
C34   C39   A    
C107  N16   S    
C6    O24   S    
C26   H77   S    
C74   N10   S    
C95   C106  A    
H36   O28   S    
C70   N11   S    
C38   N6    S    
H24   N8    S    
C94   C100  A    
C120  O2    A    
C119  O53   A    
C75   N4    A    
C103  C105  A    
C46   N7    S    
C43   C45   A    
C1    O13   A    
C12   H47   S    
Cr3   O15   S    
C52   C53   A    
C24   O15   A    
Cr6   O2    S    
C54   C55   A    
C11   H41   S    
C14   C72   S    
C105  C115  S    
N28   N29   A    
C75   C82   S    
C43   H34   S    
C40   C51   A    
C16   O39   S    
C23   H71   S    
Cr3   O16   S    
N26   N27   A    
C71   C72   A    
C42   N26   A    
C126  H17   S    
Cr6   O9    S    
C49   C119  S    
H19   N7    S    
C16   C81   S    
C102  C103  A    
C7    O26   S    
C52   N8    S    
C35   H9    S    
C63   C64   A    
C33   C120  S    
C62   H7    S    
C53   H56   S    
C19   N14   S    
C68   O23   A    
C87   C88   A    
C127  N7    S    
C28   H84   S    
C102  N17   S    
H51   N13   S    
H49   O37   S    
Cr2   O12   S    
C6    O22   D    
C77   C78   A    
C29   H88   S    
C46   C49   A    
C47   H45   S    
C121  O3    A    
C44   O1    A    
C9    O29   D    
C18   O40   D    
Cr2   O19   S    
C41   N27   A    
H10   N5    S    
C13   C40   S    
C26   N18   S    
C78   C83   A    
C29   H87   S    
C84   N5    S    
C17   H52   S    
C27   O48   S    
C70   C71   A    
Cr1   O1    S    
C1    C50   S    
C20   H62   S    
C123  O8    A    
C101  C108  A    
C63   C66   A    
C56   O18   A    
C80   O17   A    
C108  H8    S    
C59   N29   A    
H91   N21   S    
C23   H69   S    
C14   O35   S    
C67   C68   S    
C72   C74   A    
C125  H14   S    
C127  H22   S    
Cr5   O8    S    
C86   C87   A    
Cr6   O11   S    
C53   C54   A    
Cr3   O34   S    
C60   C61   A    
C80   C85   S    
C91   C93   A    
H55   O41   S    
Cr2   O45   S    
C80   O34   A    
C55   H67   S    
C45   C49   A    
C66   C121  S    
C91   C97   A    
C95   N22   S    
H61   N15   S    
C106  C117  A    
Cr2   O14   S    
N2    N3    A    
C7    C60   S    
C125  N5    S    
C36   H23   S    
C113  C114  S    
C29   H90   S    
C46   C47   A    
H28   O21   S    
C30   H94   S    
C112  N18   S    
Cr4   O51   S    
C11   H42   S    
C21   O43   S    
C64   C65   A    
C109  C110  A    
C79   C83   A    
C17   H54   S    
C33   C84   A    
C20   H64   S    
H72   N17   S    
C22   O46   S    
C83   C123  S    
C89   C90   A    
C25   H74   S    
C78   H78   S    
C91   N13   S    
C14   O33   D    
C127  H20   S    
C81   C82   A    
Cr4   O5    S    
C22   O44   D    
Cr5   O54   S    
C76   N12   A    
C51   H89   S    
C31   H97   S    
C18   O41   S    
H66   O46   S    
C2    C13   T    
Cr3   O23   S    
C61   C66   A    
C15   O37   S    
C62   C92   A    
C4    C57   S    
C119  O52   A    
C5    H32   S    
C43   C48   A    
C73   C84   A    
C109  C113  A    
C19   H59   S    
C12   H44   S    
C86   N14   S    
H68   N16   S    
C30   H92   S    
C33   C95   A    
C112  C113  A    
C122  O6    A    
H38   O32   S    
C11   H40   S    
C73   C117  A    
C68   O12   A    
C5    H31   S    
C34   C44   S    
C75   N24   A    
C79   C81   A    
N1    N25   A    
H65   O43   S    
C23   H70   S    
C67   C69   A    
Cr5   O7    S    
C126  H18   S    
C44   O16   A    
C12   N11   S    
C96   C97   A    
C4    O20   D    
H95   N22   S    
C19   H60   S    
H43   N11   S    
C3    H27   S    
C59   N2    A    
N23   N24   A    
C90   H4    S    
C28   H85   S    
H81   O48   S    
H76   N18   S    
C32   O50   S    
N4    N12   A    
C40   C116  A    
Cr4   O52   S    
C124  O5    A    
C41   C48   S    
C100  C122  S    
C8    C63   S    
C27   C111  S    
C12   H46   S    
C1    O4    A    
C11   N10   S    
C77   H2    S    
C5    N9    S    
C20   H63   S    
C24   O14   A    
