data_mof_unit_59921.cif
_audit_creation_date              2012-10-26T19:48:45-0400
_audit_creation_method            fapswitch 2.2
_symmetry_space_group_name_H-M    P1
_symmetry_Int_Tables_number       1
_space_group_crystal_system       triclinic
_cell_length_a                    10.817583
_cell_length_b                    9.635187
_cell_length_c                    27.704658
_cell_angle_alpha                 89.508639
_cell_angle_beta                  91.556221
_cell_angle_gamma                 89.804742
_cell_volume                      2886.4504762

loop_
_atom_site_label
_atom_site_type_symbol
_atom_type_description
_atom_site_fract_x
_atom_site_fract_y
_atom_site_fract_z
_atom_type_partial_charge
C1    C     C_R   0.260615 0.500109 0.499593 0.553084
C2    C     C_R   0.465230 0.385755 0.976300 0.020203
C3    C     C_R   0.644558 0.542852 0.976163 0.018301
C4    C     C_R   0.501355 0.500243 0.407933 0.560034
C5    C     C_R   0.550586 0.468338 0.950895 0.036865
C6    C     C_R   0.366573 0.323576 0.949911 -0.137953
C7    C     C_R   0.356026 0.336571 0.899991 -0.103719
C8    C     C_R   0.443773 0.411092 0.874413 0.028877
C9    C     C_R   0.541528 0.476815 0.899693 -0.026301
C10   C     C_R   0.629921 0.551348 0.873703 0.025847
C11   C     C_R   0.620877 0.555438 0.823004 0.408760
C12   C     C_R   0.442772 0.545530 0.272906 0.022839
C13   C     C_R   0.435763 0.421832 0.823883 0.408853
C14   C     C_R   0.497774 0.617255 0.722231 -0.052572
C15   C     C_R   0.491520 0.620205 0.671851 -0.123526
C16   C     C_R   0.739533 0.499522 0.505515 0.548675
C17   C     C_R   0.525719 0.371560 0.670713 -0.129682
C18   C     C_R   0.534912 0.368558 0.721068 0.036783
C19   C     C_R   0.519483 0.491927 0.747197 0.220891
C20   C     C_R   0.479133 0.370725 0.027183 0.006854
C21   C     C_R   0.564846 0.455110 0.052823 0.033752
C22   C     C_R   0.646215 0.543653 0.027519 0.020708
C23   C     C_R   0.549951 0.481536 0.255562 0.212561
C24   C     C_R   0.410521 0.272677 0.053246 -0.144299
C25   C     C_R   0.724390 0.632759 0.104696 -0.100293
C26   C     C_R   0.733272 0.614697 0.948955 -0.137705
C27   C     C_R   0.726155 0.618230 0.898746 -0.103306
C28   C     C_R   0.500682 0.499408 0.592360 0.556009
C29   C     C_R   0.724907 0.632218 0.054595 -0.135784
C30   C     C_3   0.079468 0.626174 0.531357 -0.232091
C31   C     C_3   0.079630 0.363576 0.526439 -0.230829
C32   C     C_3   0.936952 0.628802 0.534568 -0.123567
C33   C     C_3   0.937929 0.363476 0.532188 -0.123934
C34   C     C_R   0.567964 0.452512 0.104203 -0.034982
C35   C     C_3   0.063032 0.508924 0.451160 -0.242671
C36   C     C_3   0.123294 0.499784 0.502029 0.013656
C37   C     C_3   0.879821 0.498666 0.508124 0.016716
C38   C     C_3   0.921291 0.503169 0.454610 -0.258938
C39   C     C_3   0.627817 0.083997 0.509664 0.044162
C40   C     C_3   0.627890 0.914727 0.509177 0.041990
C41   C     C_3   0.417977 0.081926 0.538372 -0.130131
C42   C     C_3   0.420302 0.917115 0.539248 -0.129283
C43   C     C_3   0.453712 0.084551 0.453680 -0.027385
C44   C     C_3   0.449909 0.918022 0.454229 -0.030150
C45   C     C_R   0.491701 0.360009 0.129900 0.013173
C46   C     C_R   0.493046 0.367379 0.180954 0.407165
C47   C     C_R   0.642370 0.548829 0.180381 0.410417
C48   C     C_R   0.639821 0.428890 0.288060 -0.054753
C49   C     C_R   0.623006 0.437780 0.337600 -0.143647
C50   C     C_R   0.424476 0.552253 0.323001 -0.050860
C51   C     C_1   0.307994 0.603125 0.340221 0.223137
C52   C     C_1   0.562656 0.238533 0.745329 0.260144
C53   C     C_1   0.906994 0.638320 0.586090 0.215046
C54   C     C_1   0.913778 0.346087 0.584054 0.213600
C55   C     C_1   0.351288 0.602064 0.238901 0.261887
C56   C     C_R   0.416250 0.265917 0.103526 -0.012587
C57   C     C_1   0.674713 0.136375 0.556710 0.216224
C58   C     C_1   0.676178 0.859179 0.555972 0.215317
C59   C     C_1   0.712751 0.135933 0.471901 0.208487
C60   C     C_1   0.710965 0.864783 0.470714 0.211099
C61   C     C_1   0.335327 0.149124 0.437146 0.255935
C62   C     C_1   0.324730 0.865107 0.442205 0.247219
C63   C     C_1   0.342156 0.160284 0.126161 0.276241
C64   C     C_R   0.646433 0.544224 0.129885 0.029978
C65   C     C_R   0.515890 0.498981 0.355447 -0.007859
C66   C     C_R   0.505157 0.497227 0.645623 0.002818
Cu1   Cu    Cu3+1 0.499860 0.642410 0.500020 0.956453
Cu2   Cu    Cu3+1 0.499860 0.357590 0.500020 0.951991
H1    H     H_    0.535938 0.275528 0.651218 0.152866
H2    H     H_    0.785016 0.706678 0.038088 0.116814
H3    H     H_    0.126801 0.622876 0.567652 0.126629
H4    H     H_    0.130868 0.349647 0.561673 0.128072
H5    H     H_    0.902279 0.725046 0.516618 0.139716
H6    H     H_    0.900783 0.270494 0.513932 0.142963
H7    H     H_    0.089141 0.607520 0.433337 0.189544
H8    H     H_    0.095675 0.422702 0.428307 0.169535
H9    H     H_    0.443477 0.120663 0.574905 0.132001
H10   H     H_    0.450414 0.880775 0.575826 0.130251
H11   H     H_    0.516945 0.114628 0.424513 0.120767
H12   H     H_    0.108956 0.724631 0.513894 0.147804
H13   H     H_    0.506710 0.882084 0.423944 0.124949
H14   H     H_    0.321140 0.117979 0.532018 0.124464
H15   H     H_    0.324154 0.877824 0.535301 0.124618
H16   H     H_    0.475363 0.718563 0.653520 0.138949
H17   H     H_    0.485768 0.712634 0.741988 0.152447
H18   H     H_    0.278690 0.287075 0.881483 0.173157
H19   H     H_    0.293216 0.267848 0.967039 0.117233
H20   H     H_    0.353426 0.196657 0.035013 0.112964
H21   H     H_    0.693407 0.395630 0.362215 0.139548
H22   H     H_    0.104835 0.272886 0.504044 0.150644
H23   H     H_    0.880496 0.594395 0.435314 0.169709
H24   H     H_    0.886845 0.410295 0.435071 0.159783
H25   H     H_    0.722008 0.379147 0.274824 0.153175
H26   H     H_    0.784901 0.704571 0.123663 0.176571
H27   H     H_    0.811520 0.666712 0.965381 0.116279
H28   H     H_    0.796529 0.674445 0.879609 0.174220
N1    N     N_R   0.564351 0.463658 0.204555 -0.400002
N2    N     N_1   0.705796 0.171402 0.594849 -0.281073
N3    N     N_1   0.707016 0.822258 0.594171 -0.264274
N4    N     N_1   0.777237 0.172153 0.441596 -0.317899
N5    N     N_1   0.774505 0.829968 0.440070 -0.298064
N6    N     N_1   0.242772 0.197704 0.423443 -0.294557
N7    N     N_1   0.225486 0.828073 0.432887 -0.281993
N8    N     N_1   0.282780 0.075494 0.144056 -0.218328
N9    N     N_R   0.525153 0.490498 0.799161 -0.399916
N10   N     N_3   0.500250 0.143650 0.501060 -0.278967
N11   N     N_3   0.500250 0.856350 0.501060 -0.278871
N12   N     N_1   0.213439 0.642715 0.352963 -0.260556
N13   N     N_1   0.584902 0.134286 0.764781 -0.251340
N14   N     N_1   0.887499 0.644315 0.626927 -0.202096
N15   N     N_1   0.899123 0.333378 0.625113 -0.211762
N16   N     N_1   0.278334 0.647163 0.211700 -0.235021
O1    O     O_R   0.317570 0.620260 0.500030 -0.506763
O2    O     O_2   0.339569 0.363760 0.799564 -0.482581
O3    O     O_2   0.713784 0.639798 0.205139 -0.473425
O4    O     O_2   0.707615 0.622586 0.797733 -0.466577
O5    O     O_R   0.317570 0.379740 0.500030 -0.508073
O6    O     O_R   0.499900 0.620250 0.430280 -0.497175
O7    O     O_R   0.499900 0.379750 0.430280 -0.499429
O8    O     O_R   0.682190 0.620260 0.500010 -0.502019
O9    O     O_R   0.682190 0.379740 0.500010 -0.501826
O10   O     O_R   0.499860 0.620280 0.569750 -0.506293
O11   O     O_R   0.499860 0.379720 0.569750 -0.510224
O12   O     O_2   0.422086 0.281815 0.207125 -0.460512

loop_
_geom_bond_atom_site_label_1
_geom_bond_atom_site_label_2
_ccdc_geom_bond_type
C53   N14   T    
C10   C27   A    
C39   N10   S    
C17   H1    S    
C8    C13   A    
C40   C60   S    
C22   C29   A    
C55   N16   T    
C41   C42   S    
C35   C36   S    
C43   C44   S    
C4    O6    A    
C30   H3    S    
C28   O11   A    
C18   C52   S    
C7    C8    A    
C45   C46   A    
C47   O3    S    
C12   C23   A    
C35   H7    S    
C17   C66   A    
C49   C65   A    
C29   H2    S    
C16   O8    A    
Cu2   O7    S    
C41   H9    S    
C4    C65   S    
C28   O10   A    
C7    H18   S    
C41   H14   S    
C43   H11   S    
C39   C57   S    
C38   H24   S    
C26   H27   S    
C18   C19   A    
C20   C24   A    
C45   C56   A    
C51   N12   T    
C11   N9    A    
C31   C33   S    
C4    O7    A    
C42   N11   S    
C13   O2    S    
C16   C37   S    
C30   H12   S    
C25   H26   S    
C21   C22   A    
C59   N4    T    
C46   O12   S    
C27   H28   S    
C2    C6    A    
Cu2   N10   S    
Cu2   O11   S    
C50   C65   A    
C17   C18   A    
C25   C29   A    
C35   H8    S    
C40   C58   S    
C48   H25   S    
C58   N3    T    
C2    C20   A    
Cu1   Cu2   S    
C35   C38   S    
C13   N9    A    
C44   H13   S    
C41   N10   S    
C47   C64   A    
C8    C9    A    
C21   C34   A    
C44   C62   S    
C15   C66   A    
C38   H23   S    
C33   C37   S    
C6    H19   S    
C43   N10   S    
C28   C66   S    
C16   O9    A    
C5    C9    A    
C37   C38   S    
Cu2   O5    S    
C31   H22   S    
C39   C59   S    
C34   C64   A    
C50   C51   S    
C26   C27   A    
C56   C63   S    
C34   C45   A    
C1    O5    A    
C32   C37   S    
C11   O4    S    
C24   H20   S    
C6    C7    A    
C40   N11   S    
C19   N9    S    
C48   C49   A    
C23   N1    S    
C46   N1    A    
C42   H10   S    
C2    C5    A    
C60   N5    T    
Cu1   O10   S    
C32   C53   S    
C32   H5    S    
C43   C61   S    
C62   N7    T    
Cu1   O8    S    
C44   N11   S    
C33   C54   S    
C31   H4    S    
C23   C48   A    
C14   C15   A    
C14   C19   A    
C3    C26   A    
C42   H15   S    
C14   H17   S    
C49   H21   S    
C63   N8    T    
C3    C5    A    
Cu2   O9    S    
C12   C50   A    
C15   H16   S    
C24   C56   A    
C47   N1    A    
C30   C36   S    
C61   N6    T    
Cu1   O1    S    
C30   C32   S    
Cu1   N11   S    
C52   N13   T    
C57   N2    T    
C54   N15   T    
C9    C10   A    
C1    O1    A    
Cu1   O6    S    
C12   C55   S    
C10   C11   A    
C39   C40   S    
C33   H6    S    
C20   C21   A    
C31   C36   S    
C3    C22   A    
C25   C64   A    
C1    C36   S    
