data_mof_unit_57818.cif
_audit_creation_date              2012-12-10T16:56:32-0500
_audit_creation_method            fapswitch 2.2
_symmetry_space_group_name_H-M    P1
_symmetry_Int_Tables_number       1
_space_group_crystal_system       triclinic
_cell_length_a                    7.935161
_cell_length_b                    8.451769
_cell_length_c                    15.650658
_cell_angle_alpha                 92.241924
_cell_angle_beta                  85.432947
_cell_angle_gamma                 93.628594
_cell_volume                      1043.58616821

loop_
_atom_site_label
_atom_site_type_symbol
_atom_type_description
_atom_site_fract_x
_atom_site_fract_y
_atom_site_fract_z
_atom_type_partial_charge
C1    C     C_R   0.545091 0.794767 0.508809 0.808217
C2    C     C_R   0.454766 0.206337 0.511011 0.814527
C3    C     C_R   0.501214 0.500724 0.661472 0.862662
C4    C     C_R   0.498798 0.499510 0.338482 0.879838
C5    C     C_2   0.566354 0.959973 0.535212 0.050388
C6    C     C_2   0.430555 0.046367 0.539053 0.066979
C7    C     C_3   0.436956 0.631609 0.032808 0.230393
C8    C     C_3   0.562931 0.363659 0.966599 0.233626
C9    C     C_3   0.597859 0.623436 0.970906 -0.193704
C10   C     C_3   0.402006 0.371804 0.028574 -0.204978
C11   C     C_1   0.503337 0.500248 0.750336 -0.087752
C12   C     C_1   0.496380 0.498222 0.249453 -0.113793
C13   C     C_3   0.340861 0.507210 0.977003 -0.210183
C14   C     C_3   0.659047 0.488054 0.022463 -0.221059
C15   C     C_3   0.502150 0.498235 0.916709 0.080563
C16   C     C_3   0.497697 0.497116 0.082822 0.085058
C17   C     C_1   0.503574 0.499511 0.825744 0.028314
C18   C     C_1   0.496131 0.497227 0.173932 0.016195
H1    H     H_    0.677303 0.726368 0.945276 0.196594
H2    H     H_    0.322541 0.268845 0.054142 0.195235
H3    H     H_    0.788805 0.479597 0.043035 0.177119
H4    H     H_    0.211151 0.515652 0.956358 0.180852
N1    N     N_2   0.950320 0.457950 0.477300 0.033891
N2    N     N_2   0.049680 0.542050 0.522700 0.062482
O1    O     O_R   0.389250 0.738570 0.505570 -0.577145
O2    O     O_R   0.610750 0.261430 0.494430 -0.575804
O3    O     O_R   0.678390 0.711630 0.491020 -0.577080
O4    O     O_R   0.321610 0.288370 0.508980 -0.565228
O5    O     O_R   0.355460 0.513480 0.630490 -0.595886
O6    O     O_R   0.644540 0.486520 0.369510 -0.607521
O7    O     O_R   0.644600 0.486540 0.615950 -0.577117
O8    O     O_R   0.355400 0.513460 0.384050 -0.607308
Zn1   Zn    Zn3+2 0.306940 0.517990 0.509710 1.117247
Zn2   Zn    Zn3+2 0.693060 0.482010 0.490290 1.109586
I1    I     I_    0.336319 0.845197 0.086730 -0.325910
I2    I     I_    0.663127 0.150941 0.911018 -0.242747
S1    S     S_3+6 0.739426 0.026981 0.594662 0.127400
O9    O     O_2   0.882043 0.086197 0.533191 -0.177044
O10   O     O_2   0.691264 0.159986 0.656620 -0.282874
O11   O     O_3   0.800452 0.878845 0.650632 -0.453581
H5    H     H_    0.700752 0.849287 0.690276 0.342927
S2    S     S_3+6 0.249449 0.992905 0.608405 0.122330
O12   O     O_2   0.123726 0.900581 0.556428 -0.171071
O13   O     O_2   0.297752 0.890210 0.677793 -0.305761
O14   O     O_3   0.160190 0.154123 0.653794 -0.436769
H6    H     H_    0.242558 0.200166 0.693635 0.345269
I3    I     I_    0.034690 0.327406 0.369142 -0.118889
I4    I     I_    0.983564 0.567156 0.653346 0.061510

loop_
_geom_bond_atom_site_label_1
_geom_bond_atom_site_label_2
_ccdc_geom_bond_type
C13   H4    S    
C3    O7    A    
C9    C14   S    
S2    O14   S    
S1    O9    D    
C10   H2    S    
C5    S1    S    
C4    C12   S    
C2    O4    A    
N2    Zn1   S    
N1    N2    D    
N1    Zn2   S    
C1    O3    A    
O8    Zn1   S    
C9    C15   S    
O7    Zn2   S    
C4    O6    A    
C2    O2    A    
C10   C16   S    
O14   H6    S    
C1    O1    A    
C3    O5    A    
C4    O8    A    
S2    O13   D    
C1    C5    S    
C14   H3    S    
C8    C10   S    
C7    C16   S    
O2    Zn2   S    
O4    Zn1   S    
C8    C15   S    
C7    C9    S    
C13   C15   S    
O3    Zn2   S    
C8    I2    S    
C5    C6    D    
S1    O10   D    
C14   C16   S    
N1    I3    S    
S2    O12   D    
O6    Zn2   S    
S1    O11   S    
N2    I4    S    
O5    Zn1   S    
C7    C13   S    
C3    C11   S    
C16   C18   S    
C6    S2    S    
C12   C18   T    
C15   C17   S    
O11   H5    S    
C8    C14   S    
C7    I1    S    
C9    H1    S    
C11   C17   T    
C2    C6    S    
O1    Zn1   S    
C10   C13   S    
