data_mof_unit_34787.cif
_audit_creation_date              2012-12-10T18:36:17-0500
_audit_creation_method            fapswitch 2.2
_symmetry_space_group_name_H-M    P1
_symmetry_Int_Tables_number       1
_space_group_crystal_system       triclinic
_cell_length_a                    14.913129
_cell_length_b                    15.449934
_cell_length_c                    19.066639
_cell_angle_alpha                 90.908528
_cell_angle_beta                  103.202605
_cell_angle_gamma                 80.992689
_cell_volume                      4223.32182791

loop_
_atom_site_label
_atom_site_type_symbol
_atom_type_description
_atom_site_fract_x
_atom_site_fract_y
_atom_site_fract_z
_atom_type_partial_charge
C1    C     C_R   0.441354 0.662443 0.488311 0.880247
C2    C     C_R   0.531291 0.187720 0.481397 -0.268925
C3    C     C_R   0.450129 0.897889 0.456779 0.060700
C4    C     C_R   0.559884 0.098828 0.473502 0.062278
C5    C     C_R   0.356489 0.930295 0.421389 0.094456
C6    C     C_R   0.656408 0.064711 0.494400 0.088469
C7    C     C_R   0.520164 0.951918 0.464799 0.091365
C8    C     C_R   0.493008 0.042480 0.450784 0.092831
C9    C     C_R   0.400052 0.073885 0.414362 -0.233855
C10   C     C_R   0.616450 0.918186 0.485224 -0.229802
C11   C     C_R   0.333764 0.018273 0.398390 -0.232064
C12   C     C_R   0.558821 0.337634 0.508434 0.888466
C13   C     C_R   0.683251 0.973531 0.497916 -0.235436
C14   C     C_R   0.842730 0.620031 0.624697 -0.310082
C15   C     C_R   0.176710 0.335995 0.416485 -0.321460
C16   C     C_R   0.499174 0.502241 0.634286 0.856511
C17   C     C_R   0.498862 0.501803 0.365561 0.849088
C18   C     C_R   0.751284 0.608371 0.595642 -0.037351
C19   C     C_R   0.256221 0.373921 0.420741 -0.024180
C20   C     C_R   0.799879 0.506083 0.512072 0.291341
C21   C     C_R   0.203298 0.487119 0.494317 0.299680
C22   C     C_R   0.895060 0.509631 0.543787 -0.037901
C23   C     C_R   0.406786 0.755428 0.470613 -0.108411
C24   C     C_R   0.125057 0.446802 0.497435 -0.037206
C25   C     C_R   0.915931 0.571257 0.598924 0.059068
C26   C     C_R   0.110606 0.371139 0.455561 0.063075
C27   C     C_R   0.969600 0.456700 0.520664 0.019411
C28   C     C_R   0.058696 0.481524 0.537901 0.015364
C29   C     C_R   0.079520 0.536685 0.597024 -0.216149
C30   C     C_R   0.959876 0.377262 0.484579 -0.207131
C31   C     C_R   0.009493 0.581161 0.628475 0.216362
C32   C     C_R   0.029698 0.333416 0.453381 0.213141
C33   C     C_R   0.409713 0.506247 0.728937 -0.199650
C34   C     C_R   0.595216 0.244440 0.504473 -0.113704
C35   C     C_R   0.542505 0.573129 0.266127 -0.194952
C36   C     C_R   0.400396 0.523868 0.798559 -0.167732
C37   C     C_R   0.532455 0.589091 0.193164 -0.164302
C38   C     C_R   0.474204 0.550233 0.849597 0.090595
C39   C     C_R   0.470892 0.547082 0.142364 0.086896
C40   C     C_R   0.557150 0.559959 0.829693 -0.161132
C41   C     C_R   0.418971 0.489434 0.165443 -0.158886
C42   C     C_R   0.566524 0.542296 0.759806 -0.196550
C43   C     C_R   0.429696 0.472978 0.238471 -0.196744
C44   C     C_R   0.492947 0.514987 0.709096 -0.031438
C45   C     C_R   0.288381 0.873614 0.408684 0.223868
C46   C     C_R   0.492186 0.514159 0.289061 -0.022923
C47   C     C_R   0.465341 0.558684 0.065663 0.286956
C48   C     C_R   0.467124 0.560461 0.924490 0.286720
C49   C     C_3   0.123042 0.626022 0.734470 -0.794110
C50   C     C_3   0.955006 0.258438 0.349375 -0.793327
C51   C     C_3   0.153173 0.642316 0.474110 -0.811433
C52   C     C_3   0.776543 0.506267 0.382686 -0.774660
C53   C     C_3   0.130411 0.846518 0.343368 -0.802534
C54   C     C_3   0.889372 0.145532 0.552692 -0.787841
C55   C     C_R   0.723246 0.122368 0.513719 0.227999
C56   C     C_R   0.315976 0.785195 0.431683 -0.231972
C57   C     C_R   0.690915 0.212652 0.518769 -0.228028
C58   C     C_R   0.471149 0.813048 0.485599 -0.263035
H1    H     H_    0.351190 0.486457 0.690639 0.153851
H2    H     H_    0.572469 0.634534 0.176600 0.149499
H3    H     H_    0.615380 0.579709 0.868281 0.150241
H4    H     H_    0.371461 0.455714 0.127198 0.149843
H5    H     H_    0.264362 0.045539 0.368840 0.152692
H6    H     H_    0.755691 0.943794 0.514091 0.154012
H7    H     H_    0.457982 0.213161 0.472932 0.168185
H8    H     H_    0.538598 0.790425 0.520258 0.162820
H9    H     H_    0.739291 0.258721 0.533651 0.165358
H10   H     H_    0.267784 0.739166 0.419186 0.174287
H11   H     H_    0.377860 0.140863 0.394846 0.140150
H12   H     H_    0.587512 0.608798 0.304479 0.151446
H13   H     H_    0.642265 0.848709 0.489354 0.149927
H14   H     H_    0.003206 0.704411 0.674597 0.222719
H15   H     H_    0.121520 0.665097 0.783661 0.249135
H16   H     H_    0.174529 0.648159 0.707688 0.235124
H17   H     H_    0.144591 0.555836 0.751100 0.246227
H18   H     H_    0.075602 0.205734 0.424763 0.220036
H19   H     H_    0.944792 0.191843 0.329743 0.239588
H20   H     H_    0.985942 0.291139 0.311230 0.242079
H21   H     H_    0.885745 0.296262 0.351082 0.255914
H22   H     H_    0.275767 0.584050 0.545732 0.269863
H23   H     H_    0.309876 0.343572 0.394420 0.137189
H24   H     H_    0.164240 0.706602 0.498567 0.236909
H25   H     H_    0.078162 0.636983 0.466384 0.251778
H26   H     H_    0.171356 0.638815 0.420709 0.243007
H27   H     H_    0.719064 0.426864 0.443483 0.268662
H28   H     H_    0.750832 0.467699 0.334700 0.238612
H29   H     H_    0.848988 0.515609 0.383110 0.246631
H30   H     H_    0.732162 0.571481 0.378876 0.243112
H31   H     H_    0.630976 0.550485 0.745498 0.156352
H32   H     H_    0.389396 0.428019 0.255379 0.148235
H33   H     H_    0.163861 0.960716 0.396425 0.216964
H34   H     H_    0.695503 0.642401 0.618101 0.144445
H35   H     H_    0.065715 0.883717 0.309449 0.244949
H36   H     H_    0.111322 0.812638 0.387474 0.235170
H37   H     H_    0.162134 0.798088 0.308788 0.253304
H38   H     H_    0.839341 0.044095 0.490052 0.219344
H39   H     H_    0.960287 0.106182 0.565204 0.244142
H40   H     H_    0.877520 0.178075 0.602876 0.248244
H41   H     H_    0.886352 0.194974 0.510266 0.244012
H42   H     H_    0.855411 0.665467 0.668292 0.163314
H43   H     H_    0.168560 0.279155 0.383229 0.153458
H44   H     H_    0.150987 0.543054 0.620502 0.175164
H45   H     H_    0.899999 0.345552 0.483344 0.168223
H46   H     H_    0.335585 0.516046 0.812428 0.148645
N1    N     N_R   0.535183 0.590960 0.973837 -0.179706
N2    N     N_2   0.774401 0.459960 0.447451 -0.329757
N3    N     N_2   0.194008 0.906661 0.372896 -0.310200
N4    N     N_2   0.821007 0.088373 0.527351 -0.311278
N5    N     N_R   0.395920 0.530539 0.016126 -0.179331
N6    N     N_R   0.534213 0.590214 0.043263 -0.178094
N7    N     N_R   0.396751 0.531537 0.946746 -0.179599
N8    N     N_R   0.731690 0.552730 0.540620 -0.121477
N9    N     N_R   0.268310 0.447270 0.459380 -0.121613
N10   N     N_2   0.031085 0.639565 0.686793 -0.304984
N11   N     N_2   0.016378 0.251618 0.420378 -0.318054
N12   N     N_2   0.210202 0.572497 0.521245 -0.327267
O1    O     O_R   0.383120 0.605620 0.479520 -0.622598
O2    O     O_R   0.616880 0.394380 0.520480 -0.633552
O3    O     O_R   0.531890 0.639510 0.505590 -0.617198
O4    O     O_R   0.468110 0.360490 0.494410 -0.616359
O5    O     O_R   0.425590 0.483060 0.588820 -0.634479
O6    O     O_R   0.574410 0.516940 0.411180 -0.621294
O7    O     O_R   0.574360 0.516950 0.614890 -0.615810
O8    O     O_R   0.425640 0.483050 0.385110 -0.614825
Zn1   Zn    Zn3+2 0.400660 0.477370 0.482600 0.928678
Zn2   Zn    Zn3+2 0.599340 0.522630 0.517400 0.925957

loop_
_geom_bond_atom_site_label_1
_geom_bond_atom_site_label_2
_ccdc_geom_bond_type
C25   C31   A    
C23   C58   A    
C38   C40   A    
N1    N6    A    
C26   C32   A    
C7    C10   A    
C14   C18   A    
C6    C55   A    
C4    C8    A    
C2    H7    S    
C50   H21   S    
H18   N11   S    
C7    C8    A    
C39   C41   A    
C15   C19   A    
C28   C29   A    
C35   C37   A    
C16   O7    A    
C18   N8    A    
C5    C11   A    
C11   H5    S    
N5    N7    A    
C53   H37   S    
C19   N9    A    
H14   N10   S    
C33   C36   A    
C50   N11   S    
C1    O3    A    
C12   O4    A    
C58   H8    S    
H22   N12   S    
C45   C56   A    
C8    C9    A    
C22   C25   A    
C30   H45   S    
C34   C57   A    
C49   H17   S    
C54   H39   S    
C16   C44   S    
C31   N10   S    
N8    Zn2   S    
C10   H13   S    
C2    C34   A    
C40   C42   A    
C49   N10   S    
H38   N4    S    
C52   N2    S    
C33   H1    S    
C20   N8    A    
C27   C30   A    
C41   C43   A    
C42   C44   A    
C41   H4    S    
C57   H9    S    
C21   N12   S    
C50   H20   S    
C20   N2    S    
C43   H32   S    
C53   H35   S    
H33   N3    S    
C52   H30   S    
C17   C46   S    
C35   H12   S    
C4    C6    A    
O4    Zn1   S    
C15   C26   A    
C56   H10   S    
C5    C45   A    
C40   H3    S    
O7    Zn2   S    
O6    Zn2   S    
C2    C4    A    
C16   O5    A    
O3    Zn2   S    
O5    Zn1   S    
C53   N3    S    
C17   O8    A    
C48   N1    A    
C1    O1    A    
C15   H43   S    
C9    C11   A    
C51   H24   S    
C23   C56   A    
C12   O2    A    
C21   N9    A    
C20   C22   A    
C1    C23   S    
C22   C27   A    
C55   C57   A    
C49   H15   S    
C54   H41   S    
C12   C34   S    
H27   N2    S    
C50   H19   S    
C51   H25   S    
C39   C47   S    
C53   H36   S    
C33   C44   A    
C38   C48   S    
C52   H29   S    
C24   C28   A    
C9    H11   S    
C3    C5    A    
C10   C13   A    
C14   H42   S    
C47   N6    A    
C3    C7    A    
C51   N12   S    
C54   N4    S    
C55   N4    S    
C36   H46   S    
C42   H31   S    
C18   H34   S    
C52   H28   S    
C37   C39   A    
C47   N5    A    
C14   C25   A    
C6    C13   A    
C30   C32   A    
C24   C26   A    
C13   H6    S    
C36   C38   A    
C29   H44   S    
C32   N11   S    
C43   C46   A    
C37   H2    S    
C3    C58   A    
C17   O6    A    
C48   N7    A    
N9    Zn1   S    
C29   C31   A    
C21   C24   A    
C27   C28   A    
C49   H16   S    
C54   H40   S    
O2    Zn2   S    
C19   H23   S    
C35   C46   A    
O1    Zn1   S    
C51   H26   S    
C45   N3    S    
O8    Zn1   S    
