data_mof_unit_65236.cif
_audit_creation_date              2012-12-10T17:24:49-0500
_audit_creation_method            fapswitch 2.2
_symmetry_space_group_name_H-M    P1
_symmetry_Int_Tables_number       1
_space_group_crystal_system       triclinic
_cell_length_a                    10.12357
_cell_length_b                    10.712739
_cell_length_c                    19.132769
_cell_angle_alpha                 90.159081
_cell_angle_beta                  81.443513
_cell_angle_gamma                 94.860632
_cell_volume                      2044.39510675

loop_
_atom_site_label
_atom_site_type_symbol
_atom_type_description
_atom_site_fract_x
_atom_site_fract_y
_atom_site_fract_z
_atom_type_partial_charge
Br1   Br    Br    0.335359 0.711573 0.721132 -0.298922
Br2   Br    Br    0.660882 0.267883 0.295104 -0.388919
C1    C     C_R   0.555332 0.733240 0.499099 0.957819
C2    C     C_R   0.498396 0.495149 0.365761 0.922084
C3    C     C_R   0.421817 0.575843 0.755597 0.179225
C4    C     C_R   0.558696 0.382648 0.252655 0.171104
C5    C     C_R   0.410695 0.559003 0.828348 0.637899
C6    C     C_R   0.545715 0.365960 0.181696 0.645223
C7    C     C_R   0.476732 0.464438 0.856088 -0.113280
C8    C     C_R   0.465675 0.442102 0.149219 -0.112140
C9    C     C_R   0.557137 0.389564 0.810484 -0.199127
C10   C     C_R   0.396372 0.533075 0.188615 -0.201860
C11   C     C_R   0.568279 0.405919 0.737964 -0.199685
C12   C     C_R   0.444763 0.266850 0.508146 0.964423
C13   C     C_R   0.409348 0.550400 0.259037 -0.216576
C14   C     C_R   0.498983 0.497050 0.710232 -0.208093
C15   C     C_R   0.491710 0.477209 0.291144 -0.193446
C16   C     C_R   0.460224 0.433638 0.073580 0.347884
C17   C     C_R   0.466770 0.446934 0.932326 0.345613
C18   C     C_2   0.585055 0.865917 0.509227 -0.456027
C19   C     C_2   0.415248 0.134368 0.522722 -0.443629
C20   C     C_2   0.489241 0.933276 0.542443 0.570180
C21   C     C_2   0.510984 0.067376 0.540985 0.547504
C22   C     C_2   0.927061 0.510433 0.505871 -0.099299
C23   C     C_2   0.072931 0.489542 0.494144 -0.116501
C24   C     C_R   0.500795 0.502175 0.634412 0.932803
F1    F     F_    0.338203 0.637265 0.871604 -0.600510
F2    F     F_    0.609226 0.273942 0.145050 -0.600657
F3    F     F_    0.633900 0.120423 0.551161 -0.648786
F4    F     F_    0.365580 0.880788 0.570951 -0.627112
H1    H     H_    0.609624 0.316877 0.830816 0.204348
H2    H     H_    0.880542 0.384442 0.435366 0.202139
H3    H     H_    0.334565 0.593263 0.164639 0.202986
H4    H     H_    0.627611 0.344611 0.703446 0.208092
H5    H     H_    0.355993 0.622110 0.288381 0.188801
H6    H     H_    0.316908 0.090430 0.516499 0.169972
H7    H     H_    0.683664 0.909637 0.487972 0.173895
H8    H     H_    0.109390 0.420948 0.455759 0.172068
H9    H     H_    0.890601 0.579026 0.544255 0.171661
H10   H     H_    0.119464 0.615555 0.564639 0.212469
N1    N     N_R   0.564791 0.394046 0.959869 -0.149947
N2    N     N_R   0.360308 0.483221 0.046015 -0.150377
N3    N     N_R   0.561715 0.387823 0.029355 -0.064556
N4    N     N_R   0.363382 0.489426 0.976588 -0.062309
N5    N     N_2   0.842710 0.448880 0.471430 -0.170221
N6    N     N_2   0.157290 0.551120 0.528570 -0.174494
O1    O     O_R   0.431050 0.692470 0.505750 -0.528512
O2    O     O_R   0.568950 0.307530 0.494250 -0.520472
O3    O     O_R   0.651120 0.659650 0.487410 -0.623446
O4    O     O_R   0.348880 0.340350 0.512590 -0.623650
O5    O     O_R   0.389930 0.516430 0.611030 -0.572352
O6    O     O_R   0.610070 0.483570 0.388970 -0.576804
O7    O     O_R   0.610000 0.483610 0.592700 -0.616568
O8    O     O_R   0.390000 0.516390 0.407300 -0.628419
Zn1   Zn    Zn3+2 0.353060 0.521920 0.512240 1.026993
Zn2   Zn    Zn3+2 0.646940 0.478080 0.487760 1.031512

loop_
_geom_bond_atom_site_label_1
_geom_bond_atom_site_label_2
_ccdc_geom_bond_type
N6    Zn1   S    
C11   H4    S    
C4    C6    A    
C3    C5    A    
C23   H8    S    
O3    Zn2   S    
N1    N3    A    
H2    N5    S    
O5    Zn1   S    
O4    Zn1   S    
C10   C13   A    
C19   C21   D    
C1    O3    A    
O1    Zn1   S    
C9    H1    S    
C1    C18   S    
C19   H6    S    
C12   O4    A    
C24   O5    A    
C17   N4    A    
H10   N6    S    
C18   H7    S    
C7    C9    A    
C17   N1    A    
Br2   C4    S    
N2    N4    A    
C8    C16   S    
Br1   C3    S    
C2    C15   S    
C21   F3    S    
C12   C19   S    
C13   H5    S    
C18   C20   D    
C2    O6    A    
C8    C10   A    
C16   N2    A    
C14   C24   S    
C6    F2    S    
C11   C14   A    
C16   N3    A    
C22   N5    D    
C24   O7    A    
C5    C7    A    
C9    C11   A    
C22   H9    S    
C5    F1    S    
C22   C23   S    
O2    Zn2   S    
O7    Zn2   S    
C1    O1    A    
C13   C15   A    
C4    C15   A    
O8    Zn1   S    
C3    C14   A    
C12   O2    A    
C20   F4    S    
C2    O8    A    
C10   H3    S    
C20   C21   S    
C23   N6    D    
C7    C17   S    
C6    C8    A    
O6    Zn2   S    
N5    Zn2   S    
