data_mof_unit_7788.cif
_audit_creation_date              2012-12-11T14:23:13-0500
_audit_creation_method            fapswitch 2.2
_symmetry_space_group_name_H-M    P1
_symmetry_Int_Tables_number       1
_space_group_crystal_system       triclinic
_cell_length_a                    11.041693
_cell_length_b                    10.99577
_cell_length_c                    18.826923
_cell_angle_alpha                 90.093491
_cell_angle_beta                  90.148031
_cell_angle_gamma                 60.160169
_cell_volume                      1982.75241153

loop_
_atom_site_label
_atom_site_type_symbol
_atom_type_description
_atom_site_fract_x
_atom_site_fract_y
_atom_site_fract_z
_atom_type_partial_charge
C1    C     C_R   0.287430 0.623024 0.616156 0.552175
C2    C     C_R   0.592886 0.143634 0.711643 -0.173812
C3    C     C_R   0.593632 0.147929 0.783304 -0.147646
C4    C     C_R   0.657594 0.627144 0.597991 0.531059
C5    C     C_R   0.920263 0.176865 0.816873 0.010310
C6    C     C_R   0.027461 0.166418 0.772842 -0.127914
C7    C     C_R   0.023386 0.154646 0.700394 -0.182545
C8    C     C_R   0.913606 0.150090 0.668144 -0.102726
C9    C     C_R   0.684311 0.164666 0.672907 -0.009461
C10   C     C_R   0.196504 0.666497 0.839798 -0.005667
C11   C     C_R   0.243398 0.534305 0.809594 0.021708
C12   C     C_3   0.656657 0.600558 0.799812 -0.238007
C13   C     C_R   0.263756 0.516960 0.734884 0.021233
C14   C     C_R   0.212386 0.759259 0.726482 -0.178991
C15   C     C_R   0.188706 0.775575 0.798283 -0.158222
C16   C     C_R   0.631833 0.225860 0.602065 0.532932
C17   C     C_R   0.263550 0.420486 0.852289 -0.081159
C18   C     C_R   0.271260 0.303153 0.821596 -0.139523
C19   C     C_R   0.275241 0.290827 0.748630 -0.176102
C20   C     C_R   0.286300 0.388597 0.706399 -0.116562
C21   C     C_R   0.251230 0.631592 0.692740 -0.016785
C22   C     C_R   0.662710 0.676776 0.171100 0.004833
C23   C     C_3   0.725210 0.691844 0.806626 0.027098
C24   C     C_R   0.722711 0.541478 0.200166 0.027264
C25   C     C_R   0.754716 0.525119 0.272896 0.043818
C26   C     C_R   0.615681 0.777383 0.289998 -0.165325
C27   C     C_R   0.618964 0.793034 0.216682 -0.137149
C28   C     C_R   0.283884 0.623781 0.392566 0.575088
C29   C     C_R   0.772222 0.421693 0.156409 -0.084679
C30   C     C_R   0.882091 0.294425 0.178965 -0.118644
C31   C     C_R   0.932330 0.281137 0.247746 -0.146835
C32   C     C_R   0.868918 0.393887 0.294765 -0.083318
C33   C     C_R   0.676414 0.643495 0.318856 0.005144
C34   C     C_3   0.683406 0.662814 0.671030 0.074149
C35   C     C_R   0.656027 0.153015 0.177228 -0.002456
C36   C     C_R   0.523582 0.208264 0.208465 0.020128
C37   C     C_R   0.517479 0.192147 0.281945 0.036286
C38   C     C_R   0.765166 0.117827 0.292947 -0.154366
C39   C     C_R   0.776297 0.100279 0.220405 -0.139642
C40   C     C_R   0.645833 0.621392 0.392464 0.534067
C41   C     C_R   0.399183 0.265830 0.167750 -0.085018
C42   C     C_R   0.277201 0.280181 0.196623 -0.124622
C43   C     C_R   0.274391 0.248501 0.267579 -0.155008
C44   C     C_R   0.393488 0.201123 0.309368 -0.097189
C45   C     C_3   0.839479 0.627100 0.684260 -0.128816
C46   C     C_R   0.635853 0.168226 0.324388 0.003535
C47   C     C_R   0.175735 0.654614 0.175419 -0.002819
C48   C     C_R   0.258069 0.711827 0.198298 0.025780
C49   C     C_R   0.271664 0.725476 0.271558 0.020469
C50   C     C_R   0.170344 0.575656 0.293420 -0.135872
C51   C     C_R   0.129956 0.589701 0.223323 -0.149064
C52   C     C_R   0.615059 0.227632 0.395545 0.543143
C53   C     C_R   0.305920 0.776880 0.149910 -0.083089
C54   C     C_R   0.322414 0.887618 0.172341 -0.109448
C55   C     C_R   0.314788 0.917361 0.244204 -0.148987
C56   C     C_3   0.645959 0.572357 0.721094 -0.215641
C57   C     C_R   0.302322 0.830550 0.293647 -0.104929
C58   C     C_R   0.241933 0.642133 0.318485 0.008972
C59   C     C_R   0.703896 0.102853 0.896058 0.523740
C60   C     C_R   0.752367 0.708685 0.882780 0.559362
C61   C     C_R   0.121076 0.705674 0.907305 0.529379
C62   C     C_R   0.676356 0.105673 0.104128 0.530834
C63   C     C_R   0.697259 0.691338 0.098045 0.538681
C64   C     C_3   0.625624 0.836175 0.771842 -0.230829
C65   C     C_R   0.098298 0.705951 0.110272 0.538429
C66   C     C_3   0.594725 0.822610 0.692020 -0.121731
C67   C     C_R   0.698175 0.153500 0.822528 -0.010180
C68   C     C_3   0.866043 0.620281 0.765485 -0.229058
C69   C     C_3   0.956484 0.499350 0.645337 -0.259849
C70   C     C_3   0.984171 0.536992 0.570247 -0.269975
C71   C     C_3   0.075208 0.406526 0.526227 -0.398035
C72   C     C_3   0.933195 0.201783 0.895752 -0.247977
C73   C     C_3   0.023930 0.266002 0.916226 -0.337143
C74   C     C_3   0.004213 0.309579 0.994067 -0.393051
C75   C     C_3   0.435569 0.900629 0.673314 -0.243958
C76   C     C_3   0.402044 0.990460 0.604205 -0.279015
C77   C     C_3   0.280148 0.001729 0.560281 -0.396621
C78   C     C_R   0.806500 0.164775 0.784854 0.023914
C79   C     C_R   0.800764 0.161823 0.708098 0.019455
Cr1   Cr    Cr6+3 0.392940 0.397950 0.502230 0.960335
Cr2   Cr    Cr6+3 0.398400 0.708500 0.501260 0.948135
Cr3   Cr    Cr6+3 0.708640 0.393530 0.496460 0.974334
Cr4   Cr    Cr6+3 0.937880 0.938320 0.007620 0.968539
Cr5   Cr    Cr6+3 0.625560 0.937220 0.994510 0.986521
Cr6   Cr    Cr6+3 0.938080 0.625010 0.001190 0.961798
H1    H     H_    0.682834 0.894282 0.774988 0.117642
H2    H     H_    0.153147 0.879039 0.820063 0.154875
H3    H     H_    0.285439 0.216646 0.854138 0.098122
H4    H     H_    0.280363 0.199759 0.724779 0.092646
H5    H     H_    0.566670 0.869006 0.323940 0.110339
H6    H     H_    0.735185 0.429518 0.102392 0.106174
H7    H     H_    0.583026 0.897021 0.195442 0.150331
H8    H     H_    0.929595 0.206623 0.142673 0.119463
H9    H     H_    0.019377 0.182253 0.265029 0.105914
H10   H     H_    0.919699 0.378036 0.345643 0.134576
H11   H     H_    0.857278 0.091279 0.324498 0.129363
H12   H     H_    0.718309 0.459128 0.710630 0.150183
H13   H     H_    0.396313 0.296331 0.112879 0.125489
H14   H     H_    0.880492 0.045276 0.198299 0.156970
H15   H     H_    0.184684 0.316413 0.163988 0.118296
H16   H     H_    0.387675 0.164583 0.361764 0.133082
H17   H     H_    0.136813 0.520784 0.328940 0.137714
H18   H     H_    0.314404 0.753597 0.093598 0.120084
H19   H     H_    0.057991 0.554652 0.207246 0.144047
H20   H     H_    0.637952 0.879424 0.662003 0.112523
H21   H     H_    0.344178 0.948195 0.134444 0.125620
H22   H     H_    0.333164 0.998865 0.262461 0.119320
H23   H     H_    0.929225 0.509318 0.783010 0.144900
H24   H     H_    0.310537 0.855665 0.347781 0.161135
H25   H     H_    0.927696 0.672703 0.778037 0.117146
H26   H     H_    0.851376 0.716652 0.665435 0.121303
H27   H     H_    0.718783 0.499057 0.828139 0.138782
H28   H     H_    0.550703 0.654880 0.824053 0.131395
H29   H     H_    0.538766 0.591736 0.710142 0.113237
H30   H     H_    0.177628 0.341534 0.552512 0.141540
H31   H     H_    0.022176 0.343969 0.519253 0.141360
H32   H     H_    0.092994 0.437709 0.472933 0.150316
H33   H     H_    0.886324 0.603227 0.540473 0.171679
H34   H     H_    0.514349 0.129130 0.686109 0.135563
H35   H     H_    0.034970 0.601593 0.575195 0.182982
H36   H     H_    0.051305 0.463740 0.675656 0.148027
H37   H     H_    0.939365 0.408628 0.646088 0.191268
H38   H     H_    0.892284 0.381885 0.004810 0.190701
H39   H     H_    0.041523 0.215944 0.028705 0.109203
H40   H     H_    0.064930 0.362570 0.006679 0.161327
H41   H     H_    0.135059 0.184542 0.910636 0.125570
H42   H     H_    0.001242 0.355932 0.881580 0.202725
H43   H     H_    0.826851 0.269244 0.917822 0.151705
H44   H     H_    0.990720 0.097987 0.921675 0.207044
H45   H     H_    0.519067 0.125313 0.807070 0.161444
H46   H     H_    0.922142 0.131049 0.611606 0.137472
H47   H     H_    0.270207 0.422440 0.909571 0.123943
H48   H     H_    0.297439 0.363941 0.651347 0.174670
H49   H     H_    0.319182 0.928938 0.514692 0.195264
H50   H     H_    0.208874 0.980716 0.592156 0.165193
H51   H     H_    0.219096 0.108167 0.537418 0.077647
H52   H     H_    0.375398 0.098460 0.618241 0.134021
H53   H     H_    0.494465 0.949389 0.568686 0.163500
H54   H     H_    0.399242 0.824258 0.669583 0.190792
H55   H     H_    0.372630 0.970931 0.716984 0.100308
H56   H     H_    0.118285 0.165465 0.794108 0.110474
H57   H     H_    0.180694 0.257975 0.290509 0.097355
H58   H     H_    0.106127 0.151814 0.669027 0.105633
H59   H     H_    0.194062 0.851095 0.697106 0.142092
H60   H     H_    0.527590 0.893628 0.802912 0.135416
O1    O     O_R   0.507340 0.255690 0.581430 -0.553059
O2    O     O_R   0.837290 0.593240 0.915240 -0.542383
O3    O     O_R   0.065320 0.635310 0.931580 -0.524552
O4    O     O_R   0.280360 0.527380 0.578910 -0.523733
O5    O     O_R   0.068470 0.828620 0.091850 -0.526968
O6    O     O_R   0.799150 0.057200 0.079350 -0.514565
O7    O     O_R   0.585220 0.080180 0.076770 -0.530506
O8    O     O_R   0.627170 0.809480 0.067050 -0.504719
O9    O     O_R   0.816200 0.596410 0.076500 -0.535055
O10   O     O_R   0.045770 0.638240 0.081070 -0.513724
O11   O     O_3   0.833840 0.833520 0.001110 -0.245754
O12   O     O_R   0.524510 0.695820 0.424050 -0.535671
O13   O     O_R   0.260600 0.739610 0.584580 -0.540533
O14   O     O_R   0.532370 0.695050 0.573830 -0.519604
O15   O     O_R   0.744850 0.503430 0.576380 -0.527276
O16   O     O_R   0.699080 0.276500 0.571950 -0.510778
O17   O     O_R   0.498860 0.256520 0.419860 -0.544172
O18   O     O_R   0.272490 0.528150 0.429140 -0.505704
O19   O     O_R   0.252110 0.740440 0.423010 -0.544079
O20   O     O_R   0.736370 0.504260 0.414810 -0.537187
O21   O     O_R   0.691220 0.277270 0.422180 -0.496543
O22   O     O_3   0.499990 0.499990 0.499980 -0.260348
O23   O     O_R   0.089570 0.825450 0.930590 -0.543857
O24   O     O_R   0.818700 0.054260 0.929860 -0.526270
O25   O     O_R   0.606310 0.077010 0.915520 -0.538220
O26   O     O_R   0.646730 0.806540 0.917560 -0.508838

loop_
_geom_bond_atom_site_label_1
_geom_bond_atom_site_label_2
_ccdc_geom_bond_type
C74   H39   S    
C34   C56   S    
Cr2   O14   S    
C64   H60   S    
C3    H45   S    
Cr5   O11   S    
C41   C42   A    
C19   C20   A    
Cr6   O3    S    
C29   H6    S    
C75   C76   S    
Cr5   O26   S    
C34   C66   S    
C7    H58   S    
C72   H44   S    
C4    O15   A    
C53   C54   A    
C1    C21   S    
C12   C23   S    
C26   C27   A    
C62   O7    A    
C72   H43   S    
C14   C21   A    
C1    O13   A    
C9    C16   S    
C70   H33   S    
C5    C72   S    
Cr5   O25   S    
C75   H55   S    
C9    C79   A    
C30   C31   A    
Cr1   O4    S    
C4    O14   A    
C52   O17   A    
C73   H41   S    
C46   C52   S    
C49   C57   A    
C16   O1    A    
C18   C19   A    
C73   C74   S    
C65   O5    A    
C24   C29   A    
C52   O21   A    
C22   C63   S    
C57   H24   S    
C47   C48   A    
C70   H35   S    
C8    C79   A    
C1    O4    A    
C70   C71   S    
C60   O2    A    
C20   H48   S    
C59   O25   A    
Cr1   O22   S    
Cr4   O5    S    
C59   C67   S    
C25   C32   A    
Cr1   O1    S    
C74   H38   S    
C17   H47   S    
C36   C41   A    
C48   C53   A    
C67   C78   A    
C56   H12   S    
C45   C68   S    
C64   H1    S    
C50   C51   A    
Cr4   O6    S    
Cr3   O22   S    
C23   C60   S    
C14   H59   S    
C33   C40   S    
Cr2   O12   S    
C62   O6    A    
C54   H21   S    
C45   C69   S    
C50   C58   A    
C40   O12   A    
C7    C8    A    
C38   C39   A    
C76   C77   S    
C63   O8    A    
C68   H25   S    
C71   H32   S    
C78   C79   A    
C47   C51   A    
Cr4   O11   S    
C51   H19   S    
C76   H52   S    
C18   H3    S    
C49   C58   A    
C55   H22   S    
Cr6   O11   S    
C64   C66   S    
C23   C68   S    
C35   C39   A    
C43   C44   A    
Cr1   O18   S    
C29   C30   A    
C19   H4    S    
C42   H15   S    
Cr3   O15   S    
Cr5   O8    S    
C26   C33   A    
C39   H14   S    
C31   C32   A    
C69   H36   S    
C44   H16   S    
C8    H46   S    
C17   C18   A    
Cr2   O22   S    
C71   H30   S    
C27   H7    S    
C34   C45   S    
Cr6   O10   S    
C24   C25   A    
C6    H56   S    
Cr1   O17   S    
C40   O20   A    
C12   C56   S    
Cr5   O7    S    
C23   C64   S    
C77   H51   S    
C50   H17   S    
C76   H53   S    
C22   C27   A    
C55   C57   A    
Cr2   O19   S    
C22   C24   A    
C10   C61   S    
C26   H5    S    
C42   C43   A    
C66   H20   S    
C12   H27   S    
C28   O19   A    
C15   H2    S    
C12   H28   S    
Cr3   O21   S    
C54   C55   A    
C48   C49   A    
Cr2   O13   S    
C13   C20   A    
C14   C15   A    
C60   O26   A    
C61   O3    A    
C3    C67   A    
Cr6   O2    S    
C63   O9    A    
C72   C73   S    
C11   C17   A    
C2    H34   S    
C45   H26   S    
C6    C7    A    
Cr3   O16   S    
C28   C58   S    
C16   O16   A    
C30   H8    S    
C31   H9    S    
C68   H23   S    
Cr4   O23   S    
C10   C15   A    
C61   O23   A    
C37   C44   A    
C2    C3    A    
C37   C46   A    
C65   O10   A    
C73   H42   S    
C13   C21   A    
C11   C13   A    
C5    C6    A    
C69   H37   S    
C53   H18   S    
C66   C75   S    
Cr4   O24   S    
C71   H31   S    
C35   C62   S    
Cr6   O9    S    
C4    C34   S    
C69   C70   S    
C38   C46   A    
C10   C11   A    
C74   H40   S    
C32   H10   S    
C36   C37   A    
C77   H49   S    
C38   H11   S    
C56   H29   S    
C41   H13   S    
C43   H57   S    
C75   H54   S    
C35   C36   A    
C77   H50   S    
C5    C78   A    
C59   O24   A    
C2    C9    A    
C47   C65   S    
C28   O18   A    
C25   C33   A    
Cr3   O20   S    
