data_mof_unit_54794.cif
_audit_creation_date              2012-12-10T17:43:40-0500
_audit_creation_method            fapswitch 2.2
_symmetry_space_group_name_H-M    P1
_symmetry_Int_Tables_number       1
_space_group_crystal_system       triclinic
_cell_length_a                    15.003802
_cell_length_b                    10.712418
_cell_length_c                    9.930068
_cell_angle_alpha                 88.128758
_cell_angle_beta                  89.754682
_cell_angle_gamma                 93.620794
_cell_volume                      1591.96253923

loop_
_atom_site_label
_atom_site_type_symbol
_atom_type_description
_atom_site_fract_x
_atom_site_fract_y
_atom_site_fract_z
_atom_type_partial_charge
C1    C     C_R   0.502583 0.259622 0.503663 0.895799
C2    C     C_R   0.184778 0.504146 0.622942 -0.277298
C3    C     C_R   0.230911 0.502844 0.500402 -0.066731
C4    C     C_R   0.326803 0.501249 0.500243 0.883668
C5    C     C_R   0.185405 0.502799 0.377716 -0.254058
C6    C     C_R   0.443154 0.097638 0.751026 -0.194022
C7    C     C_R   0.390044 0.026256 0.844242 -0.153614
C8    C     C_R   0.356665 0.907062 0.812820 -0.133108
C9    C     C_R   0.382791 0.855587 0.693227 -0.147997
C10   C     C_R   0.441224 0.924911 0.601985 0.099169
C11   C     C_R   0.462223 0.052033 0.622086 0.108793
C12   C     C_R   0.907788 0.500660 0.376316 0.120634
C13   C     C_R   0.502131 0.125130 0.512122 -0.109386
C14   C     C_R   0.532707 0.068295 0.397568 -0.210700
C15   C     C_R   0.525581 0.940863 0.390285 -0.210635
C16   C     C_R   0.493596 0.738488 0.497808 0.871981
C17   C     C_R   0.482273 0.869490 0.493410 -0.116970
C18   C     C_R   0.353660 0.361052 0.133762 0.000758
C19   C     C_R   0.280103 0.323128 0.054991 -0.252015
C20   C     C_R   0.288106 0.320142 0.917699 -0.239273
C21   C     C_R   0.366957 0.364287 0.857499 -0.167854
C22   C     C_R   0.433073 0.432747 0.928274 0.142914
C23   C     C_R   0.953120 0.503450 0.745878 -0.219204
C24   C     C_R   0.430740 0.431583 0.073286 0.117885
C25   C     C_R   0.564568 0.564006 0.068843 -0.125009
C26   C     C_R   0.564350 0.564254 0.926025 -0.106283
C27   C     C_R   0.673286 0.500403 0.499779 0.895315
C28   C     C_R   0.815543 0.500055 0.377086 -0.263068
C29   C     C_R   0.769325 0.500633 0.499666 -0.075212
C30   C     C_R   0.814859 0.501716 0.622415 -0.258039
C31   C     C_R   0.907057 0.502313 0.623507 0.118943
C32   C     C_R   0.953787 0.501823 0.499992 0.060551
C33   C     C_1   0.346271 0.292752 0.260489 0.267396
C34   C     C_R   0.045759 0.504109 0.746010 -0.220391
C35   C     C_R   0.092563 0.503695 0.623785 0.121691
C36   C     C_R   0.046540 0.502538 0.500148 0.063425
C37   C     C_R   0.093266 0.502179 0.376642 0.116764
C38   C     C_R   0.047264 0.500939 0.254265 -0.221090
C39   C     C_R   0.954634 0.500180 0.254106 -0.218586
H1    H     H_    0.779965 0.499222 0.282225 0.159532
H2    H     H_    0.375525 0.339993 0.755567 0.214245
H3    H     H_    0.778783 0.502219 0.717266 0.160073
H4    H     H_    0.616983 0.617208 0.870358 0.144042
H5    H     H_    0.917556 0.503805 0.841114 0.140438
H6    H     H_    0.080735 0.504818 0.841310 0.145539
H7    H     H_    0.220363 0.505496 0.717688 0.172973
H8    H     H_    0.221399 0.503065 0.282841 0.164623
H9    H     H_    0.082866 0.500426 0.159066 0.144379
H10   H     H_    0.919696 0.499225 0.158780 0.140412
H11   H     H_    0.564558 0.122518 0.314545 0.165986
H12   H     H_    0.473164 0.183409 0.787343 0.173172
H13   H     H_    0.375159 0.063499 0.941308 0.153662
H14   H     H_    0.313629 0.852545 0.883465 0.139023
H15   H     H_    0.357324 0.761334 0.672879 0.151671
H16   H     H_    0.556171 0.898004 0.305704 0.166625
H17   H     H_    0.617304 0.616676 0.120188 0.139219
H18   H     H_    0.219827 0.277857 0.100234 0.156042
H19   H     H_    0.235591 0.274804 0.858780 0.169530
N1    N     N_R   0.499150 0.498800 0.142780 -0.120156
N2    N     N_R   0.499120 0.498720 0.857170 -0.123230
N3    N     N_1   0.333011 0.233425 0.358989 -0.230807
O1    O     O_R   0.500000 0.316780 0.614690 -0.660260
O2    O     O_R   0.499990 0.316750 0.385360 -0.615530
O3    O     O_R   0.367850 0.499980 0.614680 -0.655239
O4    O     O_R   0.367840 0.499960 0.385350 -0.627628
O5    O     O_R   0.500010 0.683250 0.614640 -0.615519
O6    O     O_R   0.500000 0.683220 0.385310 -0.618873
O7    O     O_R   0.632160 0.500040 0.614650 -0.625509
O8    O     O_R   0.632150 0.500020 0.385320 -0.629867
Zn1   Zn    Zn3+2 0.500010 0.500020 0.653130 0.927555
Zn2   Zn    Zn3+2 0.499990 0.499980 0.346870 0.948737

loop_
_geom_bond_atom_site_label_1
_geom_bond_atom_site_label_2
_ccdc_geom_bond_type
C8    H14   S    
C26   H4    S    
O3    Zn1   S    
C6    C7    A    
C18   C24   A    
C5    C37   A    
C6    H12   S    
C27   C29   S    
C11   C13   A    
C9    C10   A    
C4    O3    A    
C38   H9    S    
C35   C36   A    
C27   O8    A    
C25   H17   S    
N2    Zn1   S    
C30   C31   A    
C23   C34   A    
C1    O1    A    
C20   C21   A    
C12   C39   A    
C2    C3    A    
C38   C39   A    
O8    Zn2   S    
C7    C8    A    
C34   H6    S    
C14   H11   S    
C21   C22   A    
C2    H7    S    
C5    H8    S    
C29   C30   A    
C26   N2    A    
C12   C28   A    
C24   N1    A    
C21   H2    S    
C1    O2    A    
O7    Zn1   S    
C28   C29   A    
C39   H10   S    
C37   C38   A    
O2    Zn2   S    
C7    H13   S    
C34   C35   A    
O6    Zn2   S    
C22   N2    A    
C4    O4    A    
C18   C33   S    
C22   C24   A    
C1    C13   S    
C10   C11   A    
C28   H1    S    
C10   C17   A    
C20   H19   S    
C3    C4    S    
C32   C36   A    
C16   O5    A    
O5    Zn1   S    
O1    Zn1   S    
C9    H15   S    
C33   N3    T    
C18   C19   A    
C6    C11   A    
C15   C17   A    
C2    C35   A    
C14   C15   A    
C36   C37   A    
C27   O7    A    
C25   N1    A    
C13   C14   A    
C23   C31   A    
C25   C26   A    
O4    Zn2   S    
C16   O6    A    
C30   H3    S    
C19   H18   S    
C31   C32   A    
C12   C32   A    
C23   H5    S    
C19   C20   A    
C16   C17   S    
N1    Zn2   S    
C8    C9    A    
C3    C5    A    
C15   H16   S    
