data_mof_unit_33908.cif
_audit_creation_date              2012-12-11T14:10:57-0500
_audit_creation_method            fapswitch 2.2
_symmetry_space_group_name_H-M    P1
_symmetry_Int_Tables_number       1
_space_group_crystal_system       triclinic
_cell_length_a                    19.659282
_cell_length_b                    17.297418
_cell_length_c                    15.41586
_cell_angle_alpha                 89.990528
_cell_angle_beta                  52.668108
_cell_angle_gamma                 90.096974
_cell_volume                      4168.28135585

loop_
_atom_site_label
_atom_site_type_symbol
_atom_type_description
_atom_site_fract_x
_atom_site_fract_y
_atom_site_fract_z
_atom_type_partial_charge
C1    C     C_R   0.375142 0.197076 0.994085 -0.201607
C2    C     C_3   0.666582 0.723446 0.463801 -0.148635
C3    C     C_3   0.792149 0.191774 0.413030 -0.164217
C4    C     C_3   0.296230 0.759429 0.566953 -0.161198
C5    C     C_3   0.747906 0.728341 0.554541 -0.145193
C6    C     C_3   0.166267 0.222990 0.464198 -0.148480
C7    C     C_3   0.291505 0.692094 0.413373 -0.164134
C8    C     C_3   0.795710 0.259763 0.567185 -0.161230
C9    C     C_2   0.185901 0.746392 0.100068 -0.216398
C10   C     C_2   0.711921 0.313368 0.046176 -0.115357
C11   C     C_2   0.812765 0.745577 0.901133 -0.163692
C12   C     C_R   0.661348 0.825478 0.950857 -0.184670
C13   C     C_2   0.288831 0.313369 0.952446 -0.154163
C14   C     C_2   0.685905 0.246388 0.100067 -0.216385
C15   C     C_2   0.211926 0.813366 0.046164 -0.115365
C16   C     C_2   0.312759 0.245573 0.901138 -0.163674
C17   C     C_2   0.788827 0.813367 0.952458 -0.154181
C18   C     C_R   0.390123 0.803154 0.213618 -0.132309
C19   C     C_R   0.649850 0.173509 0.779294 -0.119594
C20   C     C_R   0.609971 0.803508 0.785454 -0.144353
C21   C     C_R   0.349668 0.172720 0.221669 -0.134428
C22   C     C_R   0.890206 0.303131 0.213568 -0.132203
C23   C     C_R   0.624241 0.197328 0.006748 -0.206887
C24   C     C_R   0.149885 0.673472 0.779291 -0.119694
C25   C     C_R   0.109910 0.303493 0.785479 -0.144406
C26   C     C_R   0.849649 0.672698 0.221656 -0.134317
C27   C     C_R   0.330491 0.910957 0.949365 0.470424
C28   C     C_R   0.628156 0.112546 0.110210 0.595827
C29   C     C_R   0.670448 0.913012 0.048437 0.524248
C30   C     C_R   0.370758 0.112311 0.891001 0.554670
C31   C     C_R   0.830489 0.410958 0.949370 0.470440
C32   C     C_R   0.128156 0.612546 0.110210 0.595810
C33   C     C_R   0.170450 0.413013 0.048433 0.524264
C34   C     C_R   0.337841 0.826191 0.050773 -0.224829
C35   C     C_R   0.870759 0.612312 0.891000 0.554660
C36   C     C_R   0.358280 0.080649 0.317420 -0.104295
C37   C     C_R   0.602863 0.895733 0.689532 -0.147812
C38   C     C_R   0.642580 0.081084 0.682812 -0.116984
C39   C     C_R   0.398535 0.894335 0.309531 -0.138917
C40   C     C_R   0.858251 0.580629 0.317411 -0.104431
C41   C     C_R   0.102786 0.395715 0.689572 -0.147753
C42   C     C_R   0.142607 0.581048 0.682824 -0.116884
C43   C     C_R   0.898594 0.394314 0.309497 -0.138981
C44   C     C_R   0.350605 0.187543 0.927992 -0.033878
C45   C     C_R   0.875147 0.697077 0.994080 -0.201655
C46   C     C_R   0.714083 0.852484 0.975853 -0.052416
C47   C     C_R   0.648130 0.188003 0.073503 -0.056898
C48   C     C_R   0.285874 0.852575 0.024557 0.050731
C49   C     C_R   0.850609 0.687545 0.927988 -0.033885
C50   C     C_R   0.214086 0.352487 0.975843 -0.052419
C51   C     C_R   0.148128 0.688004 0.073504 -0.056898
C52   C     C_R   0.785871 0.352577 0.024566 0.050738
C53   C     C_R   0.374965 0.819530 0.310888 0.028389
C54   C     C_R   0.691022 0.141557 0.677045 0.015222
C55   C     C_R   0.626387 0.821023 0.687415 0.038172
C56   C     C_R   0.161351 0.325483 0.950846 -0.184686
C57   C     C_R   0.309206 0.140421 0.324093 0.013840
C58   C     C_R   0.875101 0.319488 0.310807 0.028360
C59   C     C_R   0.191089 0.641484 0.677052 0.015130
C60   C     C_R   0.126258 0.320992 0.687477 0.038155
C61   C     C_R   0.809153 0.640378 0.324074 0.013767
C62   C     C_3   0.212725 0.154601 0.539271 -0.161977
C63   C     C_3   0.702052 0.797440 0.479743 -0.163639
C64   C     C_3   0.829476 0.154973 0.467368 -0.155344
C65   C     C_3   0.258453 0.796126 0.513608 -0.151934
C66   C     C_3   0.712281 0.654464 0.539327 -0.161987
C67   C     C_R   0.124239 0.697328 0.006749 -0.206930
C68   C     C_3   0.201476 0.297294 0.479903 -0.163686
C69   C     C_3   0.329079 0.654802 0.467123 -0.155506
C70   C     C_3   0.758174 0.295961 0.513271 -0.151741
C71   C     C_3   0.627992 0.696778 0.581731 -0.149579
C72   C     C_3   0.285191 0.255894 0.438543 -0.136980
C73   C     C_3   0.375499 0.731773 0.454055 -0.142207
C74   C     C_3   0.713378 0.219873 0.524418 -0.135144
C75   C     C_3   0.128127 0.196451 0.582032 -0.149733
C76   C     C_3   0.785453 0.755582 0.438748 -0.136797
C77   C     C_3   0.875384 0.232230 0.454546 -0.142340
C78   C     C_R   0.837838 0.326195 0.050784 -0.224851
C79   C     C_3   0.213147 0.720318 0.525009 -0.134906
C80   C     C_3   0.664903 0.769829 0.595086 0.178490
C81   C     C_3   0.249618 0.182233 0.423959 0.181451
C82   C     C_3   0.336441 0.767791 0.402669 0.182451
C83   C     C_3   0.751097 0.183818 0.577676 0.179815
C84   C     C_3   0.164780 0.269807 0.595144 0.178486
C85   C     C_3   0.749618 0.682226 0.423923 0.181409
C86   C     C_3   0.836568 0.267755 0.402583 0.182482
C87   C     C_3   0.251111 0.683769 0.577686 0.179762
C88   C     C_3   0.248093 0.228776 0.554234 -0.144988
H1    H     H_    0.381577 0.250920 0.023904 0.119684
H2    H     H_    0.668095 0.224611 0.800905 0.101815
H3    H     H_    0.612290 0.746937 0.813419 0.097296
H4    H     H_    0.330560 0.223742 0.201101 0.106773
H5    H     H_    0.888413 0.246880 0.184461 0.091193
H6    H     H_    0.168140 0.724579 0.800880 0.101920
H7    H     H_    0.112233 0.246924 0.813447 0.097335
H8    H     H_    0.830546 0.723723 0.201088 0.106758
H9    H     H_    0.347738 0.046700 0.383402 0.096964
H10   H     H_    0.597875 0.923943 0.631015 0.101152
H11   H     H_    0.654215 0.047523 0.615945 0.103925
H12   H     H_    0.671071 0.776364 0.901594 0.124622
H13   H     H_    0.403250 0.921899 0.368678 0.112106
H14   H     H_    0.847698 0.546687 0.383405 0.097077
H15   H     H_    0.097783 0.423936 0.631073 0.101102
H16   H     H_    0.154240 0.547484 0.615959 0.103946
H17   H     H_    0.903301 0.421884 0.368647 0.112159
H18   H     H_    0.562187 0.674487 0.643283 0.116545
H19   H     H_    0.350593 0.279571 0.378095 0.119342
H20   H     H_    0.443359 0.737987 0.421664 0.116807
H21   H     H_    0.645904 0.214316 0.554799 0.122662
H22   H     H_    0.062480 0.173899 0.643790 0.116543
H23   H     H_    0.617515 0.251241 0.977371 0.124951
H24   H     H_    0.851017 0.778992 0.378499 0.119417
H25   H     H_    0.943105 0.238811 0.422599 0.116833
H26   H     H_    0.145530 0.715125 0.555847 0.122668
H27   H     H_    0.217666 0.095150 0.562074 0.111381
H28   H     H_    0.697884 0.856804 0.455976 0.115556
H29   H     H_    0.857216 0.096194 0.451799 0.115684
H30   H     H_    0.230105 0.854790 0.530740 0.114440
H31   H     H_    0.716827 0.594898 0.562179 0.111399
H32   H     H_    0.196886 0.356544 0.456217 0.115596
H33   H     H_    0.356547 0.595883 0.451310 0.115672
H34   H     H_    0.327365 0.777355 0.100887 0.126971
H35   H     H_    0.729550 0.354484 0.530163 0.114473
H36   H     H_    0.280893 0.232313 0.592651 0.115032
H37   H     H_    0.634739 0.719846 0.424193 0.116259
H38   H     H_    0.790904 0.164643 0.348761 0.112025
H39   H     H_    0.297726 0.785959 0.631336 0.120381
H40   H     H_    0.780501 0.731515 0.593248 0.114994
H41   H     H_    0.134222 0.219026 0.424875 0.116207
H42   H     H_    0.289771 0.665243 0.349347 0.112040
H43   H     H_    0.796748 0.286590 0.631778 0.120356
H44   H     H_    0.206809 0.728644 0.147736 0.122915
H45   H     H_    0.881588 0.750921 0.023893 0.119691
H46   H     H_    0.689923 0.332944 0.000290 0.161593
H47   H     H_    0.790230 0.727061 0.855587 0.116631
H48   H     H_    0.313156 0.332662 0.995566 0.116451
H49   H     H_    0.706821 0.228634 0.147724 0.122933
H50   H     H_    0.189936 0.832938 0.000268 0.161600
H51   H     H_    0.290214 0.227051 0.855604 0.116637
H52   H     H_    0.813142 0.832656 0.995590 0.116453
H53   H     H_    0.369885 0.948043 0.810136 0.351109
H54   H     H_    0.633597 0.122693 0.231076 0.296528
H55   H     H_    0.754208 0.943624 0.069067 0.295782
H56   H     H_    0.171077 0.276376 0.901571 0.124633
H57   H     H_    0.364551 0.123131 0.770729 0.305053
H58   H     H_    0.869880 0.448043 0.810142 0.351111
H59   H     H_    0.133617 0.622687 0.231059 0.296519
H60   H     H_    0.254211 0.443624 0.069061 0.295784
H61   H     H_    0.864548 0.623130 0.770731 0.305046
H62   H     H_    0.117513 0.751241 0.977371 0.124966
H63   H     H_    0.827359 0.277367 0.100911 0.126992
H64   H     H_    0.388321 0.746896 0.184533 0.091242
N1    N     N_R   0.408680 0.130810 0.995780 -0.071750
N2    N     N_R   0.578590 0.132790 0.846380 -0.041870
N3    N     N_R   0.578590 0.867210 0.846380 -0.035902
N4    N     N_R   0.421410 0.132790 0.153620 -0.043529
N5    N     N_R   0.921410 0.367210 0.153620 -0.037957
N6    N     N_R   0.078590 0.632790 0.846380 -0.041874
N7    N     N_R   0.078590 0.367210 0.846380 -0.035906
N8    N     N_R   0.921410 0.632790 0.153620 -0.043537
N9    N     N_R   0.403840 0.921910 0.935760 -0.103061
N10   N     N_R   0.596160 0.078090 0.064240 -0.079224
N11   N     N_R   0.596160 0.921910 0.064240 -0.072102
N12   N     N_R   0.591320 0.869190 0.004220 -0.073423
N13   N     N_R   0.403840 0.078090 0.935760 -0.082406
N14   N     N_R   0.903840 0.421910 0.935760 -0.103053
N15   N     N_R   0.096160 0.578090 0.064240 -0.079219
N16   N     N_R   0.096160 0.421910 0.064240 -0.072093
N17   N     N_R   0.903840 0.578090 0.935760 -0.082403
N18   N     N_R   0.426250 0.076100 0.213650 -0.039774
N19   N     N_R   0.573750 0.923900 0.786350 -0.040070
N20   N     N_R   0.573750 0.076100 0.786350 -0.038543
N21   N     N_R   0.426250 0.923900 0.213650 -0.040132
N22   N     N_R   0.926250 0.576100 0.213650 -0.039773
N23   N     N_R   0.591320 0.130810 0.004220 -0.076815
N24   N     N_R   0.073750 0.423900 0.786350 -0.040077
N25   N     N_R   0.073750 0.576100 0.786350 -0.038560
N26   N     N_R   0.926250 0.423900 0.213650 -0.040137
N27   N     N_R   0.408680 0.869190 0.995780 -0.065613
N28   N     N_R   0.908680 0.630810 0.995780 -0.071744
N29   N     N_R   0.091320 0.369190 0.004220 -0.073417
N30   N     N_R   0.091320 0.630810 0.004220 -0.076805
N31   N     N_R   0.908680 0.369190 0.995780 -0.065609
N32   N     N_R   0.421410 0.867210 0.153620 -0.037942
Ni1   Ni    Ni4+2 0.500000 0.131570 0.000000 0.190749
Ni2   Ni    Ni4+2 0.500000 0.868430 0.000000 0.195324
Ni3   Ni    Ni4+2 0.000000 0.631570 0.000000 0.190744
Ni4   Ni    Ni4+2 0.000000 0.368430 0.000000 0.195314
Ni5   Ni    Ni4+2 0.488900 1.000000 0.862310 0.237280
Ni6   Ni    Ni4+2 0.511100 0.000000 0.137690 0.281598
Ni7   Ni    Ni4+2 0.988900 0.500000 0.862310 0.237277
Ni8   Ni    Ni4+2 0.011100 0.500000 0.137690 0.281588
O1    O     O_3   0.313491 0.937700 0.880638 -0.752815
O2    O     O_3   0.615732 0.083366 0.202020 -0.720309
O3    O     O_3   0.693656 0.954770 0.102518 -0.728498
O4    O     O_3   0.382659 0.083796 0.799384 -0.779274
O5    O     O_3   0.813486 0.437701 0.880645 -0.752817
O6    O     O_3   0.115737 0.583365 0.202016 -0.720320
O7    O     O_3   0.193659 0.454769 0.102515 -0.728501
O8    O     O_3   0.882659 0.583796 0.799384 -0.779278

loop_
_geom_bond_atom_site_label_1
_geom_bond_atom_site_label_2
_ccdc_geom_bond_type
C27   C48   A    
C28   C47   A    
C65   C79   S    
C20   N3    A    
C36   N18   A    
C8    C83   S    
C64   C77   S    
C29   N11   A    
C62   C81   S    
N11   N12   A    
C9    C51   S    
N5    Ni4   S    
C31   O5    S    
C74   C83   S    
C88   H36   S    
C10   C52   S    
N6    Ni3   S    
C66   C85   S    
C79   C87   S    
C3    H38   S    
C28   N10   A    
C6    C75   S    
C43   N26   A    
N27   Ni2   S    
C3    C64   S    
N15   Ni8   S    
N25   Ni7   S    
C67   N30   A    
N6    N25   A    
C78   N31   A    
N12   Ni2   S    
C20   C55   A    
C4    C65   S    
C24   N6    A    
C75   C84   S    
C68   C72   S    
N15   N30   A    
C23   N23   A    
C56   N29   A    
C33   O7    S    
C42   N25   A    
N21   Ni6   S    
C8    C70   S    
N19   Ni5   S    
C2    C85   S    
N14   Ni7   S    
C43   H17   S    
C3    C74   S    
C70   C74   S    
C71   C80   S    
H57   O4    S    
C32   O6    S    
C18   C53   A    
C70   H35   S    
C30   O4    S    
N21   N32   A    
C7    H42   S    
C35   C49   A    
C29   C46   A    
N13   Ni5   S    
C65   H30   S    
C14   H49   S    
C26   N8    A    
C36   H9    S    
C27   O1    S    
C25   C60   A    
C69   H33   S    
N9    N27   A    
C16   C44   S    
N17   N28   A    
C72   C81   S    
C69   C87   S    
C39   N21   A    
N5    N26   A    
C15   H50   S    
C6    C68   S    
C34   H34   S    
C6    C81   S    
C3    C86   S    
C30   C44   A    
C34   N27   A    
C15   C48   S    
C74   H21   S    
C6    H41   S    
C18   H64   S    
C58   C86   S    
C54   C83   S    
C72   C88   S    
N29   Ni4   S    
C78   H63   S    
C39   H13   S    
C63   C80   S    
C13   C16   D    
C26   H8    S    
N2    Ni1   S    
C23   C47   A    
N14   N31   A    
N2    N20   A    
C68   C84   S    
C84   C88   S    
C17   C46   S    
C30   N13   A    
N9    Ni5   S    
C36   C57   A    
C10   C14   D    
C4    C87   S    
C25   N7    A    
C5    C66   S    
N24   Ni7   S    
H53   O1    S    
N10   N23   A    
C9    H44   S    
C33   C50   A    
N4    Ni1   S    
C62   C88   S    
C50   C56   A    
C64   H29   S    
C41   H15   S    
C12   H12   S    
C53   C82   S    
C56   H56   S    
N7    Ni4   S    
C1    N1    A    
C64   C83   S    
C21   C57   A    
C11   C49   S    
N28   Ni3   S    
C24   H6    S    
N23   Ni1   S    
N26   Ni8   S    
N11   Ni6   S    
C71   H18   S    
C1    C44   A    
C28   O2    S    
C66   C71   S    
C38   C54   A    
C31   N14   A    
C18   N32   A    
C76   H24   S    
H55   O3    S    
C8    H43   S    
C45   C49   A    
H54   O2    S    
C37   H10   S    
C51   C67   A    
C5    C80   S    
C69   C73   S    
C4    C73   S    
C61   C85   S    
C63   H28   S    
C19   C54   A    
C12   C46   A    
C77   H25   S    
C41   N24   A    
C77   C86   S    
C25   H7    S    
N7    N24   A    
C8    C77   S    
C35   N17   A    
C13   H48   S    
C57   C81   S    
C62   C75   S    
C45   N28   A    
C33   N16   A    
C34   C48   A    
N17   Ni7   S    
C2    C71   S    
C70   C86   S    
C73   C82   S    
N10   Ni6   S    
C2    C63   S    
C7    C79   S    
C32   C51   A    
C79   H26   S    
C11   C17   D    
C75   H22   S    
C1    H1    S    
C4    H39   S    
N1    N13   A    
N8    N22   A    
C26   C61   A    
C11   H47   S    
C10   H46   S    
C41   C60   A    
C38   H11   S    
C73   H20   S    
N3    Ni2   S    
C42   H16   S    
C42   C59   A    
C22   C58   A    
H60   O7    S    
C38   N20   A    
C14   C47   S    
C22   N5    A    
N20   Ni5   S    
C23   H23   S    
N18   Ni6   S    
C45   H45   S    
N16   Ni8   S    
C31   C52   A    
C72   H19   S    
C66   H31   S    
H58   O5    S    
C7    C69   S    
C9    C15   D    
C62   H27   S    
C19   H2    S    
C29   O3    S    
N31   Ni4   S    
C27   N9    A    
C40   N22   A    
C55   C80   S    
C60   C84   S    
C35   O8    S    
C65   C82   S    
C39   C53   A    
N1    Ni1   S    
C12   N12   A    
C5    C76   S    
C24   C59   A    
C5    H40   S    
N4    N18   A    
C22   H5    S    
C21   N4    A    
N32   Ni2   S    
C17   H52   S    
N30   Ni3   S    
C59   C87   S    
C37   N19   A    
C40   C61   A    
H61   O8    S    
C40   H14   S    
C13   C50   S    
C37   C55   A    
C2    H37   S    
N3    N19   A    
C20   H3    S    
C52   C78   A    
C7    C82   S    
N16   N29   A    
C63   C76   S    
C32   N15   A    
C16   H51   S    
C19   N2    A    
C43   C58   A    
H59   O6    S    
N8    Ni3   S    
C76   C85   S    
C68   H32   S    
N22   Ni8   S    
C67   H62   S    
C21   H4    S    
