data_mof_unit_64493.cif
_audit_creation_date              2013-03-05T16:19:36-0500
_audit_creation_method            fapswitch 2.2
_symmetry_space_group_name_H-M    P1
_symmetry_Int_Tables_number       1
_space_group_crystal_system       triclinic
_cell_length_a                    19.108889
_cell_length_b                    18.856539
_cell_length_c                    18.722438
_cell_angle_alpha                 109.236778
_cell_angle_beta                  109.543264
_cell_angle_gamma                 110.082365
_cell_volume                      5164.05752822

loop_
_atom_site_label
_atom_site_type_symbol
_atom_site_description
_atom_site_fract_x
_atom_site_fract_y
_atom_site_fract_z
_atom_type_partial_charge
O1    O     O_R   0.409840 0.357650 0.447820 -0.507624
O2    O     O_R   0.409810 0.462010 0.552170 -0.549082
C1    C     C_R   0.379640 0.381285 0.498397 0.889223
O3    O     O_R   0.590190 0.447820 0.538000 -0.573836
O4    O     O_R   0.590150 0.552180 0.642350 -0.548478
C2    C     C_R   0.617378 0.498989 0.619291 0.828473
Cu1   Cu    Cu3+1 0.500020 0.438210 0.438210 1.104230
Cu2   Cu    Cu3+1 0.499980 0.561790 0.561790 1.141401
O5    O     O_R   0.590190 0.537990 0.447830 -0.595419
O6    O     O_R   0.590160 0.642350 0.552180 -0.534599
O7    O     O_R   0.409850 0.447820 0.357650 -0.567604
O8    O     O_R   0.409810 0.552180 0.462000 -0.578833
C3    C     C_R   0.620629 0.619541 0.502178 0.794914
C4    C     C_R   0.381781 0.500156 0.380662 0.785366
H1    H     H_    0.543308 0.196715 0.559241 0.212443
C5    C     C_R   0.775215 0.660426 0.757383 -0.131165
C6    C     C_R   0.846016 0.739882 0.828619 -0.065278
C7    C     C_R   0.903571 0.741780 0.899057 -0.070951
C8    C     C_R   0.892971 0.664027 0.896549 -0.067853
C9    C     C_R   0.823632 0.582034 0.822915 0.091071
C10   C     C_R   0.760189 0.580456 0.755345 0.048429
C11   C     C_R   0.817202 0.502117 0.814107 -0.113165
C12   C     C_R   0.748518 0.421938 0.739058 -0.003652
C13   C     C_R   0.676239 0.419590 0.682112 0.006356
C14   C     C_R   0.684067 0.499508 0.687596 -0.133120
C15   C     C_R   0.749895 0.343331 0.720025 -0.101068
C16   C     C_R   0.677480 0.263427 0.652056 -0.106002
C17   C     C_R   0.601680 0.259793 0.605757 -0.135517
C18   C     C_R   0.599514 0.336440 0.622359 0.397487
H2    H     H_    0.733670 0.663045 0.703909 0.173705
H3    H     H_    0.855765 0.800281 0.829523 0.205190
H4    H     H_    0.957391 0.803697 0.955445 0.188258
H5    H     H_    0.939514 0.669908 0.953636 0.163855
H6    H     H_    0.806913 0.342905 0.756853 0.173279
H7    H     H_    0.677972 0.203420 0.638279 0.245026
C19   C     C_R   0.248475 0.237508 0.425159 -0.118866
C20   C     C_R   0.314915 0.315461 0.501224 -0.097729
C21   C     C_R   0.316093 0.327370 0.580952 0.427858
C22   C     C_R   0.251303 0.261769 0.580079 -0.212028
H8    H     H_    0.253226 0.270730 0.641078 0.186041
C23   C     C_R   0.183864 0.185516 0.500691 -0.087021
C24   C     C_R   0.184854 0.176541 0.424756 -0.027534
C25   C     C_3   0.138166 0.117199 0.327992 0.506184
C26   C     C_3   0.210959 0.187334 0.328340 0.183232
H9    H     H_    0.189559 0.221572 0.295675 0.171698
C27   C     C_R   0.249332 0.421770 0.235222 -0.006109
C28   C     C_R   0.314360 0.499185 0.313655 -0.106270
C29   C     C_R   0.310553 0.575644 0.329400 -0.113170
H10   H     H_    0.358894 0.636435 0.390249 0.193342
C30   C     C_R   0.247209 0.575404 0.264287 -0.062981
H11   H     H_    0.248413 0.635657 0.275209 0.213783
C31   C     C_R   0.184065 0.498120 0.184606 -0.059377
C32   C     C_R   0.184324 0.421005 0.172122 -0.010847
C33   C     C_3   0.185236 0.357214 0.099050 0.409330
C34   C     C_3   0.257102 0.358815 0.169189 0.131960
H12   H     H_    0.320973 0.388514 0.173920 0.160933
C35   C     C_R   0.694868 0.670273 0.428465 0.020101
C36   C     C_R   0.687114 0.688519 0.503243 -0.180403
C37   C     C_R   0.741101 0.775383 0.575564 0.375843
C38   C     C_R   0.805249 0.837684 0.573505 -0.212849
H13   H     H_    0.848338 0.902920 0.629771 0.174742
C39   C     C_R   0.815625 0.815496 0.500361 -0.175374
C40   C     C_R   0.757225 0.733078 0.426457 0.116803
C41   C     C_3   0.775595 0.668588 0.376942 0.185257
C42   C     C_3   0.706795 0.599519 0.378684 -0.407210
H14   H     H_    0.841913 0.681673 0.414669 0.120422
H15   H     H_    0.648175 0.549514 0.313451 0.251508
H16   H     H_    0.733297 0.572790 0.418518 0.179849
O9    O     O_R   0.947790 0.357650 0.909890 -0.555556
O10   O     O_R   0.052170 0.462000 0.909870 -0.579106
C43   C     C_R   0.998984 0.380763 0.880208 0.784668
O11   O     O_R   0.857610 0.447830 0.909870 -0.538151
O12   O     O_R   0.962000 0.552180 0.909850 -0.619818
C44   C     C_R   0.882063 0.501497 0.882301 0.770243
Cu3   Cu    Cu3+1 0.938170 0.438220 0.000040 1.196690
Cu4   Cu    Cu3+1 0.061780 0.561790 0.000020 1.075983
O13   O     O_R   0.947780 0.538010 0.090190 -0.513263
O14   O     O_R   0.052160 0.642360 0.090170 -0.580110
O15   O     O_R   0.037950 0.447840 0.090220 -0.534887
O16   O     O_R   0.142340 0.552190 0.090190 -0.557556
C45   C     C_R   0.000373 0.618854 0.118689 0.868287
C46   C     C_R   0.118379 0.498375 0.117404 0.828027
O17   O     O_R   0.052210 0.090180 0.642410 -0.568851
O18   O     O_R   0.947830 0.090230 0.538080 -0.576184
C47   C     C_R   0.000757 0.118624 0.619293 0.754571
O19   O     O_R   0.142360 0.090200 0.552220 -0.554256
O20   O     O_R   0.037990 0.090250 0.447890 -0.554499
C48   C     C_R   0.118108 0.118255 0.499588 0.835448
Cu5   Cu    Cu3+1 0.061800 0.000020 0.561820 1.102583
Cu6   Cu    Cu3+1 0.938200 0.000080 0.438280 1.148007
O21   O     O_R   0.052170 0.909870 0.462020 -0.570212
O22   O     O_R   0.947790 0.909920 0.357690 -0.526489
O23   O     O_R   0.962010 0.909850 0.552210 -0.589402
O24   O     O_R   0.857640 0.909910 0.447880 -0.548494
C49   C     C_R   0.999379 0.881559 0.380040 0.855549
C50   C     C_R   0.881747 0.880302 0.498999 0.796718
C51   C     C_R   0.971694 0.229966 0.803353 0.095207
C52   C     C_R   0.000733 0.314048 0.814544 -0.067527
C53   C     C_R   0.039437 0.335633 0.766785 -0.104399
H17   H     H_    0.065866 0.400881 0.776066 0.171621
C54   C     C_R   0.040190 0.271644 0.702954 -0.158558
H18   H     H_    0.066536 0.288194 0.663908 0.146204
C55   C     C_R   0.004561 0.186207 0.688087 -0.015892
C56   C     C_R   0.976244 0.167767 0.742850 0.043953
C57   C     C_3   0.893164 0.094078 0.717484 -0.540400
C58   C     C_3   0.885054 0.162258 0.780068 0.621293
H19   H     H_    0.843878 0.061087 0.647108 0.217205
H20   H     H_    0.904167 0.049148 0.739831 0.230221
C59   C     C_R   0.069234 0.740925 0.266401 -0.036771
C60   C     C_R   0.998467 0.686381 0.181598 -0.197683
C61   C     C_R   0.932752 0.706654 0.155834 0.236558
C62   C     C_R   0.935094 0.775211 0.219596 0.286031
C63   C     C_R   0.000020 0.818884 0.309400 -0.221966
C64   C     C_R   0.068238 0.803527 0.329152 0.005908
C65   C     C_3   0.115113 0.791191 0.401627 0.062063
C66   C     C_3   0.118028 0.722090 0.332452 0.422894
H21   H     H_    0.075124 0.764974 0.428389 0.137702
N1    N     N_R   0.135103 0.033349 0.302119 0.175605
O25   O     O_R   0.102457 0.979120 0.219742 -0.242222
O26   O     O_R   0.161152 0.010442 0.359761 -0.318405
Cl1   Cl    Cl    0.034636 0.105083 0.273654 -0.458018
Cl2   Cl    Cl    0.281381 0.155825 0.302093 -0.369143
N2    N     N_R   0.104136 0.272645 0.042786 0.175499
O27   O     O_R   0.039159 0.259981 0.055782 -0.252207
O28   O     O_R   0.098584 0.207675 0.982949 -0.232269
N3    N     N_R   0.213811 0.394134 0.049117 0.087928
O29   O     O_R   0.169594 0.352086 0.963929 -0.310460
O30   O     O_R   0.284452 0.469165 0.089550 -0.340559
Cl3   Cl    Cl    0.229207 0.260071 0.173176 -0.442979
Cl4   Cl    Cl    0.737026 0.809292 0.673082 -0.560804
Cl5   Cl    Cl    0.745899 0.653054 0.269715 -0.456117
N4    N     N_R   0.814611 0.174094 0.734712 0.100633
O31   O     O_R   0.759170 0.173511 0.760488 -0.290571
O32   O     O_R   0.806442 0.184511 0.667565 -0.419637
Cl6   Cl    Cl    0.884666 0.146960 0.869279 -0.376584
N5    N     N_R   0.863409 0.657834 0.066280 0.117246
O33   O     O_R   0.819673 0.572990 0.025507 -0.299882
O34   O     O_R   0.837112 0.697846 0.028629 -0.278578
N6    N     N_R   0.869439 0.796810 0.192921 0.177488
O35   O     O_R   0.887647 0.866494 0.185987 -0.231285
O36   O     O_R   0.789282 0.740118 0.161309 -0.205445
N7    N     N_R   0.199228 0.869601 0.469788 0.192574
O37   O     O_R   0.244868 0.921345 0.450631 -0.212093
O38   O     O_R   0.226515 0.890758 0.551466 -0.280679
N8    N     N_R   0.205416 0.745892 0.347543 0.134383
O39   O     O_R   0.260246 0.748871 0.414132 -0.283802
O40   O     O_R   0.230613 0.769006 0.298141 -0.314995
N9    N     N_R   0.068422 0.632997 0.314860 0.093185
O41   O     O_R   0.990246 0.602645 0.301840 -0.335357
O42   O     O_R   0.100747 0.582216 0.309102 -0.308697
Cl7   Cl    Cl    0.496527 0.322000 0.585069 -0.550726
Cl8   Cl    Cl    0.398722 0.420132 0.683773 -0.463212

loop_
_geom_bond_atom_site_label_1
_geom_bond_atom_site_label_2
_geom_bond_distance
_ccdc_geom_bond_type
O20   C48   1.294660 A    
C37   Cl4   1.763061 S    
C5    C10   1.419605 A    
C39   C50   1.439524 S    
C23   C24   1.382684 A    
C19   C24   1.352048 A    
C8    C9    1.418854 A    
C33   N2    1.469022 S    
C45   C60   1.442996 S    
O15   C46   1.296335 A    
N8    O39   1.301800 A    
H1    C17   1.083406 S    
N2    O27   1.301810 A    
C22   C23   1.405384 A    
C32   C33   1.504930 S    
C31   C32   1.396749 A    
Cu1   O7    1.983038 S    
C57   H19   1.112381 S    
C15   C16   1.389611 A    
C54   H18   1.083477 S    
Cu4   O14   1.974945 S    
C19   C20   1.389255 A    
N9    O42   1.301077 A    
O11   Cu3   1.976637 S    
C66   N8    1.468294 S    
O7    C4    1.298144 A    
O19   C48   1.293050 A    
C61   N5    1.439900 S    
N2    O28   1.301545 A    
C2    C14   1.467103 S    
C42   H15   1.111757 S    
C5    H2    1.078302 S    
C65   C66   1.537648 S    
C51   C52   1.401699 A    
C38   C39   1.396700 A    
C7    C8    1.391822 A    
O12   C44   1.287710 A    
C12   C15   1.417661 A    
O9    C43   1.298568 A    
O5    C3    1.302734 A    
C13   C18   1.423948 A    
C56   C57   1.490802 S    
C59   C66   1.506707 S    
N1    O25   1.300953 A    
C15   H6    1.081511 S    
C39   C40   1.390709 A    
C61   C62   1.416309 A    
C5    C6    1.392113 A    
C65   H21   1.113251 S    
C27   C34   1.495487 S    
C30   C31   1.400265 A    
C12   C13   1.409961 A    
Cu6   O24   1.970296 S    
O10   C43   1.296357 A    
C31   C46   1.452628 S    
Cu5   O21   1.969011 S    
C25   Cl1   1.786320 S    
C47   C55   1.442374 S    
C29   C30   1.398812 A    
C65   N7    1.466442 S    
C37   C38   1.398822 A    
C54   C55   1.400337 A    
C62   N6    1.433536 S    
O18   Cu6   1.969008 S    
O3    Cu1   1.975107 S    
C21   Cl8   1.763355 S    
C62   C63   1.426440 A    
N8    O40   1.302597 A    
C35   C40   1.383472 A    
C11   C12   1.409388 A    
C21   C22   1.408778 A    
O17   Cu5   1.977161 S    
C57   H20   1.110889 S    
Cu1   Cu2   2.689454 S    
C13   C14   1.427172 A    
O16   C46   1.294864 A    
C8    H5    1.078825 S    
C22   H8    1.083826 S    
C66   N9    1.470466 S    
N4    O31   1.301114 A    
C3    C36   1.461988 S    
C16   H7    1.078685 S    
C36   C37   1.422723 A    
O6    C3    1.292938 A    
O22   C49   1.290904 A    
C60   C61   1.414784 A    
C38   H13   1.082176 S    
O1    C1    1.300956 A    
C41   H14   1.112347 S    
C58   N4    1.466065 S    
Cu3   Cu4   2.688888 S    
C20   C21   1.425573 A    
C18   Cl7   1.738364 S    
C33   N3    1.471799 S    
Cu6   O22   1.977165 S    
C28   C29   1.406120 A    
C41   Cl5   1.781636 S    
O13   C45   1.292968 A    
Cu2   O8    1.975109 S    
C42   H16   1.112191 S    
C34   H12   1.112072 S    
C6    C7    1.386177 A    
C30   H11   1.076572 S    
C27   C28   1.397266 A    
O18   C47   1.297815 A    
O24   C50   1.293692 A    
Cu3   O13   1.971242 S    
C59   C64   1.375007 A    
N4    O32   1.302263 A    
C51   C58   1.503274 S    
O11   C44   1.299871 A    
C29   H10   1.083238 S    
C53   C54   1.399116 A    
C9    C11   1.417302 A    
O23   C50   1.296300 A    
C25   C26   1.552045 S    
O10   Cu4   1.971242 S    
C6    H3    1.082417 S    
O12   Cu4   1.981390 S    
N7    O38   1.300456 A    
C19   C26   1.493171 S    
O3    C2    1.294743 A    
C7    H4    1.082666 S    
C24   C25   1.492451 S    
C11   C44   1.458588 S    
C43   C52   1.460252 S    
C55   C56   1.393492 A    
C26   H9    1.110057 S    
N5    O34   1.300960 A    
C63   C64   1.388226 A    
Cu1   O5    1.970813 S    
C23   C48   1.434877 S    
C10   C14   1.421157 A    
C33   C34   1.533010 S    
C17   C18   1.393167 A    
N3    O30   1.302290 A    
O17   C47   1.293103 A    
O1    Cu1   1.974681 S    
O2    Cu2   1.970814 S    
Cu4   O16   1.976515 S    
C35   C42   1.494061 S    
N5    O33   1.300375 A    
O19   Cu5   1.970416 S    
O4    Cu2   1.983038 S    
N6    O35   1.301228 A    
C64   C65   1.495177 S    
C4    C28   1.456476 S    
C58   Cl6   1.788111 S    
C57   C58   1.521666 S    
C53   H17   1.082912 S    
C41   C42   1.518728 S    
C34   Cl3   1.786958 S    
O2    C1    1.289256 A    
O8    C4    1.295132 A    
C59   C60   1.392731 A    
N6    O36   1.300501 A    
O14   C45   1.291925 A    
C35   C36   1.398842 A    
O4    C2    1.298616 A    
C49   C63   1.461791 S    
N3    O29   1.300532 A    
C27   C32   1.390551 A    
C26   Cl2   1.790110 S    
O9    Cu3   1.974943 S    
N9    O41   1.302259 A    
Cu5   O23   1.975304 S    
N1    O26   1.301717 A    
C51   C56   1.388071 A    
C25   N1    1.466570 S    
O21   C49   1.308737 A    
C40   C41   1.493141 S    
C9    C10   1.412572 A    
C1    C20   1.451193 S    
Cu2   O6    1.974683 S    
C52   C53   1.409872 A    
O20   Cu6   1.975307 S    
C16   C17   1.380868 A    
N7    O37   1.302597 A    
Cu5   Cu6   2.697570 S    
Cu3   O15   1.981385 S    
