data_mof_unit_41345.cif
_audit_creation_date              2012-12-10T17:10:26-0500
_audit_creation_method            fapswitch 2.2
_symmetry_space_group_name_H-M    P1
_symmetry_Int_Tables_number       1
_space_group_crystal_system       triclinic
_cell_length_a                    10.911759
_cell_length_b                    13.081562
_cell_length_c                    11.698574
_cell_angle_alpha                 99.652699
_cell_angle_beta                  91.979274
_cell_angle_gamma                 91.631301
_cell_volume                      1644.26883852

loop_
_atom_site_label
_atom_site_type_symbol
_atom_type_description
_atom_site_fract_x
_atom_site_fract_y
_atom_site_fract_z
_atom_type_partial_charge
C1    C     C_R   0.503555 0.299454 0.478603 1.018421
C2    C     C_R   0.503281 0.700972 0.521379 1.000559
C3    C     C_R   0.504586 0.814823 0.534480 -0.334856
C4    C     C_R   0.512430 0.186360 0.466343 -0.361853
C5    C     C_R   0.509831 0.016622 0.345360 0.672548
C6    C     C_R   0.518742 0.984981 0.655759 0.667432
C7    C     C_R   0.517257 0.124083 0.355678 0.243088
C8    C     C_R   0.510771 0.877357 0.645743 0.312370
C9    C     C_R   0.515745 0.139669 0.566219 0.760620
C10   C     C_R   0.500283 0.861912 0.434891 0.708691
C11   C     C_R   0.514888 0.031835 0.556239 -0.314042
C12   C     C_R   0.507824 0.969716 0.444895 -0.314368
C13   C     C_R   0.399429 0.388710 0.023648 0.338694
C14   C     C_R   0.599941 0.611173 0.975781 0.301021
C15   C     C_R   0.407604 0.401605 0.145773 0.598419
C16   C     C_R   0.596520 0.595601 0.853679 0.620240
C17   C     C_R   0.534475 0.552411 0.155800 0.779718
C18   C     C_R   0.455472 0.452837 0.843491 0.796400
C19   C     C_R   0.532741 0.542030 0.033073 -0.396503
C20   C     C_R   0.461800 0.460241 0.966059 -0.373800
C21   C     C_R   0.262945 0.496575 0.501831 0.966507
C22   C     C_R   0.737897 0.499437 0.497713 0.876147
C23   C     C_R   0.120449 0.312521 0.539787 0.292131
C24   C     C_R   0.891576 0.647616 0.393230 0.260218
C25   C     C_R   0.057353 0.236186 0.587319 0.480171
C26   C     C_R   0.952353 0.743352 0.394001 0.461819
C27   C     C_R   0.933136 0.244109 0.605259 0.485421
C28   C     C_R   0.069362 0.761894 0.444959 0.503638
C29   C     C_R   0.870025 0.326419 0.572994 0.377649
C30   C     C_R   0.129601 0.681867 0.485718 0.387262
C31   C     C_R   0.933223 0.409760 0.533061 -0.189542
C32   C     C_R   0.068285 0.584596 0.485466 -0.185018
C33   C     C_R   0.062715 0.406416 0.526782 -0.201636
C34   C     C_R   0.941884 0.574801 0.457621 -0.218084
C35   C     C_R   0.872071 0.492541 0.492349 0.026099
C36   C     C_R   0.129744 0.496044 0.506835 0.032624
Cu1   Cu    Cu3+1 0.509250 0.507730 0.615930 1.154501
Cu2   Cu    Cu3+1 0.490750 0.492270 0.384070 1.107628
N1    N     N_R   0.523180 0.519350 0.790130 -0.325187
N2    N     N_R   0.476820 0.480650 0.209870 -0.326452
O1    O     O_R   0.506570 0.354460 0.582000 -0.445505
O2    O     O_R   0.493430 0.645540 0.418000 -0.475833
O3    O     O_R   0.490940 0.341410 0.386200 -0.547923
O4    O     O_R   0.509060 0.658590 0.613800 -0.531643
O5    O     O_R   0.327470 0.506520 0.597900 -0.554069
O6    O     O_R   0.672530 0.493480 0.402100 -0.579315
O7    O     O_R   0.311840 0.493460 0.402100 -0.561447
O8    O     O_R   0.688160 0.506540 0.597900 -0.506441
F1    F     F_    0.128724 0.854613 0.445891 -0.553391
F2    F     F_    0.871010 0.166996 0.645557 -0.543455
O9    O     O_3   0.326354 0.308686 0.961967 -0.508673
C37   C     C_3   0.392923 0.216871 0.949716 0.006983
H1    H     H_    0.406883 0.190204 0.034447 0.172239
H2    H     H_    0.482901 0.226781 0.910016 0.205153
H3    H     H_    0.339140 0.154979 0.890970 0.219456
O10   O     O_3   0.678573 0.686951 0.037885 -0.519652
C38   C     C_3   0.624270 0.784080 0.043423 0.050128
H4    H     H_    0.528910 0.782715 0.074447 0.188740
H5    H     H_    0.625448 0.810523 0.958092 0.178419
H6    H     H_    0.679086 0.841916 0.106449 0.228612
O11   O     O_3   0.231780 0.288261 0.491922 -0.567429
C39   C     C_3   0.206766 0.231180 0.379298 -0.180671
H7    H     H_    0.154131 0.277212 0.323685 0.178066
H8    H     H_    0.157110 0.156177 0.382037 0.193778
H9    H     H_    0.293891 0.211785 0.337235 0.243979
O12   O     O_3   0.800511 0.617951 0.309081 -0.456477
C40   C     C_3   0.852865 0.555004 0.213930 -0.065902
H10   H     H_    0.884841 0.480986 0.237591 0.103544
H11   H     H_    0.929465 0.596946 0.178884 0.154143
H12   H     H_    0.782597 0.533937 0.142867 0.185609
F3    F     F_    0.115264 0.149946 0.607022 -0.548048
F4    F     F_    0.901255 0.814968 0.337269 -0.559413
F5    F     F_    0.747148 0.320926 0.580125 -0.639994
F6    F     F_    0.245552 0.701873 0.529766 -0.684301
F7    F     F_    0.487404 0.803059 0.327725 -0.540626
F8    F     F_    0.517298 0.198960 0.673470 -0.540112
O13   O     O_3   0.517502 0.833876 0.745636 -0.515545
C41   C     C_3   0.400534 0.835546 0.793636 -0.147816
H13   H     H_    0.329147 0.795833 0.730058 0.204267
H14   H     H_    0.374145 0.916208 0.827116 0.188197
H15   H     H_    0.403687 0.792888 0.867945 0.143138
O14   O     O_3   0.519825 0.167203 0.255630 -0.524714
C42   C     C_3   0.643308 0.179961 0.227422 -0.173723
H16   H     H_    0.687362 0.103764 0.206221 0.188628
H17   H     H_    0.696781 0.231290 0.298593 0.139206
H18   H     H_    0.645730 0.217662 0.149311 0.161522
F9    F     F_    0.505412 0.959271 0.237080 -0.615264
F10   F     F_    0.532366 0.042621 0.763684 -0.611723
F11   F     F_    0.380489 0.380293 0.777066 -0.557065
F12   F     F_    0.590673 0.636349 0.221265 -0.524242
F13   F     F_    0.667739 0.657061 0.798650 -0.600284
F14   F     F_    0.342556 0.335783 0.199988 -0.641806

loop_
_geom_bond_atom_site_label_1
_geom_bond_atom_site_label_2
_ccdc_geom_bond_type
C22   O8    A    
C27   C29   A    
C26   F4    S    
C14   O10   S    
C19   C20   A    
C21   C36   S    
O13   C41   S    
C22   C35   S    
Cu1   Cu2   S    
C32   C36   A    
C24   C26   A    
Cu2   O2    S    
C30   F6    S    
C41   H14   S    
C38   H5    S    
C29   F5    S    
C33   C36   A    
C6    F10   S    
O10   C38   S    
C34   C35   A    
C10   F7    S    
C39   H8    S    
C15   F14   S    
C13   O9    S    
C1    O3    A    
C2    O4    A    
C23   C33   A    
C31   C33   A    
C25   F3    S    
C9    F8    S    
C30   C32   A    
C18   C20   A    
C13   C20   A    
C37   H3    S    
C24   O12   S    
O12   C40   S    
C4    C7    A    
C37   H2    S    
C21   O5    A    
C40   H10   S    
C5    C12   A    
C3    C8    A    
C6    C11   A    
C5    C7    A    
C41   H13   S    
C38   H6    S    
C6    C8    A    
C24   C34   A    
O9    C37   S    
C40   H11   S    
C17   N2    A    
C32   C34   A    
C18   N1    A    
C39   H7    S    
C28   F1    S    
C42   H16   S    
C7    O14   S    
Cu1   O8    S    
C9    C11   A    
Cu2   O7    S    
C10   C12   A    
C1    O1    A    
C42   H17   S    
C13   C15   A    
C8    O13   S    
C31   C35   A    
Cu1   O5    S    
C37   H1    S    
C39   H9    S    
C22   O6    A    
C18   F11   S    
C14   C19   A    
C17   F12   S    
C11   C12   A    
C27   F2    S    
C25   C27   A    
C26   C28   A    
C1    C4    S    
C40   H12   S    
Cu1   O4    S    
C28   C30   A    
C2    C3    S    
Cu2   O3    S    
C29   C31   A    
C3    C10   A    
Cu2   N2    S    
C41   H15   S    
C38   H4    S    
C2    O2    A    
C17   C19   A    
C14   C16   A    
C23   C25   A    
Cu1   O1    S    
O11   C39   S    
C15   N2    A    
Cu2   O6    S    
C16   N1    A    
C5    F9    S    
C23   O11   S    
C42   H18   S    
C16   F13   S    
Cu1   N1    S    
O14   C42   S    
C4    C9    A    
C21   O7    A    
