data_mof_unit_59640.cif
_audit_creation_date              2012-12-11T17:07:47-0500
_audit_creation_method            fapswitch 2.2
_symmetry_space_group_name_H-M    P1
_symmetry_Int_Tables_number       1
_space_group_crystal_system       triclinic
_cell_length_a                    17.3324
_cell_length_b                    16.890381
_cell_length_c                    17.240164
_cell_angle_alpha                 89.971652
_cell_angle_beta                  89.921229
_cell_angle_gamma                 89.955164
_cell_volume                      5047.06555646

loop_
_atom_site_label
_atom_site_type_symbol
_atom_type_description
_atom_site_fract_x
_atom_site_fract_y
_atom_site_fract_z
_atom_type_partial_charge
C1    C     C_R   0.424171 0.330371 0.855372 -0.165542
C2    C     C_R   0.196448 0.892769 0.396783 -0.146943
C3    C     C_R   0.790910 0.868987 0.187000 0.333086
C4    C     C_R   0.237484 0.322874 0.641305 0.380184
C5    C     C_R   0.207237 0.869568 0.811558 0.348781
C6    C     C_R   0.767896 0.674167 0.650030 0.429508
C7    C     C_R   0.785956 0.125938 0.809241 0.349034
C8    C     C_R   0.727526 0.173804 0.842933 0.438011
C9    C     C_R   0.710906 0.627932 0.688586 0.346894
C10   C     C_R   0.266098 0.824131 0.848083 0.435492
C11   C     C_R   0.286666 0.368691 0.688854 0.411774
C12   C     C_R   0.737760 0.824302 0.141652 0.404055
C13   C     C_R   0.073420 0.166100 0.353121 -0.177896
C14   C     C_R   0.707382 0.370803 0.313506 0.332346
C15   C     C_R   0.279283 0.176401 0.167861 0.363650
C16   C     C_R   0.286196 0.627318 0.308710 0.341698
C17   C     C_3   0.118749 0.612182 0.292831 0.187773
C18   C     C_3   0.102212 0.675428 0.230528 -0.376530
C19   C     C_3   0.065063 0.638411 0.158952 -0.996977
C20   C     C_3   0.265966 0.006884 0.138037 0.235327
C21   C     C_3   0.237011 0.028722 0.056454 -0.403973
C22   C     C_3   0.282728 0.983278 0.995482 -0.888246
C23   C     C_3   0.872216 0.402416 0.319821 0.211223
C24   C     C_R   0.803102 0.106910 0.398136 -0.185251
C25   C     C_3   0.884482 0.356092 0.243424 -0.361495
C26   C     C_3   0.925782 0.406842 0.182929 -1.029161
C27   C     C_3   0.857731 0.981287 0.156186 0.224785
C28   C     C_3   0.860700 0.070677 0.169796 -0.288508
C29   C     C_3   0.935297 0.106711 0.138546 -1.017309
C30   C     C_3   0.195105 0.379403 0.530090 0.206565
C31   C     C_3   0.122032 0.401939 0.485796 -0.294570
C32   C     C_3   0.141672 0.446168 0.411362 -0.983921
C33   C     C_3   0.138627 0.982397 0.838659 0.169282
C34   C     C_3   0.139124 0.072674 0.832179 -0.273970
C35   C     C_R   0.926327 0.167344 0.646138 -0.156547
C36   C     C_3   0.065250 0.108782 0.865102 -1.021395
C37   C     C_3   0.878222 0.601079 0.682021 0.221800
C38   C     C_3   0.894220 0.652091 0.754718 -0.387054
C39   C     C_3   0.933152 0.603116 0.818045 -0.990481
C40   C     C_3   0.832567 0.006255 0.852198 0.217672
C41   C     C_3   0.886341 0.955919 0.801626 -0.285071
C42   C     C_3   0.936404 0.901044 0.850721 -1.059856
C43   C     C_3   0.618070 0.114070 0.791436 0.205589
C44   C     C_3   0.604207 0.178903 0.729872 -0.389331
C45   C     C_3   0.569253 0.144070 0.656158 -0.994189
C46   C     C_R   0.197332 0.106173 0.600770 -0.188716
C47   C     C_3   0.656114 0.509963 0.650976 0.187222
C48   C     C_3   0.617913 0.446935 0.701999 -0.252024
C49   C     C_3   0.562619 0.395152 0.655455 -1.056986
C50   C     C_3   0.373616 0.900256 0.814207 0.209534
C51   C     C_3   0.390141 0.850081 0.741136 -0.371634
C52   C     C_3   0.429950 0.899534 0.678643 -1.018468
C53   C     C_3   0.326695 0.492474 0.651478 0.184107
C54   C     C_3   0.388072 0.530718 0.703287 -0.293336
C55   C     C_3   0.435011 0.592673 0.659341 -1.032583
C56   C     C_3   0.628678 0.902786 0.139368 0.207193
C57   C     C_R   0.074234 0.830616 0.644550 -0.155772
C58   C     C_3   0.565144 0.933569 0.085668 -0.264603
C59   C     C_3   0.507877 0.985860 0.129247 -1.056454
C60   C     C_3   0.685433 0.479860 0.387390 0.193168
C61   C     C_3   0.671548 0.569165 0.383618 -0.261153
C62   C     C_3   0.642584 0.601732 0.460857 -1.060349
C63   C     C_3   0.380736 0.132895 0.243385 0.155337
C64   C     C_3   0.395639 0.207882 0.291375 -0.323836
C65   C     C_3   0.428429 0.187257 0.370995 -1.012167
C66   C     C_3   0.341974 0.511999 0.351471 0.198414
C67   C     C_3   0.383880 0.449931 0.302306 -0.265016
C68   C     C_R   0.803151 0.892597 0.601633 -0.190728
C69   C     C_3   0.454281 0.417226 0.344681 -1.035211
C70   C     C_3   0.894870 0.311253 0.749838 -0.456590
C71   C     C_3   0.670642 0.863801 0.713503 -0.456776
C72   C     C_3   0.126369 0.681167 0.725890 -0.468081
C73   C     C_R   0.696497 0.392629 0.896726 -0.185964
C74   C     C_3   0.328751 0.132966 0.714287 -0.467200
C75   C     C_3   0.870283 0.679569 0.273947 -0.475749
C76   C     C_3   0.669485 0.134615 0.287119 -0.467733
C77   C     C_3   0.108067 0.308522 0.251907 -0.506624
C78   C     C_3   0.340609 0.861429 0.298978 -0.480997
C79   C     C_3   0.393004 0.813272 0.247719 -0.490157
C80   C     C_3   0.160145 0.358293 0.202436 -0.468926
C81   C     C_3   0.619006 0.182694 0.234162 -0.482201
C82   C     C_3   0.822701 0.632166 0.217792 -0.478373
C83   C     C_3   0.376169 0.181455 0.769529 -0.469473
C84   C     C_R   0.574000 0.667899 0.854352 -0.159125
C85   C     C_3   0.177554 0.633392 0.778251 -0.414768
C86   C     C_3   0.620427 0.815531 0.766428 -0.473681
C87   C     C_3   0.841870 0.359895 0.799994 -0.475704
C88   C     C_R   0.394158 0.699002 0.895916 -0.144230
C89   C     C_R   0.328901 0.419541 0.856102 -0.130348
C90   C     C_R   0.605407 0.301058 0.895755 -0.148038
C91   C     C_R   0.669212 0.578921 0.854656 -0.132507
C92   C     C_R   0.395610 0.301534 0.105628 -0.142124
C93   C     C_R   0.330652 0.579460 0.145224 -0.144950
C94   C     C_R   0.607157 0.699450 0.101483 -0.144262
C95   C     C_R   0.303396 0.606969 0.897698 -0.194145
C96   C     C_R   0.668185 0.421368 0.146106 -0.106060
C97   C     C_R   0.893587 0.199129 0.396601 -0.142435
C98   C     C_R   0.829817 0.920030 0.355355 -0.121622
C99   C     C_R   0.105346 0.801161 0.395599 -0.154473
C100  C     C_R   0.169059 0.077835 0.354849 -0.110099
C101  C     C_R   0.894049 0.800755 0.603168 -0.144037
C102  C     C_R   0.831229 0.078487 0.645593 -0.132786
C103  C     C_R   0.107238 0.199012 0.602686 -0.144277
C104  C     C_R   0.169060 0.920174 0.645302 -0.121290
C105  C     C_R   0.364134 0.360671 0.812002 0.148555
C106  C     C_R   0.425872 0.668344 0.145500 -0.154709
C107  C     C_R   0.682357 0.314234 0.877585 0.165410
C108  C     C_R   0.632714 0.636663 0.810054 0.148785
C109  C     C_R   0.317318 0.685075 0.878587 0.172254
C110  C     C_R   0.367217 0.637159 0.189947 0.150733
C111  C     C_R   0.684594 0.685627 0.115917 0.161810
C112  C     C_R   0.631927 0.362839 0.190238 0.162678
C113  C     C_R   0.319733 0.315430 0.126518 0.159547
C114  C     C_R   0.864766 0.860372 0.312096 0.147324
C115  C     C_R   0.182226 0.814572 0.377412 0.169215
C116  C     C_R   0.132385 0.134212 0.308920 0.157326
C117  C     C_R   0.697401 0.607033 0.099444 -0.155006
C118  C     C_R   0.816355 0.185354 0.379987 0.165086
C119  C     C_R   0.867856 0.135779 0.690778 0.140406
C120  C     C_R   0.184721 0.184511 0.617803 0.170116
C121  C     C_R   0.132829 0.861103 0.688640 0.140461
C122  C     C_R   0.816895 0.814122 0.619841 0.167698
C123  C     C_R   0.816542 0.284102 0.837562 0.097906
C124  C     C_R   0.638039 0.745793 0.715710 0.117460
C125  C     C_R   0.188140 0.706823 0.826189 0.068897
C126  C     C_R   0.360396 0.251431 0.718288 0.117713
C127  C     C_R   0.812445 0.706734 0.171585 0.098284
C128  C     C_R   0.574108 0.331380 0.145271 -0.168896
C129  C     C_R   0.637064 0.252659 0.284242 0.109669
C130  C     C_R   0.186010 0.283285 0.163728 0.100094
C131  C     C_R   0.365484 0.741778 0.290963 0.122353
C132  C     C_R   0.316187 0.785451 0.336796 0.098585
C133  C     C_R   0.135962 0.238170 0.207531 0.109628
C134  C     C_R   0.684942 0.209372 0.331523 0.090179
C135  C     C_R   0.857674 0.749083 0.221487 0.130909
C136  C     C_R   0.315062 0.207618 0.669191 0.100677
C137  C     C_R   0.139636 0.749639 0.779450 0.120374
C138  C     C_R   0.686016 0.789221 0.668634 0.090814
C139  C     C_R   0.304378 0.393287 0.105791 -0.184167
C140  C     C_R   0.866316 0.239827 0.792655 0.114151
C141  C     C_R   0.742186 0.256154 0.854808 -0.193801
C142  C     C_R   0.655971 0.667642 0.734587 -0.195730
C143  C     C_R   0.256819 0.740372 0.853434 -0.180507
C144  C     C_R   0.340326 0.329233 0.736995 -0.203693
C145  C     C_R   0.745545 0.740371 0.140156 -0.171898
C146  C     C_R   0.654632 0.331025 0.265697 -0.161829
C147  C     C_R   0.261522 0.256949 0.150565 -0.174849
C148  C     C_R   0.344821 0.665853 0.266722 -0.194794
C149  C     C_R   0.242058 0.756970 0.354350 -0.193826
C150  C     C_R   0.924079 0.829662 0.355865 -0.146976
C151  C     C_R   0.156885 0.162441 0.232339 -0.142057
C152  C     C_R   0.755093 0.241314 0.357114 -0.162057
C153  C     C_R   0.840368 0.827691 0.238077 -0.209418
C154  C     C_R   0.246382 0.239407 0.639949 -0.201722
C155  C     C_R   0.155257 0.828828 0.763359 -0.219261
C156  C     C_R   0.756491 0.757613 0.643410 -0.178341
C157  C     C_R   0.845475 0.163967 0.768022 -0.193834
C158  C     C_R   0.227566 0.674689 0.342455 0.430921
C159  C     C_R   0.219136 0.125585 0.194621 0.369659
C160  C     C_R   0.764956 0.324973 0.352141 0.387176
H1    H     H_    0.465055 0.285823 0.838075 0.107431
H2    H     H_    0.252115 0.919955 0.405163 0.100846
H3    H     H_    0.129619 0.965227 0.900414 0.112836
H4    H     H_    0.089209 0.960740 0.803550 0.130188
H5    H     H_    0.189442 0.097172 0.863961 0.200636
H6    H     H_    0.144026 0.089639 0.770109 0.205886
H7    H     H_    0.014288 0.087457 0.832274 0.270472
H8    H     H_    0.067831 0.174267 0.860016 0.274670
H9    H     H_    0.058564 0.092881 0.927287 0.264069
H10   H     H_    0.935026 0.584773 0.656712 0.111380
H11   H     H_    0.851455 0.543859 0.698122 0.170735
H12   H     H_    0.931803 0.702778 0.738879 0.197029
H13   H     H_    0.031083 0.208680 0.334716 0.115000
H14   H     H_    0.839994 0.676253 0.779599 0.205618
H15   H     H_    0.892579 0.557482 0.840215 0.262151
H16   H     H_    0.949948 0.642315 0.866870 0.275781
H17   H     H_    0.985573 0.573163 0.795444 0.263966
H18   H     H_    0.800929 0.966597 0.892662 0.140426
H19   H     H_    0.867888 0.046867 0.889067 0.071801
H20   H     H_    0.851856 0.919301 0.761168 0.211423
H21   H     H_    0.924222 0.995101 0.766625 0.199149
H22   H     H_    0.975337 0.866395 0.812353 0.274306
H23   H     H_    0.899679 0.858998 0.883795 0.277084
H24   H     H_    0.747600 0.079080 0.406295 0.111775
H25   H     H_    0.971892 0.935993 0.891926 0.265108
H26   H     H_    0.560911 0.090682 0.809448 0.108899
H27   H     H_    0.648550 0.062888 0.765329 0.160451
H28   H     H_    0.564702 0.224496 0.753656 0.203017
H29   H     H_    0.659142 0.208352 0.713522 0.208575
H30   H     H_    0.611128 0.103303 0.628035 0.261857
H31   H     H_    0.555283 0.192551 0.614957 0.279242
H32   H     H_    0.515603 0.110876 0.669423 0.263690
H33   H     H_    0.681167 0.480780 0.598943 0.130577
H34   H     H_    0.610485 0.551686 0.630298 0.093469
H35   H     H_    0.968554 0.210261 0.663878 0.118409
H36   H     H_    0.662797 0.408417 0.728149 0.205455
H37   H     H_    0.585425 0.476302 0.749563 0.204639
H38   H     H_    0.519750 0.432091 0.624238 0.271425
H39   H     H_    0.531251 0.354723 0.695280 0.275909
H40   H     H_    0.595198 0.359051 0.612656 0.273093
H41   H     H_    0.430112 0.918794 0.838514 0.110897
H42   H     H_    0.344101 0.956258 0.798742 0.168668
H43   H     H_    0.427095 0.798832 0.756807 0.198266
H44   H     H_    0.335900 0.826673 0.715793 0.201369
H45   H     H_    0.389400 0.944812 0.655809 0.261477
H46   H     H_    0.252604 0.077733 0.592471 0.110817
H47   H     H_    0.448103 0.860592 0.630049 0.278602
H48   H     H_    0.481628 0.929911 0.702229 0.261266
H49   H     H_    0.293984 0.540163 0.621615 0.133321
H50   H     H_    0.355499 0.457151 0.604841 0.044609
H51   H     H_    0.359957 0.559836 0.753470 0.214366
H52   H     H_    0.427740 0.484488 0.725655 0.209532
H53   H     H_    0.462348 0.566088 0.607206 0.261790
H54   H     H_    0.480974 0.616337 0.697687 0.276924
H55   H     H_    0.397276 0.642523 0.641181 0.269340
H56   H     H_    0.654741 0.954835 0.168341 0.170686
H57   H     H_    0.033293 0.785885 0.661281 0.106739
H58   H     H_    0.602371 0.863707 0.184316 0.057179
H59   H     H_    0.591677 0.968824 0.038137 0.223122
H60   H     H_    0.533706 0.883054 0.059251 0.189147
H61   H     H_    0.479059 0.951797 0.176117 0.266338
H62   H     H_    0.463331 0.007897 0.088417 0.282137
H63   H     H_    0.538016 0.037632 0.154763 0.275007
H64   H     H_    0.731331 0.467850 0.430972 0.134262
H65   H     H_    0.630806 0.450691 0.406391 0.093608
H66   H     H_    0.726401 0.599458 0.368910 0.199310
H67   H     H_    0.628409 0.582349 0.337700 0.206777
H68   H     H_    0.747491 0.920189 0.593632 0.112424
H69   H     H_    0.588899 0.570934 0.479041 0.260970
H70   H     H_    0.630037 0.665915 0.454835 0.277439
H71   H     H_    0.687547 0.594206 0.506035 0.276232
H72   H     H_    0.435647 0.099647 0.238078 0.132425
H73   H     H_    0.340813 0.092720 0.274991 0.116554
H74   H     H_    0.437087 0.246435 0.260143 0.208033
H75   H     H_    0.340944 0.241199 0.299649 0.197007
H76   H     H_    0.386963 0.149880 0.403810 0.262710
H77   H     H_    0.438871 0.242315 0.404416 0.274907
H78   H     H_    0.483984 0.155027 0.364902 0.268682
H79   H     H_    0.877231 0.313022 0.687871 0.196395
H80   H     H_    0.317352 0.482375 0.403453 0.102657
H81   H     H_    0.385156 0.555816 0.373358 0.086207
H82   H     H_    0.343777 0.400612 0.288545 0.190065
H83   H     H_    0.403539 0.476938 0.247042 0.217332
H84   H     H_    0.495890 0.465596 0.356913 0.271330
H85   H     H_    0.483559 0.372467 0.307875 0.280731
H86   H     H_    0.436638 0.389099 0.400161 0.260248
H87   H     H_    0.637402 0.908017 0.679322 0.182188
H88   H     H_    0.152030 0.689815 0.667313 0.197307
H89   H     H_    0.752146 0.419983 0.904643 0.113693
H90   H     H_    0.363807 0.089387 0.681214 0.180307
H91   H     H_    0.841940 0.686455 0.331470 0.198212
H92   H     H_    0.636311 0.090688 0.321735 0.181370
H93   H     H_    0.126169 0.308034 0.313597 0.205179
H94   H     H_    0.372917 0.900675 0.339226 0.182871
H95   H     H_    0.374389 0.814924 0.186028 0.196361
H96   H     H_    0.127737 0.397815 0.162433 0.189743
H97   H     H_    0.643218 0.187367 0.174549 0.201049
H98   H     H_    0.857338 0.587415 0.185958 0.184514
H99   H     H_    0.348924 0.186494 0.827796 0.197184
H100  H     H_    0.532671 0.711937 0.836887 0.108004
H101  H     H_    0.145721 0.586255 0.809946 0.188437
H102  H     H_    0.645027 0.810315 0.825782 0.203897
H103  H     H_    0.873734 0.398996 0.840719 0.186505
H104  H     H_    0.956944 0.323179 0.761008 0.193505
H105  H     H_    0.722269 0.887637 0.743444 0.209768
H106  H     H_    0.065689 0.660731 0.725982 0.194436
H107  H     H_    0.276039 0.108418 0.741665 0.204539
H108  H     H_    0.931419 0.660264 0.276056 0.190879
H109  H     H_    0.721174 0.110503 0.257308 0.204605
H110  H     H_    0.046381 0.320157 0.241798 0.213603
H111  H     H_    0.247681 0.579358 0.905242 0.115435
H112  H     H_    0.293173 0.890718 0.266638 0.202772
H113  H     H_    0.455200 0.825413 0.257929 0.183843
H114  H     H_    0.206443 0.387865 0.236294 0.203452
H115  H     H_    0.557453 0.165325 0.237285 0.190522
H116  H     H_    0.768067 0.609611 0.243025 0.208424
H117  H     H_    0.437746 0.163946 0.770157 0.189470
H118  H     H_    0.231293 0.613544 0.748961 0.205925
H119  H     H_    0.558991 0.833137 0.764297 0.196917
H120  H     H_    0.795561 0.389601 0.766241 0.202750
H121  H     H_    0.422735 0.755493 0.899836 0.150022
H122  H     H_    0.467833 0.711761 0.162819 0.111310
H123  H     H_    0.279744 0.455520 0.840792 0.150462
H124  H     H_    0.576584 0.244923 0.901471 0.159786
H125  H     H_    0.717947 0.542633 0.838488 0.145183
H126  H     H_    0.423638 0.245094 0.098189 0.166935
H127  H     H_    0.282137 0.543074 0.161658 0.142158
H128  H     H_    0.578976 0.756029 0.097882 0.123973
H129  H     H_    0.716161 0.458192 0.163219 0.138554
H130  H     H_    0.922212 0.255603 0.400518 0.150755
H131  H     H_    0.781313 0.956462 0.338785 0.132984
H132  H     H_    0.076556 0.745010 0.401264 0.161329
H133  H     H_    0.752753 0.578727 0.091162 0.105406
H134  H     H_    0.218097 0.041503 0.340142 0.137083
H135  H     H_    0.922864 0.744455 0.598425 0.151930
H136  H     H_    0.782906 0.041693 0.661655 0.144236
H137  H     H_    0.079054 0.255908 0.599931 0.151511
H138  H     H_    0.217450 0.956447 0.662348 0.139126
H139  H     H_    0.062470 0.587421 0.311859 0.116169
H140  H     H_    0.150699 0.561635 0.267206 0.165530
H141  H     H_    0.062985 0.721239 0.254517 0.203321
H142  H     H_    0.156472 0.704809 0.211886 0.203024
H143  H     H_    0.105828 0.596325 0.131042 0.262685
H144  H     H_    0.533508 0.286432 0.161933 0.112696
H145  H     H_    0.050317 0.685564 0.116579 0.275447
H146  H     H_    0.011500 0.606237 0.174842 0.264998
H147  H     H_    0.257893 0.942035 0.144698 0.113646
H148  H     H_    0.328871 0.016038 0.143869 0.145472
H149  H     H_    0.174741 0.014031 0.051179 0.205722
H150  H     H_    0.244356 0.092808 0.044646 0.204219
H151  H     H_    0.345702 0.991409 0.004126 0.259159
H152  H     H_    0.268370 0.005892 0.937102 0.289367
H153  H     H_    0.268529 0.919280 0.998871 0.278799
H154  H     H_    0.930149 0.417237 0.343167 0.110616
H155  H     H_    0.248470 0.420378 0.098710 0.112890
H156  H     H_    0.844275 0.460338 0.308653 0.163816
H157  H     H_    0.918172 0.301623 0.255503 0.191361
H158  H     H_    0.828747 0.337461 0.217658 0.200582
H159  H     H_    0.886055 0.453162 0.160869 0.264253
H160  H     H_    0.943898 0.369163 0.133370 0.277967
H161  H     H_    0.977576 0.435859 0.207934 0.264202
H162  H     H_    0.859833 0.969429 0.092663 0.102809
H163  H     H_    0.909615 0.954655 0.184084 0.103062
H164  H     H_    0.810682 0.099344 0.140821 0.203179
H165  H     H_    0.857163 0.082638 0.233072 0.207262
H166  H     H_    0.964162 0.784023 0.339319 0.104811
H167  H     H_    0.935291 0.171535 0.149384 0.272759
H168  H     H_    0.940185 0.096363 0.075094 0.263478
H169  H     H_    0.986052 0.080346 0.168253 0.276889
H170  H     H_    0.223440 0.329413 0.498597 0.071056
H171  H     H_    0.234964 0.430947 0.531106 0.098808
H172  H     H_    0.089068 0.347410 0.471502 0.181743
H173  H     H_    0.084946 0.440543 0.522463 0.224947
H174  H     H_    0.165577 0.505185 0.425916 0.309676
H175  H     H_    0.088792 0.453947 0.375899 0.260310
H176  H     H_    0.185299 0.413079 0.377167 0.265869
N1    N     N_R   0.425360 0.368540 0.922560 -0.040996
N2    N     N_R   0.131460 0.925360 0.422560 -0.040301
N3    N     N_R   0.074640 0.131460 0.422560 -0.043305
N4    N     N_R   0.868540 0.074640 0.422560 -0.039291
N5    N     N_R   0.925360 0.131460 0.577440 -0.040689
N6    N     N_R   0.131460 0.074640 0.577440 -0.040543
N7    N     N_R   0.074640 0.868540 0.577440 -0.041953
N8    N     N_R   0.868540 0.925360 0.577440 -0.041960
N9    N     N_R   0.425340 0.631500 0.922560 -0.048542
N10   N     N_R   0.368500 0.425340 0.922560 -0.047300
N11   N     N_R   0.574660 0.368500 0.922560 -0.049484
N12   N     N_R   0.631460 0.425360 0.922560 -0.043522
N13   N     N_R   0.631500 0.574660 0.922560 -0.047316
N14   N     N_R   0.425340 0.368500 0.077440 -0.049766
N15   N     N_R   0.368500 0.574660 0.077440 -0.043952
N16   N     N_R   0.574660 0.631500 0.077440 -0.046494
N17   N     N_R   0.631500 0.425340 0.077440 -0.049045
N18   N     N_R   0.925340 0.131500 0.422560 -0.046420
N19   N     N_R   0.868500 0.925340 0.422560 -0.046301
N20   N     N_R   0.074660 0.868500 0.422560 -0.048346
N21   N     N_R   0.131500 0.074660 0.422560 -0.049841
N22   N     N_R   0.925340 0.868500 0.577440 -0.048400
N23   N     N_R   0.574640 0.631460 0.922560 -0.039659
N24   N     N_R   0.868500 0.074660 0.577440 -0.045609
N25   N     N_R   0.074660 0.131500 0.577440 -0.049975
N26   N     N_R   0.131500 0.925340 0.577440 -0.048433
N27   N     N_R   0.368540 0.574640 0.922560 -0.043074
N28   N     N_R   0.425360 0.631460 0.077440 -0.040571
N29   N     N_R   0.631460 0.574640 0.077440 -0.041186
N30   N     N_R   0.574640 0.368540 0.077440 -0.040346
N31   N     N_R   0.368540 0.425360 0.077440 -0.041896
N32   N     N_R   0.925360 0.868540 0.422560 -0.040924
Ni1   Ni    Ni4+2 0.500000 0.369720 0.000000 0.211475
Ni2   Ni    Ni4+2 0.630280 0.500000 0.000000 0.206191
Ni3   Ni    Ni4+2 0.500000 0.630280 0.000000 0.212646
Ni4   Ni    Ni4+2 0.369720 0.500000 0.000000 0.203342
Ni5   Ni    Ni4+2 1.000000 0.869720 0.500000 0.216257
Ni6   Ni    Ni4+2 0.130280 0.000000 0.500000 0.203233
Ni7   Ni    Ni4+2 0.000000 0.130280 0.500000 0.208112
Ni8   Ni    Ni4+2 0.869720 0.000000 0.500000 0.205570
O1    O     O_3   0.155969 0.642748 0.360042 -0.669728
O2    O     O_3   0.717344 0.546307 0.692133 -0.680235
O3    O     O_3   0.333873 0.858805 0.874096 -0.672069
O4    O     O_3   0.273027 0.449001 0.696789 -0.647557
O5    O     O_3   0.683752 0.861073 0.094388 -0.650665
O6    O     O_3   0.708575 0.452665 0.313388 -0.674117
O7    O     O_3   0.355257 0.150904 0.167055 -0.679331
O8    O     O_3   0.280261 0.545538 0.308438 -0.676039
O9    O     O_3   0.224671 0.043292 0.199495 -0.683004
O10   O     O_3   0.832744 0.359209 0.378778 -0.675041
O11   O     O_3   0.788257 0.950956 0.187482 -0.679279
O12   O     O_3   0.174817 0.358565 0.606653 -0.641000
O13   O     O_3   0.209884 0.951699 0.811660 -0.682417
O14   O     O_3   0.835689 0.640323 0.622615 -0.665303
O15   O     O_3   0.776836 0.044647 0.805240 -0.681033
O16   O     O_3   0.655559 0.142126 0.859609 -0.659883

loop_
_geom_bond_atom_site_label_1
_geom_bond_atom_site_label_2
_ccdc_geom_bond_type
C70   C140  S    
C24   H24   S    
C41   H20   S    
C133  C151  A    
C71   H87   S    
C74   C83   S    
C124  C142  A    
C55   H54   S    
C108  C142  S    
C9    O2    S    
N18   Ni7   S    
C25   H157  S    
C13   H13   S    
C61   H67   S    
C95   N27   A    
C17   O1    S    
C90   C107  A    
C98   C114  A    
C94   C111  A    
C36   H8    S    
N19   Ni8   S    
C45   H31   S    
C99   N20   A    
C73   N12   A    
C74   C136  S    
N16   Ni3   S    
N31   Ni4   S    
N3    N21   A    
C93   C110  A    
C17   H140  S    
C126  C136  A    
C21   C22   S    
C19   H146  S    
C106  N28   A    
C30   O12   S    
C56   H58   S    
C50   H42   S    
C72   C137  S    
C16   C158  A    
C51   C52   S    
C80   C130  S    
C64   H75   S    
C95   C109  A    
C37   O14   S    
C5    C155  A    
N11   Ni1   S    
C117  H133  S    
C17   H139  S    
N23   Ni3   S    
C43   C44   S    
C37   C38   S    
C27   O11   S    
C81   C129  S    
C43   H27   S    
C20   O9    S    
N4    Ni8   S    
C76   H109  S    
C123  C141  A    
C72   H106  S    
C81   H115  S    
N6    Ni6   S    
N5    N24   A    
C127  C145  A    
C88   C109  A    
C69   H85   S    
C20   H147  S    
C21   H150  S    
C91   H125  S    
C114  C150  A    
C83   C126  S    
C76   H92   S    
C51   H44   S    
C26   H160  S    
C80   H96   S    
C66   H80   S    
N2    N20   A    
C47   H33   S    
C83   H117  S    
C68   H68   S    
C69   H84   S    
C7    C157  A    
C101  C122  A    
C72   H88   S    
C25   C26   S    
N17   N30   A    
N7    N26   A    
N19   N32   A    
C55   H53   S    
C87   H120  S    
C2    N2    A    
C20   C21   S    
C104  H138  S    
C12   O5    S    
C29   H167  S    
C86   H102  S    
C102  C119  A    
C1    C105  A    
C91   N13   A    
C65   H76   S    
C2    H2    S    
C6    C9    A    
C72   C85   S    
C7    C8    A    
C56   O5    S    
C102  N24   A    
C16   O8    S    
C33   H3    S    
C55   H55   S    
C38   C39   S    
C68   N8    A    
C38   H14   S    
C63   H73   S    
C137  C155  A    
N3    Ni7   S    
C78   C132  S    
C26   H161  S    
C58   H60   S    
C50   O3    S    
C28   H165  S    
C53   H50   S    
C62   H70   S    
C113  C139  A    
C22   H151  S    
N10   Ni4   S    
C107  C141  S    
C34   H5    S    
C149  C158  A    
C13   N3    A    
C60   O6    S    
C66   C67   S    
C24   N4    A    
N26   Ni6   S    
C32   H175  S    
C30   H171  S    
C90   N11   A    
C110  C148  S    
C70   C87   S    
C67   H82   S    
C6    O14   S    
C73   H89   S    
C52   H45   S    
C33   O13   S    
C77   H93   S    
C100  H134  S    
C101  H135  S    
C84   N23   A    
C102  H136  S    
C89   N10   A    
C106  H122  S    
C151  C159  A    
C12   C145  A    
C64   H74   S    
C59   H62   S    
C71   C86   S    
C74   H107  S    
C31   C32   S    
C119  C157  S    
C79   C131  S    
C115  C149  S    
C22   H153  S    
C120  C154  S    
C17   C18   S    
C46   C120  A    
C118  C152  S    
N30   Ni1   S    
C139  H155  S    
N1    N10   A    
C42   H25   S    
C86   C124  S    
C3    O11   S    
C65   H78   S    
N6    N25   A    
C29   H169  S    
N2    Ni6   S    
C139  N31   A    
C99   H132  S    
C87   H103  S    
C49   H39   S    
C46   H46   S    
C54   C55   S    
C54   H51   S    
C130  C147  A    
C39   H15   S    
C37   H11   S    
N8    N22   A    
C9    C142  A    
C75   C82   S    
C38   H12   S    
C66   H81   S    
N16   N29   A    
C61   H66   S    
C158  O1    S    
C111  C117  A    
C29   H168  S    
N4    N18   A    
C160  O10   S    
C87   C123  S    
C77   C80   S    
C125  C143  A    
C126  C144  A    
C24   C118  A    
C56   C58   S    
C150  N32   A    
C61   C62   S    
C56   H56   S    
C63   C64   S    
C45   H30   S    
C79   H113  S    
C89   C105  A    
C47   O2    S    
N12   Ni2   S    
C116  C151  S    
C6    C156  A    
C4    C154  A    
N9    Ni3   S    
C7    O15   S    
C52   H47   S    
C41   C42   S    
C19   H145  S    
C103  C120  A    
C100  C116  A    
C96   N17   A    
C105  C144  S    
C92   N14   A    
C42   H22   S    
C94   N16   A    
N28   Ni3   S    
C124  C138  A    
C28   C29   S    
C127  C135  A    
C99   C115  A    
C30   C31   S    
C75   C135  S    
C73   C107  A    
C82   H98   S    
C18   H141  S    
N14   N31   A    
C18   C19   S    
C85   C125  S    
C150  H166  S    
C83   H99   S    
C78   H112  S    
C92   C113  A    
C35   H35   S    
C25   H158  S    
C1    H1    S    
C20   H148  S    
C27   H162  S    
C21   H149  S    
C132  C149  A    
C41   H21   S    
C75   H91   S    
C39   H17   S    
C51   H43   S    
C71   C138  S    
C75   H108  S    
C32   H174  S    
C96   H129  S    
C92   H126  S    
C68   C122  A    
N11   N12   A    
C93   H127  S    
C76   C134  S    
C94   H128  S    
C125  C137  A    
C58   C59   S    
C53   C54   S    
C36   H7    S    
C63   O7    S    
C60   C61   S    
C46   N6    A    
C23   H154  S    
C70   H104  S    
C15   C159  A    
C44   H29   S    
C40   H19   S    
C136  C154  A    
C2    C115  A    
C45   H32   S    
C11   O4    S    
C134  C152  A    
C50   C51   S    
C117  N29   A    
C109  C143  S    
C4    C11   A    
C129  C146  A    
C59   H63   S    
C48   C49   S    
C28   H164  S    
C19   H143  S    
C130  C133  A    
C131  C132  A    
C44   C45   S    
C50   H41   S    
C103  H137  S    
C67   H83   S    
C121  C155  S    
C122  C156  S    
C91   C108  A    
C95   H111  S    
C64   C65   S    
C113  C147  S    
C93   N15   A    
C15   O7    S    
C15   C147  A    
C57   H57   S    
C84   C108  A    
C112  C146  S    
C31   H173  S    
N13   Ni2   S    
C40   O15   S    
N27   Ni4   S    
C112  C128  A    
C13   C116  A    
N15   N28   A    
C128  N30   A    
C129  C134  A    
C69   H86   S    
C53   H49   S    
C62   H71   S    
C85   H118  S    
C22   H152  S    
N20   Ni5   S    
N17   Ni2   S    
C34   H6    S    
C23   O10   S    
C26   H159  S    
C152  C160  A    
C32   H176  S    
C47   H34   S    
C35   C119  A    
C88   H121  S    
N13   N23   A    
C103  N25   A    
C96   C112  A    
C36   H9    S    
N21   Ni6   S    
N7    Ni5   S    
C111  C145  S    
N32   Ni5   S    
C128  H144  S    
C3    C153  A    
C97   H130  S    
C97   C118  A    
N5    Ni7   S    
C3    C12   A    
C59   H61   S    
C53   O4    S    
N8    Ni8   S    
C11   C144  A    
C114  C153  S    
C34   C36   S    
C14   O6    S    
C71   H105  S    
C48   H36   S    
C35   N5    A    
C65   H77   S    
C31   H172  S    
C23   H156  S    
C77   C133  S    
C60   H64   S    
C104  N26   A    
C100  N21   A    
C74   H90   S    
N14   Ni1   S    
C66   O8    S    
C49   H38   S    
C43   O16   S    
C89   H123  S    
C27   H163  S    
C90   H124  S    
C78   H94   S    
C33   H4    S    
C88   N9    A    
C159  O9    S    
C98   N19   A    
C37   H10   S    
C78   C79   S    
C104  C121  A    
C43   H26   S    
C123  C140  A    
C60   H65   S    
C14   C160  A    
C67   C69   S    
C82   H116  S    
C101  N22   A    
C140  C157  A    
C8    O16   S    
C58   H59   S    
C47   C48   S    
N15   Ni4   S    
C62   H69   S    
N9    N27   A    
C80   H114  S    
C33   C34   S    
C131  C148  A    
C4    O12   S    
C86   H119  S    
C5    O13   S    
C8    C141  A    
N22   Ni5   S    
N29   Ni2   S    
C44   H28   S    
C40   H18   S    
C40   C41   S    
C97   N18   A    
C30   H170  S    
C70   H79   S    
C1    N1    A    
C106  C110  A    
C138  C156  A    
C52   H48   S    
C84   H100  S    
C85   H101  S    
C39   H16   S    
C76   C81   S    
C42   H23   S    
C14   C146  A    
C81   H97   S    
C135  C153  A    
C48   H37   S    
C16   C148  A    
C98   H131  S    
C5    C10   A    
C18   H142  S    
C54   H52   S    
C10   C143  A    
C23   C25   S    
C82   C127  S    
C57   C121  A    
C10   O3    S    
N1    Ni1   S    
C27   C28   S    
C79   H95   S    
C77   H110  S    
N25   Ni7   S    
C57   N7    A    
C63   H72   S    
N24   Ni8   S    
C49   H40   S    
