data_mof_unit_20555.cif
_audit_creation_date              2013-03-05T16:33:13-0500
_audit_creation_method            fapswitch 2.2
_symmetry_space_group_name_H-M    P1
_symmetry_Int_Tables_number       1
_space_group_crystal_system       triclinic
_cell_length_a                    27.792715
_cell_length_b                    10.853528
_cell_length_c                    9.534979
_cell_angle_alpha                 90.011043
_cell_angle_beta                  90.268771
_cell_angle_gamma                 90.275642
_cell_volume                      2876.15198425

loop_
_atom_site_label
_atom_site_type_symbol
_atom_site_description
_atom_site_fract_x
_atom_site_fract_y
_atom_site_fract_z
_atom_type_partial_charge
O1    O     O_R   0.500000 0.319640 0.618810 -0.581349
O2    O     O_R   0.500010 0.319680 0.381230 -0.592670
C1    C     C_R   0.499992 0.262688 0.499837 0.812027
O3    O     O_R   0.430260 0.500000 0.618780 -0.579997
O4    O     O_R   0.430270 0.500040 0.381190 -0.584217
C2    C     C_R   0.407427 0.499763 0.499616 0.801691
Cu1   Cu    Cu3+1 0.500000 0.499980 0.640670 0.958133
Cu2   Cu    Cu3+1 0.500000 0.500020 0.359330 0.944462
O5    O     O_R   0.499990 0.680320 0.618770 -0.562936
O6    O     O_R   0.500000 0.680360 0.381190 -0.588093
O7    O     O_R   0.569730 0.499960 0.618810 -0.584702
O8    O     O_R   0.569740 0.500000 0.381220 -0.585611
C3    C     C_R   0.500183 0.737308 0.499855 0.819391
C4    C     C_R   0.592603 0.499687 0.500104 0.820220
C5    C     C_R   0.177648 0.389318 0.478032 0.546865
O9    O     O_2   0.202276 0.282632 0.471185 -0.533651
N1    N     N_R   0.201991 0.498502 0.491287 -0.469223
C6    C     C_R   0.178290 0.608418 0.497600 0.534633
C7    C     C_R   0.279068 0.488847 0.368508 -0.107490
C8    C     C_R   0.329209 0.489553 0.370326 -0.212455
C9    C     C_R   0.328472 0.507914 0.624083 -0.212806
C10   C     C_R   0.278257 0.507708 0.621840 -0.106277
C11   C     C_R   0.253505 0.498084 0.494078 0.364113
C12   C     C_R   0.101975 0.499797 0.478285 -0.052910
C13   C     C_R   0.127146 0.387895 0.471390 -0.067550
C14   C     C_R   0.101696 0.277876 0.451253 -0.151965
C15   C     C_R   0.127854 0.611271 0.490437 -0.008816
C16   C     C_R   0.354416 0.499084 0.498178 -0.039655
H1    H     H_    0.346911 0.515419 0.724084 0.160793
H2    H     H_    0.258545 0.514900 0.719194 0.136407
H3    H     H_    0.121040 0.192486 0.435462 0.194541
C17   C     C_R   0.645675 0.499046 0.499188 -0.149260
C18   C     C_R   0.974801 0.390422 0.493145 0.032878
C19   C     C_R   0.975201 0.613937 0.458790 0.008831
C20   C     C_R   0.949521 0.502673 0.478007 0.063923
C21   C     C_R   0.949508 0.287056 0.542386 -0.277331
C22   C     C_R   0.899552 0.286823 0.554117 0.177822
C23   C     C_R   0.873266 0.393958 0.519795 -0.009359
C24   C     C_R   0.898443 0.503647 0.484698 -0.129246
C25   C     C_R   0.872732 0.614041 0.457297 -0.022081
C26   C     C_R   0.821793 0.609433 0.462031 0.519069
N2    N     N_R   0.798470 0.501976 0.493080 -0.477493
C27   C     C_R   0.822619 0.395983 0.522191 0.535621
C28   C     C_R   0.720679 0.473108 0.372095 0.177429
C29   C     C_R   0.670482 0.472426 0.374896 -0.181729
C30   C     C_R   0.671945 0.525730 0.621541 -0.182284
C31   C     C_R   0.722158 0.526630 0.620539 0.180870
C32   C     C_R   0.746798 0.500453 0.495306 0.274260
O10   O     O_2   0.797252 0.293099 0.552216 -0.499961
C33   C     C_R   0.025260 0.387191 0.469518 0.035392
C34   C     C_R   0.051010 0.500333 0.473216 0.032517
C35   C     C_R   0.026125 0.614192 0.471624 0.063807
C36   C     C_R   0.051413 0.276545 0.443041 0.166534
H4    H     H_    0.650977 0.450101 0.279625 0.170023
H5    H     H_    0.968359 0.205795 0.577255 0.165864
O11   O     O_2   0.203502 0.714513 0.509650 -0.531513
C37   C     C_R   0.102952 0.722770 0.495107 -0.144997
H6    H     H_    0.348169 0.482414 0.271675 0.158481
H7    H     H_    0.259995 0.481582 0.269502 0.135308
H8    H     H_    0.121963 0.809629 0.506306 0.187576
C38   C     C_R   0.949296 0.721654 0.428267 -0.203656
C39   C     C_R   0.898976 0.723562 0.425669 0.170906
O12   O     O_2   0.795210 0.710498 0.436244 -0.545563
C40   C     C_R   0.053044 0.724488 0.485413 -0.210059
H9    H     H_    0.967943 0.805594 0.400875 0.140292
H10   H     H_    0.653667 0.547380 0.717938 0.167037
H11   H     H_    0.036323 0.813624 0.494385 0.136173
C41   C     C_R   0.497657 0.062128 0.620981 0.087068
C42   C     C_R   0.500381 0.130106 0.498163 -0.088210
C43   C     C_R   0.503629 0.064597 0.370615 -0.211283
H12   H     H_    0.505999 0.112395 0.271155 0.164056
C44   C     C_R   0.503765 0.935401 0.370655 -0.212242
H13   H     H_    0.506216 0.887614 0.271209 0.163108
C45   C     C_R   0.500671 0.869888 0.498254 -0.112911
C46   C     C_R   0.497882 0.937948 0.621020 0.127809
C47   C     C_3   0.493323 0.929850 0.776711 -0.042484
C48   C     C_3   0.492756 0.072207 0.776250 -0.525512
H14   H     H_    0.525203 0.888629 0.828943 0.154142
H15   H     H_    0.457899 0.113725 0.807245 0.192056
H16   H     H_    0.525134 0.114282 0.825999 0.195961
C49   C     C_R   0.520972 0.594724 0.074111 0.249670
N3    N     N_R   0.500300 0.500930 0.147930 -0.185623
C50   C     C_R   0.474968 0.413797 0.074090 -0.080847
H17   H     H_    0.455463 0.342647 0.129655 0.138546
C51   C     C_R   0.474894 0.413949 0.925131 -0.077358
H18   H     H_    0.455218 0.343187 0.868978 0.136845
N4    N     N_R   0.500310 0.500890 0.852020 -0.184463
C52   C     C_R   0.521282 0.594172 0.926601 0.284453
C53   C     C_3   0.573094 0.629935 0.923015 -0.507842
C54   C     C_3   0.572404 0.633343 0.081862 -0.488054
H19   H     H_    0.595937 0.554657 0.882309 0.215562
H20   H     H_    0.579161 0.721590 0.874368 0.189402
H21   H     H_    0.595929 0.562510 0.129970 0.221079
H22   H     H_    0.576697 0.727734 0.125581 0.194599
C55   C     C_3   0.875350 0.844828 0.389350 -0.748526
H23   H     H_    0.853711 0.877838 0.479287 0.261454
H24   H     H_    0.902015 0.918418 0.365643 0.189076
H25   H     H_    0.852482 0.833937 0.294344 0.260666
N5    N     N_3   0.747596 0.554836 0.747578 -0.579455
H26   H     H_    0.769436 0.631859 0.729650 0.239486
H27   H     H_    0.769847 0.480437 0.772099 0.239914
N6    N     N_3   0.447699 0.873727 0.819515 -0.557224
H28   H     H_    0.443764 0.889070 0.927090 0.220413
H29   H     H_    0.418910 0.917293 0.769000 0.237908
N7    N     N_3   0.744594 0.445823 0.243149 -0.579271
H30   H     H_    0.766835 0.369711 0.259433 0.239383
H31   H     H_    0.766346 0.521101 0.216836 0.239207
N8    N     N_3   0.876130 0.176935 0.602646 -0.507961
H32   H     H_    0.889834 0.155569 0.701981 0.215507
H33   H     H_    0.884997 0.105003 0.534724 0.214835
C56   C     C_3   0.028804 0.160167 0.384757 -0.899958
H34   H     H_    0.050984 0.123825 0.297478 0.240407
H35   H     H_    0.026914 0.088328 0.467465 0.223761
H36   H     H_    0.992704 0.176883 0.338772 0.245863

loop_
_geom_bond_atom_site_label_1
_geom_bond_atom_site_label_2
_geom_bond_distance
_ccdc_geom_bond_type
N4    C52   1.364052 A    
C17   C29   1.404566 A    
C20   C24   1.421421 A    
C55   H23   1.110048 S    
C12   C15   1.409029 A    
C49   N3    1.363917 A    
C55   H25   1.110124 S    
C31   N5    1.431988 S    
Cu1   Cu2   2.682570 S    
C51   H18   1.081024 S    
C41   C46   1.347834 A    
Cu1   O7    1.950135 S    
N7    H31   1.045322 S    
N1    C11   1.431854 S    
C54   H21   1.109533 S    
Cu2   N3    2.015778 S    
C21   C22   1.393402 A    
C1    C42   1.439162 S    
C47   H14   1.110414 S    
C30   H10   1.078679 S    
C23   C24   1.418892 A    
O7    C4    1.300770 A    
C5    C13   1.404713 A    
C5    O9    1.349662 S    
C18   C21   1.403194 A    
C25   C39   1.424703 A    
N8    H32   1.045705 S    
Cu1   O5    1.968473 S    
C19   C20   1.412201 A    
C26   N2    1.364812 A    
O5    C3    1.291703 A    
C33   C34   1.418690 A    
Cu1   N4    2.015219 S    
N5    H26   1.045298 S    
C41   C42   1.386400 A    
C31   C32   1.408886 A    
C43   H12   1.083178 S    
C53   H19   1.108349 S    
C38   C39   1.398899 A    
C6    O11   1.349659 S    
C52   C53   1.490133 S    
C36   C56   1.512593 S    
C12   C34   1.417110 A    
C48   H15   1.111665 S    
C14   H3    1.084498 S    
C39   C55   1.513191 S    
C42   C43   1.412106 A    
O3    Cu1   1.948500 S    
C54   H22   1.111646 S    
C51   N4    1.368874 A    
C47   N6    1.463889 S    
C2    C16   1.473299 S    
C33   C36   1.429775 A    
C45   C46   1.386716 A    
C34   C35   1.419083 A    
C40   H11   1.078838 S    
C12   C13   1.406193 A    
C22   N8    1.433844 S    
O3    C2    1.298826 A    
C15   C37   1.397779 A    
C24   C25   1.421643 A    
C27   O10   1.349227 S    
C37   H8    1.083471 S    
C8    C16   1.406726 A    
C7    H7    1.083169 S    
C18   C33   1.421999 A    
C28   N7    1.431978 S    
C9    H1    1.083252 S    
C19   C38   1.405742 A    
O1    C1    1.291776 A    
C7    C11   1.398922 A    
C46   C47   1.493071 S    
C22   C23   1.413868 A    
C50   H17   1.081546 S    
Cu2   O8    1.948494 S    
N1    C6    1.366975 A    
C56   H35   1.110338 S    
N2    C32   1.436380 S    
C47   C48   1.545237 S    
C53   H20   1.110165 S    
N6    H29   1.046854 S    
C49   C54   1.489190 S    
C44   C45   1.412076 A    
C25   C26   1.417306 A    
N5    H27   1.045302 S    
C9    C16   1.406775 A    
O8    C4    1.296911 A    
C29   H4    1.082508 S    
C35   C40   1.414380 A    
N2    C27   1.362621 A    
C26   O12   1.347489 S    
C8    H6    1.083270 S    
C14   C36   1.399329 A    
C28   C29   1.395479 A    
C37   C40   1.389937 A    
C48   H16   1.111429 S    
C41   C48   1.491424 S    
C5    N1    1.367280 A    
C30   C31   1.395626 A    
C10   H2    1.083078 S    
C56   H34   1.111384 S    
C50   C51   1.420318 A    
O1    Cu1   1.968352 S    
C17   C30   1.402788 A    
O2    Cu2   1.968475 S    
C6    C15   1.403582 A    
C4    C17   1.475132 S    
C44   H13   1.083292 S    
O6    C3    1.289158 A    
O4    Cu2   1.950138 S    
C55   H24   1.110944 S    
N7    H30   1.045300 S    
C19   C35   1.420030 A    
C7    C8    1.393568 A    
O2    C1    1.289129 A    
C13   C14   1.397691 A    
C23   C27   1.408171 A    
C21   H5    1.079741 S    
O4    C2    1.298018 A    
C18   C20   1.416380 A    
N8    H33   1.045388 S    
C56   H36   1.108833 S    
N6    H28   1.045448 S    
C49   C52   1.406591 A    
C38   H9    1.078712 S    
C3    C45   1.439053 S    
Cu2   O6    1.968351 S    
N3    C50   1.369091 A    
C10   C11   1.399849 A    
C43   C44   1.402253 A    
C53   C54   1.515261 S    
C9    C10   1.395685 A    
C28   C32   1.408900 A    
