data_mof_unit_32498.cif
_audit_creation_date              2012-10-26T21:33:05-0400
_audit_creation_method            fapswitch 2.2
_symmetry_space_group_name_H-M    P1
_symmetry_Int_Tables_number       1
_space_group_crystal_system       triclinic
_cell_length_a                    28.257254
_cell_length_b                    18.426468
_cell_length_c                    17.070306
_cell_angle_alpha                 89.999324
_cell_angle_beta                  60.9561
_cell_angle_gamma                 89.999561
_cell_volume                      7770.48276016

loop_
_atom_site_label
_atom_site_type_symbol
_atom_type_description
_atom_site_fract_x
_atom_site_fract_y
_atom_site_fract_z
_atom_type_partial_charge
C1    C     C_R   0.701808 0.268118 0.676190 0.911809
C2    C     C_R   0.969025 0.628826 0.448050 0.428440
C3    C     C_R   0.073849 0.899703 0.934559 0.928382
C4    C     C_R   0.573965 0.600162 0.934449 0.928942
C5    C     C_R   0.426040 0.399832 0.065547 0.928938
C6    C     C_R   0.426040 0.600168 0.065546 0.928943
C7    C     C_R   0.573956 0.399827 0.934456 0.928940
C8    C     C_R   0.540067 0.999999 0.527136 -0.060934
C9    C     C_R   0.459924 0.000000 0.472899 -0.060936
C10   C     C_R   0.041459 0.500005 0.523334 -0.074601
C11   C     C_R   0.958538 0.500002 0.476680 -0.074597
C12   C     C_R   0.521115 0.066621 0.511159 -0.013998
C13   C     C_R   0.969016 0.371171 0.448088 0.428412
C14   C     C_R   0.478874 0.933379 0.488879 -0.013988
C15   C     C_R   0.478880 0.066621 0.488863 -0.013982
C16   C     C_R   0.521109 0.933378 0.511175 -0.013978
C17   C     C_R   0.019027 0.566643 0.515962 -0.003894
C18   C     C_R   0.980968 0.433364 0.484056 -0.003899
C19   C     C_R   0.980973 0.566641 0.484040 -0.003906
C20   C     C_R   0.019021 0.433368 0.515984 -0.003913
C21   C     C_R   0.605858 0.934123 0.556020 0.018856
C22   C     C_R   0.394137 0.065877 0.444002 0.018862
C23   C     C_R   0.394136 0.934123 0.444009 0.018877
C24   C     C_R   0.030979 0.628832 0.551939 0.428438
C25   C     C_R   0.605860 0.065877 0.556012 0.018870
C26   C     C_R   0.107322 0.434267 0.551214 0.017546
C27   C     C_R   0.892677 0.565735 0.448789 0.017543
C28   C     C_R   0.892676 0.434263 0.448798 0.017555
C29   C     C_R   0.107324 0.565738 0.551209 0.017546
C30   C     C_R   0.656135 0.934853 0.557468 -0.094553
C31   C     C_R   0.343864 0.065146 0.442541 -0.094543
C32   C     C_R   0.343863 0.934854 0.442544 -0.094544
C33   C     C_R   0.656136 0.065146 0.557464 -0.094541
C34   C     C_R   0.157891 0.435104 0.551430 -0.093369
C35   C     C_R   0.547640 0.869301 0.513476 0.422051
C36   C     C_R   0.842111 0.564897 0.448566 -0.093363
C37   C     C_R   0.842110 0.435102 0.448570 -0.093383
C38   C     C_R   0.157892 0.564898 0.551429 -0.093372
C39   C     C_R   0.678455 1.000000 0.563279 -0.267622
C40   C     C_R   0.321546 0.000001 0.436724 -0.267639
C41   C     C_R   0.181275 0.500000 0.553811 -0.272157
C42   C     C_R   0.818728 0.500000 0.446181 -0.272170
C43   C     C_R   0.583487 0.999999 0.547716 0.057765
C44   C     C_R   0.416507 0.000000 0.452310 0.057759
C45   C     C_R   0.085539 0.500003 0.541482 0.057314
C46   C     C_R   0.452348 0.130697 0.486565 0.422046
C47   C     C_R   0.914460 0.500000 0.458526 0.057315
C48   C     C_R   0.075489 0.371474 0.566635 -0.201070
C49   C     C_R   0.924509 0.628530 0.433376 -0.201086
C50   C     C_R   0.924503 0.371466 0.433404 -0.201082
C51   C     C_R   0.075495 0.628535 0.566615 -0.201088
C52   C     C_R   0.579684 0.869896 0.553759 -0.206197
C53   C     C_R   0.420309 0.130104 0.446273 -0.206172
C54   C     C_R   0.420305 0.869896 0.446289 -0.206216
C55   C     C_R   0.579689 0.130104 0.553739 -0.206189
C56   C     C_R   0.452338 0.869306 0.486593 0.422072
C57   C     C_R   0.547651 0.130695 0.513445 0.422071
C58   C     C_R   0.720077 0.262329 0.954913 0.197842
C59   C     C_R   0.279910 0.737645 0.045095 0.197841
C60   C     C_R   0.279910 0.262358 0.045093 0.197851
C61   C     C_R   0.298193 0.731884 0.323809 0.911803
C62   C     C_R   0.720107 0.737626 0.954890 0.197918
C63   C     C_R   0.220106 0.762930 0.955142 0.197401
C64   C     C_R   0.779899 0.237022 0.044826 0.197434
C65   C     C_R   0.779892 0.762894 0.044873 0.197453
C66   C     C_R   0.220107 0.237072 0.955139 0.197408
C67   C     C_R   0.714951 0.196210 0.999029 -0.060937
C68   C     C_R   0.285060 0.803744 0.000930 -0.060931
C69   C     C_R   0.285071 0.196266 0.000910 -0.060947
C70   C     C_R   0.714882 0.803674 0.999195 -0.060953
C71   C     C_R   0.214948 0.696841 0.999319 -0.058702
C72   C     C_R   0.298193 0.268115 0.323809 0.911795
C73   C     C_R   0.785035 0.303131 0.000697 -0.058735
C74   C     C_R   0.785125 0.696855 0.000556 -0.058697
C75   C     C_R   0.214938 0.303154 0.999334 -0.058715
C76   C     C_R   0.744733 0.183631 0.043595 -0.089160
C77   C     C_R   0.255287 0.816311 0.956345 -0.089196
C78   C     C_R   0.255298 0.183698 0.956325 -0.089200
C79   C     C_R   0.744646 0.816234 0.043797 -0.089248
C80   C     C_R   0.244710 0.684279 0.043916 -0.089500
C81   C     C_R   0.755265 0.315703 0.956116 -0.089477
C82   C     C_R   0.755371 0.684301 0.955943 -0.089520
C83   C     C_R   0.701806 0.731887 0.676191 0.911787
C84   C     C_R   0.244700 0.315716 0.043930 -0.089499
C85   C     C_R   0.641750 0.321091 0.950410 0.324511
C86   C     C_R   0.358235 0.678885 0.049600 0.324498
C87   C     C_R   0.358232 0.321120 0.049601 0.324502
C88   C     C_R   0.641785 0.678855 0.950387 0.324502
C89   C     C_R   0.141568 0.820961 0.950622 0.325476
C90   C     C_R   0.858462 0.179070 0.049348 0.325522
C91   C     C_R   0.858413 0.820980 0.049395 0.325455
C92   C     C_R   0.141570 0.179036 0.950620 0.325477
C93   C     C_R   0.616369 0.345499 0.900517 -0.152831
C94   C     C_R   0.201915 0.768348 0.676154 0.914815
C95   C     C_R   0.383624 0.654490 0.099488 -0.152830
C96   C     C_R   0.383622 0.345511 0.099488 -0.152826
C97   C     C_R   0.616386 0.654478 0.900507 -0.152828
C98   C     C_R   0.116254 0.845378 0.900640 -0.153065
C99   C     C_R   0.883764 0.154643 0.099343 -0.153041
C100  C     C_R   0.883735 0.845391 0.099369 -0.153080
C101  C     C_R   0.116255 0.154620 0.900639 -0.153055
C102  C     C_R   0.634761 0.322807 0.813724 -0.356935
C103  C     C_R   0.365237 0.677191 0.186276 -0.356954
C104  C     C_R   0.365237 0.322806 0.186274 -0.356942
C105  C     C_R   0.798073 0.231624 0.323850 0.914827
C106  C     C_R   0.634765 0.677193 0.813726 -0.356953
C107  C     C_R   0.134778 0.822833 0.813762 -0.354473
C108  C     C_R   0.865224 0.177168 0.186232 -0.354468
C109  C     C_R   0.865222 0.822830 0.186239 -0.354459
C110  C     C_R   0.134777 0.177169 0.813762 -0.354447
C111  C     C_R   0.679732 0.279190 0.772215 -0.143165
C112  C     C_R   0.320266 0.720810 0.227784 -0.143160
C113  C     C_R   0.320266 0.279189 0.227784 -0.143160
C114  C     C_R   0.679734 0.720812 0.772216 -0.143163
C115  C     C_R   0.179971 0.779625 0.772122 -0.145512
C116  C     C_R   0.798094 0.768329 0.323842 0.914799
C117  C     C_R   0.820003 0.220325 0.227889 -0.145534
C118  C     C_R   0.820046 0.779591 0.227870 -0.145504
C119  C     C_R   0.179970 0.220378 0.772122 -0.145517
C120  C     C_R   0.706160 0.253810 0.820562 0.335633
C121  C     C_R   0.293836 0.746187 0.179439 0.335654
C122  C     C_R   0.293835 0.253814 0.179440 0.335661
C123  C     C_R   0.706167 0.746185 0.820558 0.335677
C124  C     C_R   0.206621 0.754721 0.820340 0.337560
C125  C     C_R   0.793327 0.245175 0.179686 0.337504
C126  C     C_R   0.793411 0.754653 0.179643 0.337595
C127  C     C_R   0.201914 0.231654 0.676154 0.914813
C128  C     C_R   0.206619 0.245283 0.820339 0.337559
C129  C     C_R   0.687918 0.277266 0.908832 -0.121582
C130  C     C_R   0.312070 0.722715 0.091176 -0.121593
C131  C     C_R   0.312069 0.277288 0.091176 -0.121600
C132  C     C_R   0.687944 0.722696 0.908812 -0.121620
C133  C     C_R   0.188046 0.777743 0.908865 -0.123376
C134  C     C_R   0.811947 0.222216 0.091124 -0.123409
C135  C     C_R   0.811958 0.777715 0.091138 -0.123367
C136  C     C_R   0.188047 0.222257 0.908864 -0.123380
C137  C     C_R   0.691242 0.129290 0.535066 0.872959
C138  C     C_R   0.030964 0.371186 0.551982 0.428432
C139  C     C_R   0.308758 0.870711 0.464936 0.872977
C140  C     C_R   0.308758 0.129290 0.464935 0.872967
C141  C     C_R   0.691241 0.870710 0.535068 0.872973
C142  C     C_R   0.191611 0.629247 0.533697 0.871994
C143  C     C_R   0.808389 0.370753 0.466303 0.872007
C144  C     C_R   0.808390 0.629247 0.466301 0.871971
C145  C     C_R   0.191611 0.370753 0.533697 0.871984
C146  C     C_R   0.073850 0.100296 0.934558 0.928351
C147  C     C_R   0.926142 0.899714 0.065450 0.928396
C148  C     C_R   0.926166 0.100314 0.065427 0.928352
Cl1   Cl    Cl    0.984477 0.299059 0.600870 -0.489388
Cl2   Cl    Cl    0.383024 0.657483 0.934648 -0.519452
Cl3   Cl    Cl    0.383017 0.342533 0.934653 -0.519458
Cl4   Cl    Cl    0.617024 0.657406 0.065319 -0.519478
Cl5   Cl    Cl    0.116297 0.841612 0.065886 -0.510770
Cl6   Cl    Cl    0.883792 0.158511 0.934047 -0.510766
Cl7   Cl    Cl    0.883641 0.841704 0.934159 -0.510785
Cl8   Cl    Cl    0.116304 0.158375 0.065881 -0.510790
Cl9   Cl    Cl    0.762087 0.193122 0.774548 -0.514062
Cl10  Cl    Cl    0.237921 0.806891 0.225444 -0.514058
Cl11  Cl    Cl    0.237917 0.193117 0.225449 -0.514057
Cl12  Cl    Cl    0.015502 0.700962 0.399187 -0.489453
Cl13  Cl    Cl    0.762070 0.806908 0.774561 -0.514029
Cl14  Cl    Cl    0.263295 0.695271 0.773875 -0.503223
Cl15  Cl    Cl    0.736553 0.304454 0.226216 -0.503055
Cl16  Cl    Cl    0.736802 0.695098 0.226068 -0.503350
Cl17  Cl    Cl    0.263289 0.304740 0.773875 -0.503238
Cl18  Cl    Cl    0.015476 0.299010 0.399278 -0.489463
Cl19  Cl    Cl    0.984509 0.700976 0.600783 -0.489511
Cl20  Cl    Cl    0.560614 0.796076 0.438522 -0.482560
Cl21  Cl    Cl    0.439365 0.203914 0.561532 -0.482452
Cl22  Cl    Cl    0.439336 0.796107 0.561591 -0.482420
Cl23  Cl    Cl    0.560644 0.203902 0.438460 -0.482309
Cl24  Cl    Cl    0.616946 0.342466 0.065371 -0.519422
H1    H     H_    0.716902 0.999999 0.563017 0.203938
H2    H     H_    0.413282 0.182204 0.425392 0.211658
H3    H     H_    0.413279 0.817795 0.425414 0.211656
H4    H     H_    0.586719 0.182204 0.574611 0.211654
H5    H     H_    0.759522 0.367126 0.922574 0.147841
H6    H     H_    0.240439 0.632872 0.077492 0.147834
H7    H     H_    0.240420 0.367117 0.077520 0.147831
H8    H     H_    0.759702 0.632927 0.922263 0.147807
H9    H     H_    0.259571 0.867705 0.922737 0.147883
H10   H     H_    0.740463 0.132223 0.077172 0.147880
H11   H     H_    0.740303 0.867595 0.077508 0.147856
H12   H     H_    0.283102 0.000001 0.436976 0.203935
H13   H     H_    0.259591 0.132310 0.922704 0.147879
H14   H     H_    0.687860 0.154632 0.999043 0.154716
H15   H     H_    0.312162 0.845313 0.000894 0.154708
H16   H     H_    0.312180 0.154703 0.000863 0.154700
H17   H     H_    0.687727 0.845213 0.999332 0.154661
H18   H     H_    0.187870 0.655256 0.999310 0.155307
H19   H     H_    0.812100 0.344727 0.000732 0.155280
H20   H     H_    0.812258 0.655302 0.000461 0.155286
H21   H     H_    0.187852 0.344733 0.999337 0.155302
H22   H     H_    0.615357 0.342446 0.776396 0.218642
H23   H     H_    0.220076 0.499999 0.552334 0.205507
H24   H     H_    0.384645 0.657559 0.223601 0.218637
H25   H     H_    0.384646 0.342435 0.223598 0.218642
H26   H     H_    0.615351 0.657570 0.776405 0.218639
H27   H     H_    0.115292 0.842290 0.776483 0.219779
H28   H     H_    0.884718 0.157730 0.223507 0.219780
H29   H     H_    0.884704 0.842297 0.223521 0.219782
H30   H     H_    0.115291 0.157713 0.776484 0.219789
H31   H     H_    0.779930 0.500000 0.447651 0.205500
H32   H     H_    0.081964 0.323719 0.596939 0.204536
H33   H     H_    0.918036 0.676282 0.403063 0.204528
H34   H     H_    0.918031 0.323707 0.403104 0.204550
H35   H     H_    0.081969 0.676288 0.596921 0.204534
H36   H     H_    0.586715 0.817797 0.574637 0.211654
O1    O     O_R   0.746490 0.236330 0.638080 -0.557047
O2    O     O_R   0.325830 0.813840 0.483730 -0.626483
O3    O     O_R   0.325830 0.186160 0.483730 -0.626480
O4    O     O_R   0.674170 0.813840 0.516270 -0.626483
O5    O     O_R   0.174170 0.686160 0.516270 -0.627421
O6    O     O_R   0.825830 0.313840 0.483730 -0.627409
O7    O     O_R   0.825830 0.686160 0.483730 -0.627423
O8    O     O_R   0.174170 0.313840 0.516270 -0.627413
O9    O     O_R   0.739960 0.127620 0.525000 -0.617026
O10   O     O_R   0.260040 0.872380 0.475000 -0.617009
O11   O     O_R   0.260040 0.127620 0.475000 -0.617009
O12   O     O_R   0.253510 0.763670 0.361920 -0.557053
O13   O     O_R   0.739960 0.872380 0.525000 -0.617001
O14   O     O_R   0.239960 0.627620 0.525000 -0.618351
O15   O     O_R   0.760040 0.372380 0.475000 -0.618369
O16   O     O_R   0.760040 0.627620 0.475000 -0.618335
O17   O     O_R   0.239960 0.372380 0.525000 -0.618348
O18   O     O_R   0.680700 0.294870 0.629350 -0.639203
O19   O     O_R   0.319300 0.705130 0.370650 -0.639200
O20   O     O_R   0.319300 0.294870 0.370650 -0.639192
O21   O     O_R   0.680700 0.705130 0.629350 -0.639191
O22   O     O_R   0.180700 0.794870 0.629350 -0.637469
O23   O     O_R   0.253510 0.236330 0.361920 -0.557056
O24   O     O_R   0.819300 0.205130 0.370650 -0.637468
O25   O     O_R   0.819300 0.794870 0.370650 -0.637460
O26   O     O_R   0.180700 0.205130 0.629350 -0.637462
O27   O     O_R   0.062020 0.072840 0.007170 -0.555306
O28   O     O_R   0.937980 0.927160 0.992830 -0.555291
O29   O     O_R   0.937980 0.072840 0.992830 -0.555304
O30   O     O_R   0.062020 0.927160 0.007170 -0.555288
O31   O     O_R   0.562020 0.572840 0.007170 -0.554728
O32   O     O_R   0.437980 0.427160 0.992830 -0.554732
O33   O     O_R   0.437980 0.572840 0.992830 -0.554725
O34   O     O_R   0.746490 0.763670 0.638080 -0.557064
O35   O     O_R   0.562020 0.427160 0.007170 -0.554727
O36   O     O_R   0.947860 0.073950 0.109290 -0.628417
O37   O     O_R   0.052140 0.926050 0.890710 -0.628422
O38   O     O_R   0.052140 0.073950 0.890710 -0.628404
O39   O     O_R   0.947860 0.926050 0.109290 -0.628404
O40   O     O_R   0.447860 0.573950 0.109290 -0.629612
O41   O     O_R   0.552140 0.426050 0.890710 -0.629607
O42   O     O_R   0.552140 0.573950 0.890710 -0.629598
O43   O     O_R   0.447860 0.426050 0.109290 -0.629596
O44   O     O_R   0.246490 0.736330 0.638080 -0.552142
O45   O     O_R   0.753510 0.263670 0.361920 -0.552147
O46   O     O_R   0.753510 0.736330 0.361920 -0.552148
O47   O     O_R   0.246490 0.263670 0.638080 -0.552145
O48   O     O_R   0.674170 0.186160 0.516270 -0.626458
Zn1   Zn    Zn3+2 0.792340 0.208750 0.507670 1.090896
Zn2   Zn    Zn3+2 0.494040 0.500000 0.919480 1.117141
Zn3   Zn    Zn3+2 0.005960 0.000000 0.080520 1.122939
Zn4   Zn    Zn3+2 0.994040 0.000000 0.919480 1.122941
Zn5   Zn    Zn3+2 0.207660 0.791250 0.492330 1.090889
Zn6   Zn    Zn3+2 0.207660 0.208750 0.492330 1.090897
Zn7   Zn    Zn3+2 0.792340 0.791250 0.507670 1.090887
Zn8   Zn    Zn3+2 0.292340 0.708750 0.507670 1.094828
Zn9   Zn    Zn3+2 0.707660 0.291250 0.492330 1.094837
Zn10  Zn    Zn3+2 0.707660 0.708750 0.492330 1.094830
Zn11  Zn    Zn3+2 0.292340 0.291250 0.507670 1.094838
Zn12  Zn    Zn3+2 0.505960 0.500000 0.080520 1.117138

loop_
_geom_bond_atom_site_label_1
_geom_bond_atom_site_label_2
_ccdc_geom_bond_type
C125  C134  A    
C1    O18   A    
C14   C56   A    
O48   Zn9   S    
C59   C130  S    
C65   C79   A    
C5    O32   A    
C137  O9    A    
C123  C132  A    
C38   C142  S    
C104  H25   S    
C5    O43   A    
C11   C47   A    
O12   Zn5   S    
C139  O10   A    
C61   O12   A    
C105  O45   A    
O41   Zn2   S    
C99   C148  S    
O42   Zn2   S    
C12   C57   A    
C25   C43   A    
C139  O2    A    
C69   C78   A    
C28   C47   A    
C116  O46   A    
C140  O3    A    
C99   C108  A    
O36   Zn3   S    
C83   O34   A    
C11   C19   A    
C142  O14   A    
C33   C39   A    
C30   C141  S    
O47   Zn11  S    
C124  C133  A    
C106  C114  A    
C127  O47   A    
C89   Cl5   S    
C63   C133  S    
C6    O40   A    
C5    C96   S    
C72   O23   A    
C29   C51   A    
C86   Cl2   S    
C16   C35   A    
C143  O15   A    
C90   C134  A    
C34   C145  S    
C126  Cl16  S    
C75   C84   A    
C11   C18   A    
C10   C17   A    
C87   C131  A    
O9    Zn1   S    
C31   C40   A    
C62   C70   A    
C20   C138  A    
C37   C42   A    
O4    Zn10  S    
O37   Zn4   S    
C1    C111  S    
C26   C45   A    
C85   C129  A    
C3    O37   A    
C21   C43   A    
C85   C93   A    
C26   C34   A    
C22   C44   A    
C113  C122  A    
C68   H15   S    
C116  C118  S    
C9    C44   A    
C141  O13   A    
C116  O25   A    
C53   H2    S    
C77   H9    S    
C64   C73   A    
C8    C43   A    
O6    Zn1   S    
C70   C79   A    
C91   C100  A    
C90   Cl6   S    
C37   C143  S    
C121  C130  A    
C74   H20   S    
C88   C97   A    
C67   H14   S    
C26   C48   A    
C106  H26   S    
C40   H12   S    
C147  O28   A    
C24   C51   A    
C62   C82   A    
O22   Zn5   S    
C147  O39   A    
C100  C109  A    
C8    C16   A    
C87   Cl3   S    
C4    C97   S    
C88   Cl4   S    
C83   C114  S    
C105  C117  S    
C42   H31   S    
C92   C136  A    
C34   C41   A    
C28   C50   A    
C74   C82   A    
C76   H10   S    
C102  H22   S    
C60   C131  S    
C73   C81   A    
C71   C80   A    
O8    Zn6   S    
C3    O30   A    
C95   C103  A    
O19   Zn8   S    
C22   C53   A    
C124  Cl14  S    
C36   C42   A    
C138  Cl1   S    
O2    Zn8   S    
C7    C93   S    
C64   C134  S    
C101  C146  S    
O28   Zn4   S    
C17   C24   A    
C89   C133  A    
C22   C31   A    
C1    O1    A    
C148  O29   A    
C85   Cl24  S    
C105  O24   A    
C62   C132  S    
C24   Cl19  S    
O35   Zn12  S    
C38   C41   A    
C92   Cl8   S    
O33   Zn2   S    
C58   C81   A    
C33   C137  S    
O44   Zn8   S    
C86   C130  A    
C83   O21   A    
O45   Zn9   S    
C101  C110  A    
C145  O17   A    
C72   C113  S    
C23   C44   A    
C120  C129  A    
O21   Zn10  S    
O5    Zn5   S    
C111  C120  A    
C80   H6    S    
C54   H3    S    
C108  H28   S    
C84   H7    S    
C9    C14   A    
C91   Cl7   S    
C2    C49   A    
O7    Zn7   S    
C59   C68   A    
C145  O8    A    
C140  O11   A    
O1    Zn1   S    
O31   Zn12  S    
C69   H16   S    
C12   C15   A    
O26   Zn6   S    
O34   Zn7   S    
C87   C96   A    
O29   Zn4   S    
O3    Zn11  S    
C35   Cl20  S    
C64   C76   A    
O30   Zn3   S    
C6    O33   A    
C78   H13   S    
C61   O19   A    
C102  C111  A    
C141  O4    A    
C107  C115  A    
C65   C135  S    
C92   C101  A    
C32   C139  S    
C143  O6    A    
C66   C136  S    
C114  C123  A    
C13   C18   A    
C66   C78   A    
C60   C69   A    
C39   H1    S    
O23   Zn6   S    
C49   H33   S    
C126  C135  A    
C6    C95   S    
C121  Cl10  S    
C55   C57   A    
C120  Cl9   S    
C14   C16   A    
C2    Cl12  S    
C103  H24   S    
C97   C106  A    
C7    O35   A    
C75   H21   S    
C122  C131  A    
C35   C52   A    
O20   Zn11  S    
C94   O22   A    
C23   C54   A    
C148  O36   A    
C63   C77   A    
C27   C47   A    
C68   C77   A    
C90   C99   A    
C146  O38   A    
C146  O27   A    
O46   Zn10  S    
C127  O26   A    
C115  C124  A    
C65   C74   A    
C56   Cl22  S    
C2    C19   A    
C52   H36   S    
C50   H34   S    
C57   Cl23  S    
C29   C38   A    
O11   Zn6   S    
C25   C55   A    
C142  O5    A    
C63   C71   A    
O13   Zn7   S    
C94   O44   A    
C110  C119  A    
C144  O7    A    
O39   Zn3   S    
C94   C115  S    
C54   C56   A    
C59   C80   A    
O25   Zn7   S    
O40   Zn12  S    
C27   C36   A    
C118  C126  A    
C21   C30   A    
C48   H32   S    
C46   Cl21  S    
C48   C138  A    
C89   C98   A    
O24   Zn1   S    
C23   C32   A    
C7    O41   A    
C96   C104  A    
C36   C144  S    
C81   H5    S    
C112  C121  A    
C41   H23   S    
C119  C128  A    
C107  H27   S    
C60   C84   A    
C3    C98   S    
C13   Cl18  S    
C128  Cl17  S    
C10   C20   A    
C28   C37   A    
C122  Cl11  S    
C123  Cl13  S    
C66   C75   A    
C125  Cl15  S    
C46   C53   A    
C109  H29   S    
C104  C113  A    
C17   C19   A    
C4    O31   A    
C79   H11   S    
C30   C39   A    
C18   C20   A    
O15   Zn9   S    
C32   C40   A    
C71   H18   S    
C9    C15   A    
C55   H4    S    
C144  O16   A    
C108  C117  A    
O38   Zn4   S    
C86   C95   A    
C98   C107  A    
O18   Zn9   S    
C4    O42   A    
C13   C50   A    
C27   C49   A    
C58   C67   A    
C51   H35   S    
C91   C135  A    
C109  C118  A    
C93   C102  A    
O27   Zn3   S    
C128  C136  A    
C72   O20   A    
C10   C45   A    
C82   H8    S    
C100  C147  S    
C110  H30   S    
O10   Zn5   S    
C88   C132  A    
C103  C112  A    
O16   Zn10  S    
C137  O48   A    
C67   C76   A    
C58   C129  S    
C15   C46   A    
O32   Zn2   S    
C31   C140  S    
C61   C112  S    
C117  C125  A    
O43   Zn12  S    
O17   Zn11  S    
C21   C52   A    
C29   C45   A    
C8    C12   A    
C70   H17   S    
C25   C33   A    
O14   Zn8   S    
C73   H19   S    
C119  C127  S    
