data_mof_unit_43097.cif
_audit_creation_date              2013-03-05T16:07:57-0500
_audit_creation_method            fapswitch 2.2
_symmetry_space_group_name_H-M    P1
_symmetry_Int_Tables_number       1
_space_group_crystal_system       triclinic
_cell_length_a                    6.946054
_cell_length_b                    14.559527
_cell_length_c                    15.982712
_cell_angle_alpha                 90.249047
_cell_angle_beta                  90.059718
_cell_angle_gamma                 89.922621
_cell_volume                      1616.33420333

loop_
_atom_site_label
_atom_site_type_symbol
_atom_site_description
_atom_site_fract_x
_atom_site_fract_y
_atom_site_fract_z
_atom_type_partial_charge
O1    O     O_R   0.494380 0.415640 0.412830 -0.590698
O2    O     O_R   0.823960 0.405540 0.586560 -0.600328
O3    O     O_R   0.994270 0.584360 0.587170 -0.602086
C1    C     C_R   0.655425 0.383808 0.615464 0.932558
O4    O     O_R   0.824090 0.404620 0.413450 -0.591904
O5    O     O_R   0.994400 0.583430 0.412820 -0.556452
C2    C     C_R   0.655324 0.382297 0.384588 1.039996
O6    O     O_R   0.494250 0.416570 0.587180 -0.597866
O7    O     O_3   0.660800 0.558670 0.500000 -0.264498
V1    V     V_3+5 0.935650 0.489120 0.500000 1.184827
O8    O     O_R   0.324110 0.594460 0.413440 -0.577970
C3    C     C_R   0.154735 0.614594 0.383097 0.998418
O9    O     O_R   0.323980 0.595380 0.586550 -0.605042
C4    C     C_R   0.155198 0.617478 0.615620 0.845732
V2    V     V_3+5 0.435660 0.510880 0.500000 1.178963
O10   O     O_3   0.160640 0.441330 0.500000 -0.280598
C5    C     C_3   0.056647 0.643597 0.766186 -0.341851
H1    H     H_    0.910159 0.616637 0.752209 0.147048
H2    H     H_    0.146474 0.584308 0.786336 0.132123
C6    C     C_3   0.043510 0.715015 0.838622 -0.369972
H3    H     H_    0.126482 0.689767 0.893531 0.143707
H4    H     H_    0.890743 0.722218 0.858600 0.155075
H5    H     H_    0.868801 0.746436 0.645404 0.163187
H6    H     H_    0.851198 0.852174 0.751439 0.154672
C7    C     C_3   0.016593 0.770347 0.661298 -0.380029
C8    C     C_3   0.347575 0.724733 0.709539 -0.349938
C9    C     C_3   0.144618 0.687385 0.686388 0.120556
H7    H     H_    0.414414 0.757785 0.654017 0.159950
H8    H     H_    0.443323 0.667116 0.728690 0.148512
C10   C     C_3   0.123035 0.809628 0.810700 0.066593
C11   C     C_3   0.004578 0.841671 0.733624 -0.292973
C12   C     C_3   0.335168 0.795367 0.781697 -0.330852
H9    H     H_    0.424745 0.770948 0.834993 0.151138
H10   H     H_    0.396912 0.861860 0.760489 0.174449
H11   H     H_    0.076500 0.803640 0.604443 0.157854
H12   H     H_    0.060466 0.908468 0.711089 0.223328
C13   C     C_R   0.238895 0.826635 0.250823 0.254218
C14   C     C_R   0.117849 0.814094 0.181798 -0.267393
C15   C     C_R   0.992728 0.738116 0.183315 -0.289935
H13   H     H_    0.892906 0.727457 0.132037 0.162418
C16   C     C_R   0.003506 0.671688 0.247639 0.391787
C17   C     C_R   0.138702 0.682362 0.314217 -0.386147
C18   C     C_R   0.247798 0.763320 0.315414 0.122182
C19   C     C_3   0.458360 0.779059 0.327763 -0.441657
C20   C     C_3   0.448351 0.848060 0.256528 -0.443008
H14   H     H_    0.546280 0.717690 0.312463 0.245452
H15   H     H_    0.490307 0.811345 0.389368 0.196076
H16   H     H_    0.529722 0.825935 0.200011 0.200095
H17   H     H_    0.474994 0.919922 0.277195 0.220912
C21   C     C_R   0.497880 0.249486 0.685464 0.158567
C22   C     C_R   0.647940 0.313300 0.681655 -0.200881
C23   C     C_R   0.796528 0.305238 0.741296 -0.175571
H18   H     H_    0.916886 0.352246 0.740241 0.118403
C24   C     C_R   0.784125 0.240654 0.806579 -0.055391
H19   H     H_    0.895759 0.239484 0.853820 0.120862
C25   C     C_R   0.623900 0.181749 0.813465 -0.254439
C26   C     C_R   0.487211 0.184710 0.749157 0.099328
C27   C     C_3   0.273362 0.192707 0.753143 0.202517
C28   C     C_3   0.285346 0.263887 0.683641 -0.582284
H20   H     H_    0.220951 0.220170 0.814012 0.059157
H21   H     H_    0.245096 0.334199 0.704582 0.168000
H22   H     H_    0.220343 0.242122 0.623148 0.239307
C29   C     C_R   0.495789 0.248746 0.311547 0.123791
C30   C     C_R   0.647561 0.311735 0.317459 -0.236776
C31   C     C_R   0.797007 0.303499 0.258287 -0.069238
H23   H     H_    0.918060 0.350019 0.260584 0.148495
C32   C     C_R   0.784928 0.239528 0.191904 -0.084590
H24   H     H_    0.897778 0.238166 0.145339 0.128435
C33   C     C_R   0.623341 0.181783 0.182857 -0.259151
C34   C     C_R   0.484305 0.185238 0.246224 0.151865
C35   C     C_3   0.271303 0.195330 0.240185 0.159272
C36   C     C_3   0.283878 0.264619 0.311648 -0.533181
H25   H     H_    0.225343 0.225691 0.179734 0.096738
H26   H     H_    0.215652 0.241476 0.370774 0.235069
H27   H     H_    0.246784 0.335796 0.292599 0.183268
O11   O     O_R   0.771490 0.080820 0.910070 -0.556551
O12   O     O_R   0.441590 0.092730 0.083780 -0.593875
O13   O     O_R   0.271350 0.913900 0.084390 -0.594651
C37   C     C_R   0.610594 0.115109 0.112613 0.955948
O14   O     O_R   0.441780 0.091820 0.910670 -0.600814
O15   O     O_R   0.271540 0.912980 0.910040 -0.595740
C38   C     C_R   0.610811 0.114387 0.882367 0.952247
O16   O     O_R   0.771300 0.081740 0.084420 -0.579550
O17   O     O_3   0.604960 0.938700 0.997240 -0.290371
V3    V     V_3+5 0.330090 0.008230 0.997220 1.189788
O18   O     O_R   0.941820 0.901930 0.910640 -0.595696
C39   C     C_R   0.111024 0.879695 0.881568 0.923894
O19   O     O_R   0.941630 0.902840 0.083750 -0.596564
C40   C     C_R   0.110538 0.880955 0.112499 1.016317
V4    V     V_3+5 0.830090 0.986410 0.997190 1.193996
O20   O     O_3   0.105080 0.055990 0.997200 -0.260096
N1    N     N_R   0.892636 0.589268 0.238546 0.217397
O21   O     O_R   0.912474 0.539438 0.171350 -0.436160
O22   O     O_R   0.745927 0.574602 0.287080 -0.428901
N2    N     N_R   0.178622 0.107710 0.726917 0.248459
O23   O     O_R   0.228815 0.065652 0.658229 -0.418768
O24   O     O_R   0.048102 0.071396 0.774568 -0.431951
Br1   Br    Br    0.140770 0.082555 0.270791 -0.570561

loop_
_geom_bond_atom_site_label_1
_geom_bond_atom_site_label_2
_geom_bond_distance
_ccdc_geom_bond_type
C7    C11   1.552774 S    
C10   C12   1.558502 S    
C8    C12   1.544252 S    
C16   C17   1.426597 A    
N2    O23   1.302341 A    
C1    O6    1.297929 A    
V3    O20   1.709780 S    
C15   C16   1.416414 A    
C6    C10   1.552336 S    
C23   H18   1.081351 S    
C14   C40   1.478530 S    
C8    C9    1.555390 S    
O14   V3    2.003994 S    
C21   C28   1.491078 S    
O5    C3    1.294692 A    
C14   C15   1.407999 A    
C27   H20   1.111671 S    
V2    O10   2.163302 S    
C5    C6    1.555434 S    
C25   C26   1.399274 A    
C3    C17   1.485512 S    
O8    V2    2.001252 S    
C19   H14   1.108179 S    
C31   C32   1.411250 A    
C34   C35   1.489674 S    
O1    V2    2.003264 S    
C4    C9    1.520065 S    
O7    V1    2.159843 S    
V4    O20   2.163321 S    
C19   H15   1.111516 S    
O12   V3    2.003230 S    
O9    C4    1.301023 A    
O17   V4    1.711965 S    
C36   H27   1.111247 S    
C23   C24   1.410407 A    
C21   C22   1.398793 A    
O12   C37   1.301991 A    
O13   C40   1.297686 A    
C35   Br1   1.941464 S    
C24   C25   1.410638 A    
C28   H21   1.111124 S    
C1    C22   1.478307 S    
C22   C23   1.409337 A    
C5    C9    1.554418 S    
O17   V3    2.159829 S    
O14   C38   1.301742 A    
O18   V4    2.003393 S    
O11   C38   1.296111 A    
C15   H13   1.083760 S    
O4    C2    1.300467 A    
O18   C39   1.304159 A    
C27   C28   1.524902 S    
C32   H24   1.081560 S    
C32   C33   1.410200 A    
C12   H10   1.113699 S    
C13   C18   1.388291 A    
O2    C1    1.298980 A    
C27   N2    1.461966 S    
C13   C14   1.397879 A    
C29   C34   1.393908 A    
C20   H17   1.111507 S    
C6    H3    1.112948 S    
N1    O22   1.299788 A    
C5    H1    1.113167 S    
C29   C36   1.489670 S    
O15   C39   1.297514 A    
O3    C4    1.298946 A    
C7    H11   1.113109 S    
O13   V3    2.003266 S    
C36   H26   1.111428 S    
O19   V4    2.001135 S    
O6    V2    2.001620 S    
O9    V2    2.003433 S    
C18   C19   1.493483 S    
C33   C37   1.483645 S    
C17   C18   1.402198 A    
C13   C20   1.490988 S    
O2    V1    2.004015 S    
C19   C20   1.523131 S    
C35   H25   1.110632 S    
C20   H16   1.112294 S    
O16   V4    2.004927 S    
C24   H19   1.081901 S    
C28   H22   1.111703 S    
O1    C2    1.298788 A    
C21   C26   1.392813 A    
C6    H4    1.113137 S    
O5    V1    2.003194 S    
O8    C3    1.305511 A    
N2    O24   1.299119 A    
C25   C38   1.480784 S    
C7    C9    1.552786 S    
C8    H7    1.113445 S    
C30   C31   1.409634 A    
O7    V2    1.712499 S    
H6    C11   1.113249 S    
C35   C36   1.523122 S    
O3    V1    2.003293 S    
V1    O10   1.709830 S    
C12   H9    1.113579 S    
C37   O16   1.297234 A    
C26   C27   1.491208 S    
C10   C11   1.553718 S    
N1    O21   1.300778 A    
C5    H2    1.112979 S    
H5    C7    1.113215 S    
C33   C34   1.400848 A    
C2    C30   1.483217 S    
C29   C30   1.401075 A    
O4    V1    2.003281 S    
C16   N1    1.433502 S    
O19   C40   1.299349 A    
C8    H8    1.113559 S    
C31   H23   1.080916 S    
C11   H12   1.109320 S    
C10   C39   1.523313 S    
O15   V3    2.003406 S    
O11   V4    2.001967 S    
