data_mof_unit_52381.cif
_audit_creation_date              2012-12-11T15:06:59-0500
_audit_creation_method            fapswitch 2.2
_symmetry_space_group_name_H-M    P1
_symmetry_Int_Tables_number       1
_space_group_crystal_system       triclinic
_cell_length_a                    19.709812
_cell_length_b                    11.325344
_cell_length_c                    18.735333
_cell_angle_alpha                 90.289581
_cell_angle_beta                  89.409168
_cell_angle_gamma                 89.862831
_cell_volume                      4181.82026811

loop_
_atom_site_label
_atom_site_type_symbol
_atom_type_description
_atom_site_fract_x
_atom_site_fract_y
_atom_site_fract_z
_atom_type_partial_charge
C1    C     C_R   0.761552 0.522333 0.638986 0.536516
C2    C     C_3   0.250926 0.057660 0.563958 0.057453
C3    C     C_R   0.740518 0.036223 0.152338 0.531115
C4    C     C_R   0.774352 0.133828 0.859344 0.532218
C5    C     C_R   0.226355 0.131157 0.141703 0.533234
C6    C     C_R   0.274352 0.633828 0.859344 0.532218
C7    C     C_R   0.726355 0.631157 0.141703 0.533241
C8    C     C_R   0.966898 0.353418 0.854746 0.536542
C9    C     C_R   0.031278 0.353219 0.146228 0.532519
C10   C     C_R   0.466898 0.853418 0.854747 0.536540
C11   C     C_R   0.531278 0.853219 0.146228 0.532518
C12   C     C_3   0.683026 0.061582 0.478687 -0.256891
C13   C     C_3   0.250607 0.554880 0.437912 0.044941
C14   C     C_3   0.309758 0.131988 0.533293 -0.261335
C15   C     C_3   0.183026 0.561580 0.478687 -0.256892
C16   C     C_3   0.809754 0.632000 0.533295 -0.261331
C17   C     C_3   0.690908 0.098628 0.556105 -0.261520
C18   C     C_3   0.306814 0.129351 0.451516 -0.260767
C19   C     C_3   0.190907 0.598625 0.556105 -0.261515
C20   C     C_3   0.806808 0.629352 0.451519 -0.260767
C21   C     C_3   0.794765 0.954703 0.472224 -0.203518
C22   C     C_3   0.243313 0.943817 0.517757 -0.209416
C23   C     C_3   0.294766 0.454708 0.472224 -0.203523
C24   C     C_3   0.750924 0.557672 0.563963 0.057463
C25   C     C_3   0.743307 0.443831 0.517762 -0.209422
C26   C     C_3   0.860714 0.915358 0.583690 -0.398798
C27   C     C_3   0.146418 0.918042 0.432076 -0.389796
C28   C     C_3   0.360713 0.415356 0.583690 -0.398802
C29   C     C_3   0.646397 0.418066 0.432110 -0.389876
C30   C     C_3   0.765788 0.084764 0.575849 0.085482
C31   C     C_3   0.232519 0.099469 0.428537 0.082087
C32   C     C_3   0.265788 0.584765 0.575849 0.085487
C33   C     C_3   0.732511 0.599480 0.428543 0.082072
C34   C     C_3   0.791360 0.957944 0.554289 -0.120469
C35   C     C_3   0.219579 0.966835 0.441770 -0.102383
C36   C     C_3   0.291359 0.457944 0.554289 -0.120481
C37   C     C_R   0.239442 0.525003 0.360791 0.533917
C38   C     C_3   0.719564 0.466848 0.441778 -0.102371
C39   C     C_3   0.806389 0.174547 0.530839 -0.214493
C40   C     C_3   0.182550 0.170104 0.477255 -0.224746
C41   C     C_3   0.306391 0.674548 0.530838 -0.214482
C42   C     C_3   0.682544 0.670114 0.477263 -0.224759
C43   C     C_3   0.993540 0.200103 0.456205 -0.236136
C44   C     C_3   0.995277 0.200787 0.539005 -0.233479
C45   C     C_3   0.493534 0.700105 0.456204 -0.236140
C46   C     C_3   0.495268 0.700789 0.539004 -0.233466
C47   C     C_3   0.060741 0.390788 0.469596 -0.213275
C48   C     C_R   0.261553 0.022327 0.638984 0.536511
C49   C     C_3   0.932391 0.399734 0.527626 -0.210406
C50   C     C_3   0.560744 0.890783 0.469595 -0.213271
C51   C     C_3   0.432405 0.899770 0.527628 -0.210389
C52   C     C_3   0.938819 0.395345 0.445768 -0.265921
C53   C     C_3   0.054467 0.389414 0.550970 -0.269842
C54   C     C_3   0.438820 0.895351 0.445770 -0.265926
C55   C     C_3   0.554477 0.889394 0.550970 -0.269860
C56   C     C_3   0.003679 0.328875 0.428318 0.064980
C57   C     C_3   0.988097 0.329702 0.567999 0.066685
C58   C     C_3   0.503678 0.828875 0.428317 0.064980
C59   C     C_R   0.739442 0.025001 0.360791 0.533919
C60   C     C_3   0.488100 0.829704 0.567999 0.066691
C61   C     C_3   0.820039 0.030495 0.047339 -0.232565
C62   C     C_3   0.186997 0.009857 0.956571 -0.227182
C63   C     C_3   0.320039 0.530495 0.047339 -0.232565
C64   C     C_3   0.686998 0.509857 0.956571 -0.227182
C65   C     C_R   0.774378 0.117227 0.651214 0.538923
C66   C     C_R   0.221768 0.129274 0.353424 0.544626
C67   C     C_R   0.274378 0.617227 0.651214 0.538926
C68   C     C_R   0.721761 0.629290 0.353430 0.544636
C69   C     C_3   0.822099 0.036647 0.967148 -0.224211
C70   C     C_3   0.787566 0.170184 0.450675 -0.267996
C71   C     C_3   0.184882 0.016048 0.036653 -0.233438
C72   C     C_3   0.322099 0.536647 0.967148 -0.224211
C73   C     C_3   0.684882 0.516048 0.036653 -0.233438
C74   C     C_3   0.693102 0.013709 0.032766 -0.219533
C75   C     C_3   0.317548 0.034176 0.967429 -0.211582
C76   C     C_3   0.193102 0.513709 0.032766 -0.219533
C77   C     C_3   0.817548 0.534176 0.967429 -0.211582
C78   C     C_3   0.745257 0.204841 0.062197 -0.254165
C79   C     C_3   0.243539 0.200210 0.938666 -0.260782
C80   C     C_3   0.245257 0.704841 0.062197 -0.254165
C81   C     C_3   0.185664 0.129184 0.555544 -0.242146
C82   C     C_3   0.743539 0.700210 0.938666 -0.260782
C83   C     C_3   0.749924 0.073076 0.076058 0.059802
C84   C     C_3   0.252334 0.068508 0.925627 0.063234
C85   C     C_3   0.249924 0.573076 0.076058 0.059802
C86   C     C_3   0.752334 0.568508 0.925627 0.063235
C87   C     C_3   0.760479 0.106621 0.936867 0.062624
C88   C     C_3   0.240387 0.101609 0.064582 0.058480
C89   C     C_3   0.260479 0.606621 0.936867 0.062624
C90   C     C_3   0.740387 0.601609 0.064582 0.058479
C91   C     C_3   0.699249 0.028039 0.950592 -0.260799
C92   C     C_3   0.287558 0.670193 0.450676 -0.268012
C93   C     C_3   0.308767 0.044021 0.049494 -0.254010
C94   C     C_3   0.199249 0.528040 0.950592 -0.260799
C95   C     C_3   0.808767 0.544021 0.049494 -0.254009
C96   C     C_3   0.745365 0.222632 0.980097 -0.216878
C97   C     C_3   0.238415 0.217128 0.020762 -0.225926
C98   C     C_3   0.245365 0.722632 0.980097 -0.216878
C99   C     C_3   0.738415 0.717128 0.020762 -0.225926
C100  C     C_3   0.995074 0.478754 0.042758 -0.232733
C101  C     C_3   0.991396 0.478991 0.961916 -0.227048
C102  C     C_3   0.495074 0.978754 0.042758 -0.232733
C103  C     C_3   0.685666 0.629205 0.555554 -0.242149
C104  C     C_3   0.491396 0.978991 0.961916 -0.227048
C105  C     C_3   0.067552 0.296649 0.024877 -0.225318
C106  C     C_3   0.937226 0.270709 0.974272 -0.211799
C107  C     C_3   0.567552 0.796649 0.024877 -0.225317
C108  C     C_3   0.437226 0.770709 0.974272 -0.211798
C109  C     C_3   0.946277 0.278567 0.055962 -0.253707
C110  C     C_3   0.056931 0.297106 0.943230 -0.260663
C111  C     C_3   0.446277 0.778567 0.055962 -0.253706
C112  C     C_3   0.556931 0.797106 0.943230 -0.260663
C113  C     C_R   0.969609 0.341312 0.644969 0.534469
C114  C     C_3   0.750608 0.054877 0.437912 0.044947
C115  C     C_R   0.026706 0.341279 0.352507 0.528628
C116  C     C_R   0.469611 0.841312 0.644970 0.534462
C117  C     C_R   0.526704 0.841279 0.352506 0.528620
C118  C     C_3   0.009223 0.351675 0.069853 0.059493
C119  C     C_3   0.987417 0.351063 0.931299 0.063843
C120  C     C_3   0.509223 0.851675 0.069853 0.059494
C121  C     C_3   0.487417 0.851063 0.931299 0.063843
C122  C     C_R   0.760543 0.533186 0.849038 0.534804
C123  C     C_R   0.240518 0.536223 0.152338 0.531113
C124  C     C_R   0.260543 0.033186 0.849038 0.534806
Cr1   Cr    Cr6+3 0.885690 0.492860 0.745310 0.989584
Cr2   Cr    Cr6+3 0.111880 0.178590 0.246990 0.986788
Cr3   Cr    Cr6+3 0.388120 0.678590 0.753010 0.986271
Cr4   Cr    Cr6+3 0.611880 0.678590 0.246990 0.986782
Cr5   Cr    Cr6+3 0.114310 0.492860 0.254690 0.990636
Cr6   Cr    Cr6+3 0.385690 0.992860 0.745310 0.989583
Cr7   Cr    Cr6+3 0.614310 0.992860 0.254690 0.990639
Cr8   Cr    Cr6+3 0.729880 0.332270 0.748190 0.991454
Cr9   Cr    Cr6+3 0.270120 0.332270 0.251810 0.990537
Cr10  Cr    Cr6+3 0.229880 0.832270 0.748190 0.991456
Cr11  Cr    Cr6+3 0.770120 0.832270 0.251810 0.990539
Cr12  Cr    Cr6+3 0.888120 0.178590 0.753010 0.986272
H1    H     H_    0.669770 0.970782 0.482494 0.121255
H2    H     H_    0.211419 0.876560 0.544523 0.144497
H3    H     H_    0.537070 0.023880 0.939836 0.114307
H4    H     H_    0.608031 0.855247 0.035493 0.110520
H5    H     H_    0.384528 0.783351 0.959149 0.109376
H6    H     H_    0.108031 0.355247 0.035493 0.110520
H7    H     H_    0.884528 0.283351 0.959149 0.109376
H8    H     H_    0.596839 0.849322 0.915598 0.104126
H9    H     H_    0.401122 0.819093 0.082064 0.101953
H10   H     H_    0.096839 0.349322 0.915598 0.104126
H11   H     H_    0.901123 0.319093 0.082063 0.101954
H12   H     H_    0.953658 0.189098 0.078676 0.115747
H13   H     H_    0.348235 0.463584 0.452842 0.141191
H14   H     H_    0.059867 0.205826 0.921307 0.111968
H15   H     H_    0.453658 0.689098 0.078676 0.115746
H16   H     H_    0.559867 0.705826 0.921307 0.111968
H17   H     H_    0.951127 0.179416 0.959089 0.122993
H18   H     H_    0.078291 0.205988 0.042965 0.130926
H19   H     H_    0.451127 0.679416 0.959089 0.122993
H20   H     H_    0.578291 0.705988 0.042965 0.130927
H21   H     H_    0.659252 0.043470 0.592078 0.100982
H22   H     H_    0.340815 0.060089 0.430173 0.106839
H23   H     H_    0.159251 0.543465 0.592077 0.100982
H24   H     H_    0.711405 0.376587 0.544528 0.144517
H25   H     H_    0.840807 0.560083 0.430179 0.106847
H26   H     H_    0.777318 0.869116 0.453818 0.121742
H27   H     H_    0.294109 0.912386 0.507848 0.092787
H28   H     H_    0.277322 0.369119 0.453816 0.121750
H29   H     H_    0.794103 0.412395 0.507855 0.092789
H30   H     H_    0.752174 0.894420 0.573004 0.112370
H31   H     H_    0.252337 0.918741 0.402466 0.107561
H32   H     H_    0.252173 0.394418 0.573001 0.112375
H33   H     H_    0.752311 0.418745 0.402469 0.107599
H34   H     H_    0.833050 0.176322 0.415709 0.104479
H35   H     H_    0.030121 0.135873 0.433793 0.126883
H36   H     H_    0.141489 0.072555 0.568922 0.135225
H37   H     H_    0.333038 0.676346 0.415704 0.104470
H38   H     H_    0.641488 0.572591 0.568947 0.135207
H39   H     H_    0.753022 0.242011 0.437186 0.123964
H40   H     H_    0.185030 0.206289 0.592514 0.092615
H41   H     H_    0.253006 0.742012 0.437196 0.123989
H42   H     H_    0.685043 0.706315 0.592521 0.092608
H43   H     H_    0.798968 0.258596 0.556700 0.106251
H44   H     H_    0.196219 0.263264 0.476299 0.089051
H45   H     H_    0.298999 0.758599 0.556708 0.106246
H46   H     H_    0.958666 0.139916 0.562335 0.119735
H47   H     H_    0.696211 0.763275 0.476301 0.089045
H48   H     H_    0.884096 0.845336 0.549860 0.096602
H49   H     H_    0.898823 0.985959 0.584365 0.155309
H50   H     H_    0.854179 0.878932 0.638269 0.158776
H51   H     H_    0.143025 0.826877 0.452957 0.098163
H52   H     H_    0.107479 0.970307 0.461195 0.127731
H53   H     H_    0.132556 0.909447 0.375208 0.170137
H54   H     H_    0.384095 0.345335 0.549859 0.096604
H55   H     H_    0.398822 0.485956 0.584367 0.155305
H56   H     H_    0.354177 0.378928 0.638268 0.158777
H57   H     H_    0.530114 0.635871 0.433794 0.126896
H58   H     H_    0.643036 0.326851 0.452913 0.098178
H59   H     H_    0.607487 0.470248 0.461321 0.127687
H60   H     H_    0.632469 0.409598 0.375259 0.170200
H61   H     H_    0.458655 0.639926 0.562335 0.119736
H62   H     H_    0.944016 0.165497 0.438447 0.106451
H63   H     H_    0.044093 0.163475 0.556441 0.105391
H64   H     H_    0.444009 0.665503 0.438444 0.106445
H65   H     H_    0.359824 0.107177 0.552245 0.131068
H66   H     H_    0.544081 0.663463 0.556439 0.105380
H67   H     H_    0.606617 0.846721 0.451259 0.109513
H68   H     H_    0.384026 0.868641 0.547234 0.110301
H69   H     H_    0.106614 0.346714 0.451271 0.109507
H70   H     H_    0.884021 0.368539 0.547211 0.110281
H71   H     H_    0.598032 0.842919 0.575375 0.100602
H72   H     H_    0.393968 0.852540 0.421527 0.099817
H73   H     H_    0.098027 0.342959 0.575382 0.100590
H74   H     H_    0.893972 0.352541 0.421511 0.099813
H75   H     H_    0.942518 0.486374 0.424173 0.124065
H76   H     H_    0.169771 0.470778 0.482492 0.121255
H77   H     H_    0.053960 0.481426 0.572021 0.126908
H78   H     H_    0.442517 0.986372 0.424162 0.124061
H79   H     H_    0.553982 0.981400 0.572029 0.126890
H80   H     H_    0.938429 0.493344 0.542382 0.136042
H81   H     H_    0.061253 0.485444 0.454548 0.144403
H82   H     H_    0.438478 0.993385 0.542371 0.136020
H83   H     H_    0.561251 0.985442 0.454553 0.144399
H84   H     H_    0.832876 0.938597 0.061961 0.137111
H85   H     H_    0.180687 0.918425 0.939942 0.139212
H86   H     H_    0.332876 0.438597 0.061961 0.137111
H87   H     H_    0.859822 0.607209 0.552250 0.131056
H88   H     H_    0.680687 0.418425 0.939942 0.139212
H89   H     H_    0.644534 0.117081 0.451786 0.130376
H90   H     H_    0.301883 0.222028 0.552383 0.129022
H91   H     H_    0.144533 0.617080 0.451786 0.130375
H92   H     H_    0.801877 0.722041 0.552380 0.129019
H93   H     H_    0.860418 0.085517 0.070657 0.114878
H94   H     H_    0.141443 0.054957 0.934926 0.114303
H95   H     H_    0.360418 0.585517 0.070657 0.114878
H96   H     H_    0.641443 0.554957 0.934926 0.114303
H97   H     H_    0.870885 0.071743 0.950777 0.135981
H98   H     H_    0.860140 0.155717 0.534289 0.130038
H99   H     H_    0.132518 0.041680 0.052052 0.135899
H100  H     H_    0.370885 0.571743 0.950777 0.135981
H101  H     H_    0.632518 0.541680 0.052052 0.135899
H102  H     H_    0.822397 0.945403 0.944781 0.114696
H103  H     H_    0.192651 0.927678 0.059682 0.117530
H104  H     H_    0.322397 0.445403 0.944781 0.114696
H105  H     H_    0.692651 0.427678 0.059682 0.117531
H106  H     H_    0.700011 0.923266 0.046378 0.109733
H107  H     H_    0.337741 0.948591 0.950742 0.111025
H108  H     H_    0.200011 0.423266 0.046378 0.109733
H109  H     H_    0.131065 0.161306 0.457669 0.130233
H110  H     H_    0.837741 0.448591 0.950742 0.111025
H111  H     H_    0.705808 0.941174 0.923823 0.106294
H112  H     H_    0.311662 0.955820 0.074646 0.103049
H113  H     H_    0.205808 0.441174 0.923823 0.106294
H114  H     H_    0.811662 0.455819 0.074646 0.103050
H115  H     H_    0.697501 0.239266 0.086625 0.115239
H116  H     H_    0.287142 0.250628 0.916413 0.111224
H117  H     H_    0.197501 0.739266 0.086625 0.115238
H118  H     H_    0.787142 0.750628 0.916413 0.111224
H119  H     H_    0.788292 0.252014 0.087031 0.102206
H120  H     H_    0.360138 0.655687 0.534272 0.130040
H121  H     H_    0.197290 0.233162 0.911857 0.104310
H122  H     H_    0.288292 0.752014 0.087031 0.102205
H123  H     H_    0.697290 0.733162 0.911857 0.104310
H124  H     H_    0.778099 0.295471 0.964285 0.108646
H125  H     H_    0.189111 0.249719 0.032273 0.110323
H126  H     H_    0.278099 0.795471 0.964285 0.108646
H127  H     H_    0.689111 0.749719 0.032273 0.110323
H128  H     H_    0.692870 0.247566 0.966684 0.117222
H129  H     H_    0.278298 0.278114 0.038971 0.124958
H130  H     H_    0.192870 0.747566 0.966684 0.117222
H131  H     H_    0.631058 0.661299 0.457681 0.130257
H132  H     H_    0.778298 0.778114 0.038971 0.124957
H133  H     H_    0.643086 0.046395 0.051269 0.129804
H134  H     H_    0.355637 0.101039 0.952198 0.121702
H135  H     H_    0.143086 0.546395 0.051269 0.129804
H136  H     H_    0.855637 0.601039 0.952198 0.121702
H137  H     H_    0.673099 0.191185 0.562406 0.139216
H138  H     H_    0.327933 0.212102 0.429985 0.137598
H139  H     H_    0.173096 0.691182 0.562407 0.139213
H140  H     H_    0.827931 0.712098 0.429985 0.137599
H141  H     H_    0.652469 0.068613 0.928888 0.110138
H142  H     H_    0.848234 0.963572 0.452840 0.141195
H143  H     H_    0.349092 0.100595 0.072389 0.114945
H144  H     H_    0.152469 0.568613 0.928888 0.110138
H145  H     H_    0.849092 0.600595 0.072389 0.114945
H146  H     H_    0.034206 0.543304 0.058582 0.132191
H147  H     H_    0.949976 0.535033 0.945192 0.132004
H148  H     H_    0.534206 0.043303 0.058582 0.132191
H149  H     H_    0.449976 0.035033 0.945192 0.132004
H150  H     H_    0.947191 0.511667 0.066609 0.117059
H151  H     H_    0.037070 0.523880 0.939836 0.114307
H152  H     H_    0.447190 0.011667 0.066609 0.117058
O1    O     O_R   0.957210 0.449410 0.665480 -0.533778
O2    O     O_R   0.167480 0.095300 0.164000 -0.534626
O3    O     O_R   0.332520 0.595300 0.836000 -0.536348
O4    O     O_R   0.667480 0.595300 0.164000 -0.534622
O5    O     O_R   0.946380 0.253940 0.826940 -0.513403
O6    O     O_R   0.053620 0.253940 0.173060 -0.513469
O7    O     O_R   0.446380 0.753940 0.826940 -0.513403
O8    O     O_R   0.553620 0.753940 0.173060 -0.513470
O9    O     O_3   0.834560 0.334570 0.748840 -0.273525
O10   O     O_3   0.165440 0.334570 0.251160 -0.270935
O11   O     O_3   0.334560 0.834570 0.748840 -0.273527
O12   O     O_R   0.042790 0.449410 0.334520 -0.533716
O13   O     O_3   0.665440 0.834570 0.251160 -0.270940
O14   O     O_R   0.820730 0.541240 0.668250 -0.516089
O15   O     O_R   0.179270 0.541240 0.331750 -0.510289
O16   O     O_R   0.320730 0.041240 0.668250 -0.516091
O17   O     O_R   0.679270 0.041240 0.331750 -0.510286
O18   O     O_R   0.714240 0.455060 0.663710 -0.533214
O19   O     O_R   0.285760 0.455060 0.336290 -0.536124
O20   O     O_R   0.214240 0.955060 0.663710 -0.533204
O21   O     O_R   0.785760 0.955060 0.336290 -0.536128
O22   O     O_R   0.736780 0.204870 0.675910 -0.517570
O23   O     O_R   0.457210 0.949410 0.665480 -0.533778
O24   O     O_R   0.263220 0.204870 0.324090 -0.519544
O25   O     O_R   0.236780 0.704870 0.675910 -0.517569
O26   O     O_R   0.763220 0.704870 0.324090 -0.519541
O27   O     O_R   0.833070 0.087590 0.673490 -0.532376
O28   O     O_R   0.166930 0.087590 0.326510 -0.533686
O29   O     O_R   0.333070 0.587590 0.673490 -0.532374
O30   O     O_R   0.666930 0.587590 0.326510 -0.533704
O31   O     O_R   0.946890 0.246800 0.676300 -0.512240
O32   O     O_R   0.053110 0.246800 0.323700 -0.513883
O33   O     O_R   0.446890 0.746800 0.676300 -0.512240
O34   O     O_R   0.542790 0.949410 0.334520 -0.533716
O35   O     O_R   0.553110 0.746800 0.323700 -0.513888
O36   O     O_R   0.956650 0.457120 0.827980 -0.531756
O37   O     O_R   0.043350 0.457120 0.172020 -0.532879
O38   O     O_R   0.456650 0.957120 0.827980 -0.531755
O39   O     O_R   0.543350 0.957120 0.172020 -0.532879
O40   O     O_R   0.820220 0.548390 0.818890 -0.511339
O41   O     O_R   0.179780 0.548390 0.181110 -0.511232
O42   O     O_R   0.320220 0.048390 0.818890 -0.511337
O43   O     O_R   0.679780 0.048390 0.181110 -0.511229
O44   O     O_R   0.713680 0.462770 0.826210 -0.532212
O45   O     O_R   0.736260 0.212010 0.826560 -0.509935
O46   O     O_R   0.286320 0.462770 0.173790 -0.532158
O47   O     O_R   0.213680 0.962770 0.826210 -0.532211
O48   O     O_R   0.786320 0.962770 0.173790 -0.532158
O49   O     O_R   0.263740 0.212010 0.173440 -0.508638
O50   O     O_R   0.236260 0.712010 0.826560 -0.509935
O51   O     O_R   0.763740 0.712010 0.173440 -0.508635
O52   O     O_R   0.832520 0.095300 0.836000 -0.536349

loop_
_geom_bond_atom_site_label_1
_geom_bond_atom_site_label_2
_ccdc_geom_bond_type
C105  C110  S    
C87   C91   S    
C107  C112  S    
C74   C83   S    
Cr2   O28   S    
C90   C95   S    
C4    C87   S    
C45   H64   S    
C47   H81   S    
C41   H120  S    
C10   O38   A    
C26   H49   S    
C8    O5    A    
C11   C120  S    
Cr12  O31   S    
C113  O1    A    
C14   H65   S    
C28   H56   S    
C36   H32   S    
Cr4   O8    S    
C62   H85   S    
C89   C94   S    
Cr9   O19   S    
C122  O40   A    
C40   H44   S    
C5    C88   S    
C123  O46   A    
C78   C96   S    
C2    C22   S    
C88   C97   S    
C97   H125  S    
C47   C53   S    
C23   H13   S    
C99   H127  S    
C63   C85   S    
C52   H74   S    
C17   C30   S    
C63   H86   S    
C19   C32   S    
C109  C118  S    
C51   H82   S    
C47   H69   S    
C81   H40   S    
Cr8   O45   S    
C59   O21   A    
C27   C35   S    
C45   C46   S    
C72   H100  S    
Cr1   O40   S    
C15   H91   S    
C43   C44   S    
C20   H140  S    
Cr7   O43   S    
C7    O4    A    
C44   C57   S    
C16   C20   S    
C106  H17   S    
C77   H136  S    
C27   H51   S    
C20   C33   S    
C97   H129  S    
C3    C83   S    
C105  C118  S    
C122  O44   A    
C107  C120  S    
C51   H68   S    
C75   C93   S    
C38   H33   S    
Cr3   O7    S    
C54   H78   S    
C16   H92   S    
C43   H35   S    
C46   C60   S    
C79   C97   S    
C110  H14   S    
C17   H137  S    
Cr4   O35   S    
C33   C38   S    
C108  C111  S    
C68   O30   A    
C19   H23   S    
Cr4   O13   S    
C108  H19   S    
C85   C123  S    
C58   C117  S    
Cr7   O34   S    
C2    C14   S    
C93   H143  S    
Cr11  O21   S    
C94   H144  S    
C71   C88   S    
C74   H106  S    
C49   H70   S    
C23   C36   S    
C2    C81   S    
C18   C31   S    
C76   C85   S    
Cr1   O1    S    
Cr2   O6    S    
C5    O49   A    
C79   H116  S    
C42   C103  S    
C40   H109  S    
C33   C42   S    
C32   C36   S    
C73   C90   S    
C8    O36   A    
C55   H79   S    
C79   C84   S    
C75   C84   S    
C76   H135  S    
C100  H150  S    
C50   H83   S    
C107  H4    S    
C49   C57   S    
C13   C23   S    
C102  H152  S    
C69   H97   S    
Cr10  O20   S    
C95   H145  S    
C29   C38   S    
Cr11  O51   S    
C64   C73   S    
C71   H99   S    
C17   H21   S    
Cr9   O24   S    
Cr10  O11   S    
C76   C94   S    
C4    O45   A    
C96   H128  S    
Cr2   O2    S    
C9    C118  S    
C109  H11   S    
C116  O33   A    
C95   H114  S    
C12   C114  S    
Cr12  O27   S    
C99   H132  S    
C30   C34   S    
C79   H121  S    
C124  O42   A    
C105  H6    S    
C66   O24   A    
C57   C113  S    
C117  O34   A    
C29   H59   S    
C7    C90   S    
C103  H38   S    
C15   H76   S    
C6    O50   A    
C25   C38   S    
C98   H126  S    
C32   C67   S    
C54   H72   S    
C37   O19   A    
C1    O14   A    
C60   C116  S    
C28   H55   S    
C90   C99   S    
C59   O17   A    
Cr12  O9    S    
C63   H95   S    
C23   H28   S    
C62   C84   S    
C53   H77   S    
C21   H26   S    
Cr1   O36   S    
Cr6   O16   S    
Cr7   O13   S    
Cr8   O18   S    
C110  C119  S    
Cr7   O39   S    
C65   O27   A    
C75   H134  S    
C66   O28   A    
Cr9   O49   S    
Cr4   O30   S    
C89   C98   S    
C24   C103  S    
C112  C121  S    
Cr12  O52   S    
C26   H50   S    
C98   H130  S    
C100  C101  S    
C30   C39   S    
Cr3   O33   S    
C30   C65   S    
C92   H41   S    
Cr9   O10   S    
Cr3   O11   S    
C116  O23   A    
Cr4   O4    S    
C1    C24   S    
C51   C60   S    
C42   H131  S    
C110  H10   S    
C33   C68   S    
C47   C56   S    
C18   H138  S    
C106  C109  S    
C67   O29   A    
C106  C119  S    
C82   C99   S    
C108  C121  S    
C5    O2    A    
C106  H7    S    
C50   H67   S    
C15   C19   S    
C14   H90   S    
C115  O32   A    
C31   C40   S    
C64   H88   S    
C77   H110  S    
C91   H141  S    
Cr9   O46   S    
Cr6   O38   S    
C78   C83   S    
C12   C17   S    
C86   C122  S    
C61   H93   S    
C112  H16   S    
C69   H102  S    
C69   C87   S    
Cr7   O17   S    
C124  O47   A    
C55   C60   S    
C78   H115  S    
C41   H45   S    
C64   C86   S    
C108  H5    S    
C45   H57   S    
C91   H111  S    
C45   C58   S    
C80   H117  S    
C101  H147  S    
C50   C58   S    
C102  H148  S    
C61   C83   S    
C64   H96   S    
C53   C57   S    
C46   H61   S    
C21   C34   S    
C25   H29   S    
C82   C86   S    
C115  O12   A    
C71   H103  S    
C74   C91   S    
C80   C85   S    
C18   H22   S    
Cr1   O9    S    
C39   H43   S    
Cr6   O42   S    
C96   H124  S    
C49   C52   S    
C25   H24   S    
Cr10  O25   S    
C117  O35   A    
C13   C92   S    
C42   H47   S    
C31   C35   S    
C80   H122  S    
C78   H119  S    
C29   H60   S    
C44   H46   S    
C102  C120  S    
C6    O3    A    
Cr5   O15   S    
C80   C98   S    
C82   H123  S    
Cr5   O37   S    
C28   H54   S    
C39   H98   S    
C3    O43   A    
C22   H2    S    
C104  H3    S    
Cr6   O11   S    
C2    C48   S    
C103  H42   S    
C70   H34   S    
C21   H142  S    
Cr2   O32   S    
Cr3   O29   S    
C59   C114  S    
C56   C115  S    
C43   H62   S    
C27   H52   S    
Cr12  O5    S    
C20   H25   S    
C46   H66   S    
C73   H105  S    
C63   C72   S    
C28   C36   S    
C53   H73   S    
C82   H118  S    
C16   H87   S    
Cr8   O22   S    
C34   H30   S    
C31   C66   S    
C37   O15   A    
C22   H27   S    
C14   C18   S    
C4    O52   A    
C61   H84   S    
C10   C121  S    
Cr5   O41   S    
C70   C114  S    
C22   C35   S    
C49   H80   S    
C101  H151  S    
Cr10  O47   S    
C76   H108  S    
C65   O22   A    
C111  H9    S    
Cr8   O44   S    
C123  O41   A    
C29   H58   S    
Cr5   O10   S    
C81   H36   S    
C26   C34   S    
C19   H139  S    
C67   O25   A    
Cr11  O48   S    
C62   C71   S    
C52   H75   S    
C35   H31   S    
C72   H104  S    
Cr10  O50   S    
C70   H39   S    
C13   C37   S    
C107  H20   S    
C104  H149  S    
C105  H18   S    
C16   C24   S    
Cr11  O13   S    
C9    O6    A    
C74   H133  S    
Cr6   O23   S    
C11   O8    A    
Cr8   O9    S    
C101  C119  S    
C48   O20   A    
C24   C25   S    
Cr3   O3    S    
C104  C121  S    
C62   H94   S    
C77   C95   S    
C111  C120  S    
C7    O51   A    
C73   H101  S    
C93   H112  S    
Cr11  O26   S    
C32   C41   S    
C87   C96   S    
C68   O26   A    
C102  C104  S    
Cr1   O14   S    
C9    O37   A    
C77   C86   S    
C13   C15   S    
C11   O39   A    
C109  H12   S    
C94   H113  S    
C54   C58   S    
C61   C69   S    
C88   C93   S    
C40   C81   S    
C21   C114  S    
C48   O16   A    
C111  H15   S    
Cr2   O10   S    
C92   H37   S    
C84   C124  S    
C6    C89   S    
C1    O18   A    
Cr5   O12   S    
C50   C55   S    
C51   C54   S    
C112  H8    S    
C55   H71   S    
C72   C89   S    
C12   H89   S    
C113  O31   A    
C3    O48   A    
C39   C70   S    
C75   H107  S    
C43   C56   S    
C41   C92   S    
C100  C118  S    
C8    C119  S    
C44   H63   S    
C100  H146  S    
C12   H1    S    
C27   H53   S    
C52   C56   S    
C10   O7    A    
C26   H48   S    
