data_mof_unit_50747.cif
_audit_creation_date              2012-12-10T18:05:59-0500
_audit_creation_method            fapswitch 2.2
_symmetry_space_group_name_H-M    P1
_symmetry_Int_Tables_number       1
_space_group_crystal_system       triclinic
_cell_length_a                    12.697096
_cell_length_b                    13.256037
_cell_length_c                    14.853671
_cell_angle_alpha                 92.300347
_cell_angle_beta                  101.472387
_cell_angle_gamma                 83.235023
_cell_volume                      2432.70175155

loop_
_atom_site_label
_atom_site_type_symbol
_atom_type_description
_atom_site_fract_x
_atom_site_fract_y
_atom_site_fract_z
_atom_type_partial_charge
C1    C     C_R   0.440753 0.690236 0.483411 0.860451
C2    C     C_R   0.494384 0.594623 0.814005 -0.265940
C3    C     C_R   0.498865 0.502442 0.766994 -0.050955
C4    C     C_R   0.499748 0.501337 0.672078 0.875654
C5    C     C_R   0.496972 0.411290 0.808410 -0.281397
C6    C     C_R   0.724974 0.052389 0.548639 0.188628
C7    C     C_R   0.592439 0.200783 0.520484 -0.148866
C8    C     C_R   0.297415 0.835340 0.462178 -0.233246
C9    C     C_R   0.264615 0.940075 0.462413 0.283825
C10   C     C_R   0.343268 0.006700 0.468249 -0.270473
C11   C     C_R   0.452564 0.970793 0.466994 0.074336
C12   C     C_R   0.502304 0.410714 0.090267 0.125836
C13   C     C_R   0.482225 0.866096 0.457378 0.045218
C14   C     C_R   0.535626 0.035118 0.482930 0.005350
C15   C     C_R   0.645071 0.994316 0.499152 0.059259
C16   C     C_R   0.559519 0.309653 0.513674 0.885975
C17   C     C_R   0.670139 0.897156 0.464256 0.193847
C18   C     C_R   0.587740 0.833951 0.441499 -0.253469
C19   C     C_R   0.513426 0.138956 0.481994 -0.273262
C20   C     C_R   0.695666 0.156931 0.565813 -0.091071
C21   C     C_R   0.406148 0.798110 0.464264 -0.153183
C22   C     C_R   0.077622 0.429452 0.325682 -0.294944
C23   C     C_R   0.473521 0.689396 0.047451 -0.286917
C24   C     C_R   0.804331 0.607538 0.626981 0.026261
C25   C     C_R   0.910046 0.628363 0.658078 -0.290831
C26   C     C_R   0.988126 0.594554 0.606888 -0.140937
C27   C     C_R   0.962318 0.534800 0.526421 -0.008279
C28   C     C_R   0.499367 0.500120 0.327523 0.863926
C29   C     C_R   0.852896 0.516228 0.495980 0.168906
C30   C     C_R   0.040506 0.494337 0.473788 -0.051245
C31   C     C_R   0.004168 0.465032 0.381255 0.114348
C32   C     C_R   0.895122 0.459213 0.348277 -0.319170
C33   C     C_R   0.826056 0.462537 0.410716 0.204994
C34   C     C_R   0.476579 0.689990 0.954319 0.189988
C35   C     C_R   0.152560 0.476454 0.509778 0.288318
C36   C     C_R   0.186978 0.421047 0.362607 -0.037683
C37   C     C_R   0.506707 0.411415 0.184081 -0.321533
C38   C     C_R   0.496289 0.503451 0.231402 -0.114894
C39   C     C_R   0.478048 0.596970 0.186608 0.165238
C40   C     C_R   0.480448 0.597450 0.093032 0.061502
C41   C     C_R   0.491119 0.503900 0.044631 0.002315
C42   C     C_3   0.835008 0.782383 0.473079 -0.745026
C43   C     C_3   0.826960 0.957520 0.679238 -0.802203
C44   C     C_3   0.076675 0.916853 0.477017 -0.812349
C45   C     C_R   0.486766 0.596880 0.906010 0.102590
C46   C     C_3   0.340952 0.723511 0.225752 -0.791276
C47   C     C_3   0.224317 0.378233 0.646649 -0.742559
C48   C     C_3   0.810855 0.283498 0.406318 -0.796406
C49   C     C_3   0.361581 0.821344 0.863100 -0.809844
C50   C     C_R   0.514513 0.216983 0.898900 0.119918
C51   C     C_R   0.425627 0.186116 0.835921 -0.169033
C52   C     C_R   0.436581 0.095281 0.785648 -0.148928
C53   C     C_R   0.535853 0.034359 0.798518 -0.102289
C54   C     C_R   0.624171 0.063947 0.862027 -0.145102
C55   C     C_R   0.613656 0.154906 0.912240 -0.169274
C56   C     C_R   0.491274 0.503432 0.950831 0.008885
C57   C     C_R   0.760245 0.214843 0.641005 0.171631
C58   C     C_R   0.867557 0.232012 0.641615 -0.137100
C59   C     C_R   0.923186 0.290335 0.711851 -0.126606
C60   C     C_R   0.873094 0.330577 0.783035 -0.107392
C61   C     C_R   0.767658 0.311647 0.784622 -0.131505
C62   C     C_R   0.711711 0.253947 0.714167 -0.140456
C63   C     C_R   0.497094 0.409481 0.901781 0.079923
C64   C     C_R   0.505482 0.316528 0.947517 -0.013160
C65   C     C_R   0.509972 0.318183 0.042060 -0.260636
H1    H     H_    0.517557 0.340470 0.220659 0.142675
H2    H     H_    0.066486 0.620871 0.628740 0.145259
H3    H     H_    0.930637 0.673690 0.719980 0.149472
H4    H     H_    0.466437 0.761543 0.083910 0.184685
H5    H     H_    0.494788 0.663904 0.777711 0.163401
H6    H     H_    0.497677 0.342399 0.767069 0.142876
H7    H     H_    0.518549 0.247066 0.077918 0.151481
H8    H     H_    0.761322 0.874223 0.364216 0.219413
H9    H     H_    0.913619 0.774065 0.450314 0.231935
H10   H     H_    0.793670 0.714528 0.448779 0.229554
H11   H     H_    0.850755 0.788541 0.548987 0.275655
H12   H     H_    0.434416 0.172154 0.448408 0.178135
H13   H     H_    0.893093 0.038354 0.591071 0.220202
H14   H     H_    0.906432 0.912862 0.703948 0.232272
H15   H     H_    0.763064 0.905593 0.672374 0.243426
H16   H     H_    0.813312 0.018352 0.730676 0.242056
H17   H     H_    0.142290 0.055515 0.481566 0.214385
H18   H     H_    0.996683 0.962322 0.472848 0.254424
H19   H     H_    0.102732 0.884501 0.546828 0.239177
H20   H     H_    0.066626 0.855357 0.424112 0.244617
H21   H     H_    0.495424 0.691913 0.301492 0.216274
H22   H     H_    0.301627 0.669760 0.260308 0.252124
H23   H     H_    0.239555 0.782193 0.463858 0.173286
H24   H     H_    0.300751 0.729309 0.152252 0.248646
H25   H     H_    0.330500 0.799798 0.258569 0.248050
H26   H     H_    0.236306 0.534603 0.631826 0.241282
H27   H     H_    0.247998 0.387035 0.722376 0.229068
H28   H     H_    0.294202 0.339279 0.619561 0.260997
H29   H     H_    0.156533 0.330417 0.631027 0.216185
H30   H     H_    0.704607 0.389805 0.334592 0.229694
H31   H     H_    0.755240 0.229836 0.419017 0.243936
H32   H     H_    0.883246 0.280168 0.462009 0.242007
H33   H     H_    0.838361 0.259085 0.341450 0.218088
H34   H     H_    0.317223 0.086337 0.476852 0.127625
H35   H     H_    0.506049 0.839895 0.951489 0.231495
H36   H     H_    0.307782 0.838925 0.913591 0.242407
H37   H     H_    0.327723 0.764037 0.812246 0.244731
H38   H     H_    0.364174 0.891656 0.825851 0.242463
H39   H     H_    0.348684 0.233278 0.824732 0.129371
H40   H     H_    0.368273 0.072359 0.736385 0.131802
H41   H     H_    0.544326 0.964275 0.759295 0.135198
H42   H     H_    0.701031 0.016800 0.871804 0.130310
H43   H     H_    0.683128 0.177969 0.960070 0.128964
H44   H     H_    0.909016 0.200503 0.588630 0.097746
H45   H     H_    0.607778 0.760702 0.411518 0.175903
H46   H     H_    0.005400 0.303982 0.711317 0.129149
H47   H     H_    0.916353 0.375553 0.837399 0.125502
H48   H     H_    0.729401 0.341489 0.840530 0.140326
H49   H     H_    0.630545 0.238725 0.716561 0.124729
H50   H     H_    0.244233 0.397557 0.318870 0.158380
H51   H     H_    0.869502 0.426809 0.280261 0.156186
H52   H     H_    0.050682 0.407203 0.254555 0.148888
H53   H     H_    0.743102 0.634827 0.666050 0.143366
N1    N     N_R   0.222190 0.444670 0.452360 -0.124824
N2    N     N_R   0.776970 0.554790 0.547140 -0.127450
N3    N     N_2   0.770141 0.872646 0.434698 -0.302066
N4    N     N_2   0.826588 0.001373 0.591536 -0.285787
N5    N     N_2   0.154382 0.981187 0.459019 -0.305898
N6    N     N_2   0.455063 0.689792 0.234523 -0.324004
N7    N     N_2   0.190527 0.477122 0.606140 -0.311557
N8    N     N_2   0.755132 0.385657 0.398222 -0.224093
N9    N     N_2   0.469624 0.784503 0.909880 -0.313828
O1    O     O_R   0.366740 0.627160 0.477250 -0.621493
O2    O     O_R   0.544830 0.662520 0.507680 -0.627210
O3    O     O_R   0.410940 0.482340 0.616930 -0.625436
O4    O     O_R   0.589030 0.517700 0.647360 -0.618386
O5    O     O_R   0.455170 0.337480 0.492320 -0.632098
O6    O     O_R   0.633260 0.372840 0.522750 -0.566161
O7    O     O_R   0.410970 0.482300 0.352640 -0.620340
O8    O     O_R   0.589060 0.517660 0.383070 -0.638166
Zn1   Zn    Zn3+2 0.381090 0.476390 0.479680 0.920776
Zn2   Zn    Zn3+2 0.618910 0.523610 0.520320 0.951054

loop_
_geom_bond_atom_site_label_1
_geom_bond_atom_site_label_2
_ccdc_geom_bond_type
C22   H52   S    
C1    C21   S    
C27   C29   A    
C58   H44   S    
C50   C64   S    
C47   H27   S    
C23   H4    S    
C35   N1    A    
C1    O1    A    
C44   H18   S    
C42   H11   S    
C57   C62   A    
C46   H24   S    
C53   C54   A    
O6    Zn2   S    
C48   H32   S    
C26   C27   A    
C37   C38   A    
C54   H42   S    
C28   O7    A    
C26   H2    S    
C62   H49   S    
C1    O2    A    
O1    Zn1   S    
C49   H36   S    
C30   C31   A    
C11   C14   A    
C43   H14   S    
C23   C40   A    
H35   N9    S    
C29   C33   A    
C5    C63   A    
C19   H12   S    
C12   C37   A    
C35   N7    S    
C36   N1    A    
C6    C15   A    
C53   H41   S    
C45   C56   A    
C34   N9    S    
C17   C18   A    
C59   H46   S    
C47   N7    S    
C51   H39   S    
C48   H31   S    
C9    C10   A    
C59   C60   A    
C27   C30   A    
C46   N6    S    
C10   H34   S    
C25   H3    S    
H13   N4    S    
C16   O6    A    
C50   C51   A    
C4    O4    A    
C2    C45   A    
C47   H28   S    
C49   N9    S    
C29   N2    A    
C24   N2    A    
C42   H9    S    
C22   C31   A    
C51   C52   A    
C24   C25   A    
C49   H37   S    
C8    C9    A    
C4    O3    A    
C3    C5    A    
C25   C26   A    
C39   N6    S    
C60   C61   A    
C8    H23   S    
C41   C56   A    
C12   C41   A    
C60   H47   S    
C31   C32   A    
C28   C38   S    
O5    Zn1   S    
C23   C34   A    
C37   H1    S    
C8    C21   A    
C42   H10   S    
C56   C63   A    
C13   C21   A    
C34   C45   A    
C32   H51   S    
C43   N4    S    
C13   C18   A    
C17   N3    S    
C7    C16   S    
C52   H40   S    
H8    N3    S    
C61   H48   S    
C43   H16   S    
C58   C59   A    
C6    N4    S    
C44   H20   S    
H17   N5    S    
C39   C40   A    
C22   C36   A    
C52   C53   A    
C46   H22   S    
O8    Zn2   S    
C54   C55   A    
C40   C41   A    
H26   N7    S    
C24   H53   S    
C14   C19   A    
O3    Zn1   S    
C18   H45   S    
C28   O8    A    
C44   H19   S    
C49   H38   S    
O7    Zn1   S    
C15   C17   A    
C46   H25   S    
C65   H7    S    
C30   C35   A    
C12   C65   A    
C44   N5    S    
C7    C19   A    
C50   C55   A    
C55   H43   S    
C64   C65   A    
C2    C3    A    
C43   H15   S    
C5    H6    S    
C32   C33   A    
N1    Zn1   S    
H21   N6    S    
C11   C13   A    
H30   N8    S    
C57   C58   A    
C38   C39   A    
C6    C20   A    
C33   N8    S    
C9    N5    S    
C47   H29   S    
C48   H33   S    
C61   C62   A    
C16   O5    A    
C10   C11   A    
C48   N8    S    
C63   C64   A    
O2    Zn2   S    
C7    C20   A    
C14   C15   A    
N2    Zn2   S    
C20   C57   S    
C2    H5    S    
C36   H50   S    
C3    C4    S    
C42   N3    S    
O4    Zn2   S    
