data_mof_unit_66002.cif
_audit_creation_date              2013-03-05T16:08:51-0500
_audit_creation_method            fapswitch 2.2
_symmetry_space_group_name_H-M    P1
_symmetry_Int_Tables_number       1
_space_group_crystal_system       triclinic
_cell_length_a                    18.316812
_cell_length_b                    18.381469
_cell_length_c                    59.821588
_cell_angle_alpha                 90.02832
_cell_angle_beta                  90.145227
_cell_angle_gamma                 90.00455
_cell_volume                      20141.2579705

loop_
_atom_site_label
_atom_site_type_symbol
_atom_site_description
_atom_site_fract_x
_atom_site_fract_y
_atom_site_fract_z
_atom_type_partial_charge
Zn1   Zn    Zn3+2 0.587490 0.999960 0.768710 1.117577
Zn2   Zn    Zn3+2 0.999960 0.412510 0.231290 1.107681
Zn3   Zn    Zn3+2 0.412510 0.000040 0.768710 1.116639
Zn4   Zn    Zn3+2 0.000040 0.587490 0.231290 1.099150
Zn5   Zn    Zn3+2 0.412510 0.999960 0.231290 1.118127
Zn6   Zn    Zn3+2 0.000040 0.412510 0.768710 1.114200
Zn7   Zn    Zn3+2 0.587490 0.000040 0.231290 1.110385
Zn8   Zn    Zn3+2 0.999960 0.587490 0.768710 1.108258
Zn9   Zn    Zn3+2 0.087490 0.499960 0.268710 1.125830
Zn10  Zn    Zn3+2 0.499960 0.912510 0.731290 1.102339
Zn11  Zn    Zn3+2 0.912510 0.500040 0.268710 1.104685
Zn12  Zn    Zn3+2 0.500040 0.087490 0.731290 1.099817
Zn13  Zn    Zn3+2 0.912510 0.499960 0.731290 1.112529
Zn14  Zn    Zn3+2 0.500040 0.912510 0.268710 1.097627
Zn15  Zn    Zn3+2 0.087490 0.500040 0.731290 1.100011
Zn16  Zn    Zn3+2 0.499960 0.087490 0.268710 1.115667
O1    O     O_3   0.500000 0.000000 0.750000 -0.555682
O2    O     O_3   0.000000 0.500000 0.250000 -0.548775
O3    O     O_3   0.500000 0.000000 0.250000 -0.550658
O4    O     O_3   0.000000 0.500000 0.750000 -0.556343
O5    O     O_R   0.499920 0.938710 0.700060 -0.617713
O6    O     O_R   0.938710 0.500080 0.299940 -0.618288
O7    O     O_R   0.500080 0.061290 0.700060 -0.612387
O8    O     O_R   0.061290 0.499920 0.299940 -0.626034
O9    O     O_R   0.500080 0.938710 0.299940 -0.623860
O10   O     O_R   0.061290 0.500080 0.700060 -0.606286
O11   O     O_R   0.499920 0.061290 0.299940 -0.617523
O12   O     O_R   0.938710 0.499920 0.700060 -0.618351
O13   O     O_R   0.999920 0.438710 0.200060 -0.617090
O14   O     O_R   0.438710 0.000080 0.799940 -0.621032
O15   O     O_R   0.000080 0.561290 0.200060 -0.623420
O16   O     O_R   0.561290 0.999920 0.799940 -0.624799
O17   O     O_R   0.000080 0.438710 0.799940 -0.624134
O18   O     O_R   0.561290 0.000080 0.200060 -0.622425
O19   O     O_R   0.999920 0.561290 0.799940 -0.616235
O20   O     O_R   0.438710 0.999920 0.200060 -0.617713
O21   O     O_R   0.586160 0.147460 0.736910 -0.633969
O22   O     O_R   0.147460 0.413840 0.263090 -0.592239
O23   O     O_R   0.413840 0.852540 0.736910 -0.613615
O24   O     O_R   0.852540 0.586160 0.263090 -0.610839
O25   O     O_R   0.413840 0.147460 0.263090 -0.625380
O26   O     O_R   0.852540 0.413840 0.736910 -0.612197
O27   O     O_R   0.586160 0.852540 0.263090 -0.635284
O28   O     O_R   0.147460 0.586160 0.736910 -0.633558
O29   O     O_R   0.086160 0.647460 0.236910 -0.635335
O30   O     O_R   0.647460 0.913840 0.763090 -0.591343
O31   O     O_R   0.913840 0.352540 0.236910 -0.609488
O32   O     O_R   0.352540 0.086160 0.763090 -0.578338
O33   O     O_R   0.913840 0.647460 0.763090 -0.623996
O34   O     O_R   0.352540 0.913840 0.236910 -0.609018
O35   O     O_R   0.086160 0.352540 0.763090 -0.573948
O36   O     O_R   0.647460 0.086160 0.236910 -0.631252
O37   O     O_R   0.352450 0.913760 0.763090 -0.603936
O38   O     O_R   0.913760 0.647550 0.236910 -0.634383
O39   O     O_R   0.647550 0.086240 0.763090 -0.598972
O40   O     O_R   0.086240 0.352450 0.236910 -0.633573
O41   O     O_R   0.647550 0.913760 0.236910 -0.606471
O42   O     O_R   0.086240 0.647550 0.763090 -0.602680
O43   O     O_R   0.352450 0.086240 0.236910 -0.604412
O44   O     O_R   0.913760 0.352450 0.763090 -0.611120
O45   O     O_R   0.852450 0.413760 0.263090 -0.630100
O46   O     O_R   0.413760 0.147550 0.736910 -0.603548
O47   O     O_R   0.147550 0.586240 0.263090 -0.599789
O48   O     O_R   0.586240 0.852450 0.736910 -0.631776
O49   O     O_R   0.147550 0.413760 0.736910 -0.617055
O50   O     O_R   0.586240 0.147550 0.263090 -0.604787
O51   O     O_R   0.852450 0.586240 0.736910 -0.602928
O52   O     O_R   0.413760 0.852450 0.263090 -0.635447
C1    C     C_R   0.499964 0.999990 0.689452 0.862445
C2    C     C_R   0.000084 0.500007 0.310572 0.864484
C3    C     C_R   0.500004 0.000019 0.310550 0.864574
C4    C     C_R   0.999926 0.499946 0.689431 0.867104
C5    C     C_R   0.000018 0.499982 0.189452 0.871216
C6    C     C_R   0.500086 0.999941 0.810561 0.844602
C7    C     C_R   0.999955 0.500021 0.810547 0.848683
C8    C     C_R   0.499915 0.000022 0.189437 0.876077
C9    C     C_R   0.640746 0.141536 0.750043 0.966369
C10   C     C_R   0.140549 0.358123 0.250584 0.938924
C11   C     C_R   0.357296 0.860426 0.748976 0.969679
C12   C     C_R   0.860284 0.642514 0.250906 0.973724
C13   C     C_R   0.358994 0.141121 0.250088 0.962658
C14   C     C_R   0.859680 0.358041 0.749313 0.976012
C15   C     C_R   0.641039 0.858901 0.250114 0.974331
C16   C     C_R   0.141310 0.640820 0.749961 0.961589
C17   C     C_R   0.140887 0.641464 0.250015 0.972749
C18   C     C_R   0.640556 0.858130 0.750583 0.940235
C19   C     C_R   0.857330 0.360384 0.248983 0.965517
C20   C     C_R   0.356578 0.138810 0.749061 0.860694
C21   C     C_R   0.858999 0.641127 0.750084 0.963811
C22   C     C_R   0.359765 0.858027 0.249304 0.976985
C23   C     C_R   0.141200 0.358901 0.750239 0.848983
C24   C     C_R   0.641348 0.140782 0.249947 0.973289
C25   C     C_3   0.679486 0.739750 0.734426 -0.388824
C26   C     C_3   0.749043 0.309769 0.268426 -0.393379
C27   C     C_3   0.329209 0.267944 0.755907 -0.340556
C28   C     C_3   0.250662 0.692628 0.269732 -0.369194
C29   C     C_3   0.302646 0.757297 0.270640 -0.398105
C30   C     C_3   0.269383 0.325415 0.759483 -0.356853
C31   C     C_3   0.684694 0.257437 0.267084 -0.370205
C32   C     C_3   0.736279 0.678705 0.735213 -0.347033
C33   C     C_3   0.179541 0.239803 0.234392 -0.390387
C34   C     C_3   0.248454 0.810447 0.768319 -0.378463
C35   C     C_3   0.806348 0.747377 0.230446 -0.395686
C36   C     C_3   0.750138 0.192931 0.769787 -0.367827
C37   C     C_3   0.802359 0.257414 0.770661 -0.387876
C38   C     C_3   0.754398 0.812069 0.231652 -0.372612
C39   C     C_3   0.184052 0.758111 0.766975 -0.369084
C40   C     C_3   0.236348 0.178767 0.235178 -0.347891
H1    H     H_    0.673019 0.759573 0.717145 0.253935
H2    H     H_    0.777338 0.299840 0.284468 0.258288
H3    H     H_    0.369147 0.289662 0.743931 0.272433
H4    H     H_    0.221625 0.688586 0.285878 0.243727
H5    H     H_    0.287626 0.790653 0.285287 0.255621
H6    H     H_    0.285698 0.378610 0.752381 0.237424
H7    H     H_    0.674640 0.234691 0.283925 0.249325
H8    H     H_    0.753237 0.666407 0.717874 0.256452
H9    H     H_    0.173142 0.259706 0.217117 0.252543
H10   H     H_    0.276408 0.800903 0.784440 0.261342
H11   H     H_    0.793198 0.716491 0.215107 0.257564
H12   H     H_    0.720799 0.189375 0.785900 0.249571
H13   H     H_    0.787592 0.290808 0.785324 0.257471
H14   H     H_    0.728279 0.819449 0.215108 0.246787
H15   H     H_    0.173567 0.735842 0.783851 0.255465
H16   H     H_    0.253401 0.166565 0.217841 0.255227
H17   H     H_    0.624240 0.717134 0.737358 0.240481
H18   H     H_    0.728300 0.366214 0.270167 0.244718
H19   H     H_    0.363624 0.262248 0.771069 0.224198
H20   H     H_    0.282889 0.641942 0.269499 0.267191
H21   H     H_    0.358306 0.737611 0.274830 0.245380
H22   H     H_    0.266724 0.338475 0.777410 0.262730
H23   H     H_    0.634109 0.288379 0.263679 0.262537
H24   H     H_    0.709467 0.628017 0.740916 0.259670
H25   H     H_    0.124287 0.217165 0.237293 0.240662
H26   H     H_    0.227726 0.866958 0.769878 0.262983
H27   H     H_    0.862593 0.767537 0.227416 0.243494
H28   H     H_    0.782131 0.142082 0.769651 0.268656
H29   H     H_    0.857989 0.237571 0.774812 0.261244
H30   H     H_    0.786269 0.862741 0.233610 0.263463
H31   H     H_    0.133589 0.789015 0.763374 0.264384
H32   H     H_    0.209519 0.128044 0.240845 0.259937
C41   C     C_3   0.774933 0.836030 0.742476 0.019944
C42   C     C_3   0.840126 0.223035 0.250076 0.015025
C43   C     C_3   0.262838 0.205675 0.723314 0.030482
C44   C     C_3   0.160142 0.779610 0.250755 0.028137
C45   C     C_3   0.222186 0.840296 0.246769 0.012937
C46   C     C_3   0.208866 0.274708 0.724028 0.065958
C47   C     C_3   0.778299 0.162154 0.254095 0.021875
C48   C     C_3   0.837194 0.773827 0.741300 0.012762
C49   C     C_3   0.274947 0.336037 0.242506 0.023219
C50   C     C_3   0.339912 0.723202 0.750347 0.018872
C51   C     C_3   0.722733 0.660755 0.251885 0.010912
C52   C     C_3   0.659709 0.279768 0.750757 0.045484
C53   C     C_3   0.721870 0.340481 0.746844 0.018462
C54   C     C_3   0.661232 0.721823 0.247831 0.025319
C55   C     C_3   0.277989 0.662560 0.754542 0.044559
C56   C     C_3   0.337238 0.273859 0.241355 0.015379
C57   C     C_3   0.701928 0.762061 0.775777 0.274776
C58   C     C_3   0.750886 0.307288 0.225230 0.257246
C59   C     C_3   0.232716 0.171057 0.766556 0.282011
C60   C     C_3   0.246955 0.688507 0.226974 0.252576
C61   C     C_3   0.315206 0.744939 0.227832 0.270274
C62   C     C_3   0.168229 0.230478 0.765358 0.270614
C63   C     C_3   0.694267 0.239054 0.224981 0.259980
C64   C     C_3   0.771054 0.707147 0.776105 0.255215
C65   C     C_3   0.201805 0.261945 0.275759 0.271222
C66   C     C_3   0.251161 0.806979 0.725156 0.266649
C67   C     C_3   0.812893 0.753232 0.273453 0.268050
C68   C     C_3   0.746336 0.188726 0.726969 0.250341
C69   C     C_3   0.814587 0.245003 0.727845 0.264378
C70   C     C_3   0.744328 0.809626 0.274140 0.254825
C71   C     C_3   0.194498 0.738769 0.724981 0.256452
C72   C     C_3   0.270935 0.207035 0.276100 0.253102
C73   C     C_3   0.699687 0.801539 0.751443 -0.246466
C74   C     C_3   0.801076 0.300795 0.247748 -0.230592
C75   C     C_3   0.295498 0.193422 0.748299 -0.237631
C76   C     C_3   0.198307 0.699702 0.249158 -0.227732
C77   C     C_3   0.300644 0.801702 0.248187 -0.233287
C78   C     C_3   0.195355 0.297756 0.749734 -0.249234
C79   C     C_3   0.699088 0.198357 0.248852 -0.230726
C80   C     C_3   0.802152 0.699563 0.750776 -0.237569
C81   C     C_3   0.199670 0.301521 0.251440 -0.244623
C82   C     C_3   0.300964 0.800914 0.747764 -0.245963
C83   C     C_3   0.801266 0.699291 0.252117 -0.231838
C84   C     C_3   0.697921 0.199894 0.749182 -0.224774
C85   C     C_3   0.800333 0.301814 0.748217 -0.241703
C86   C     C_3   0.698811 0.801303 0.251143 -0.228075
C87   C     C_3   0.198937 0.698525 0.748929 -0.225445
C88   C     C_3   0.302147 0.199554 0.250781 -0.236103
C89   C     C_R   0.465468 0.944617 0.917109 0.566225
C90   C     C_R   0.943401 0.468006 0.082742 0.561673
C91   C     C_R   0.536039 0.053546 0.917187 0.564142
C92   C     C_R   0.056748 0.531723 0.082828 0.563017
C93   C     C_R   0.475575 0.939709 0.082896 0.558360
C94   C     C_R   0.059033 0.526779 0.917139 0.563760
C95   C     C_R   0.523135 0.060422 0.082914 0.559686
C96   C     C_R   0.940186 0.473793 0.917059 0.565188
C97   C     C_R   0.030028 0.442240 0.417234 0.561648
C98   C     C_R   0.438952 0.023609 0.582853 0.564524
C99   C     C_R   0.971326 0.557980 0.417214 0.561322
C100  C     C_R   0.560267 0.976525 0.582956 0.564161
C101  C     C_R   0.023175 0.438960 0.582898 0.564251
C102  C     C_R   0.558002 0.970946 0.417268 0.562089
C103  C     C_R   0.976097 0.559918 0.582900 0.564436
C104  C     C_R   0.441889 0.029507 0.417169 0.561279
O53   O     O_2   0.437124 0.888769 0.905306 -0.449793
O54   O     O_2   0.885794 0.443072 0.094464 -0.447368
O55   O     O_2   0.564496 0.109350 0.905451 -0.455376
O56   O     O_2   0.114411 0.556604 0.094631 -0.445401
O57   O     O_2   0.457909 0.879904 0.094759 -0.448123
O58   O     O_2   0.114257 0.556103 0.905306 -0.453646
O59   O     O_2   0.540663 0.120353 0.094781 -0.445054
O60   O     O_2   0.884908 0.444491 0.905149 -0.452643
O61   O     O_2   0.052511 0.383823 0.405464 -0.447254
O62   O     O_2   0.382346 0.050251 0.594679 -0.450179
O63   O     O_2   0.948942 0.616455 0.405437 -0.447882
O64   O     O_2   0.616828 0.949847 0.594874 -0.450458
O65   O     O_2   0.049778 0.382488 0.594775 -0.451145
O66   O     O_2   0.616665 0.948562 0.405547 -0.446792
O67   O     O_2   0.949376 0.616300 0.594768 -0.450023
O68   O     O_2   0.383266 0.051895 0.405345 -0.448074
N1    N     N_R   0.500761 0.999084 0.906020 -0.365429
N2    N     N_R   0.000096 0.499850 0.093923 -0.366139
N3    N     N_R   0.499329 0.000113 0.094001 -0.365891
N4    N     N_R   0.999590 0.500283 0.906006 -0.366731
N5    N     N_R   0.000682 0.500120 0.406092 -0.366103
N6    N     N_R   0.499586 0.000045 0.593995 -0.366823
N7    N     N_R   0.999598 0.499404 0.593989 -0.366673
N8    N     N_R   0.499960 0.000217 0.406085 -0.365942
C105  C     C_R   0.566261 0.991704 0.870288 -0.058230
C106  C     C_R   0.997007 0.565749 0.129681 -0.061461
C107  C     C_R   0.434794 0.006907 0.870288 -0.061565
C108  C     C_R   0.003205 0.434033 0.129684 -0.058992
C109  C     C_R   0.565641 0.002641 0.129718 -0.063046
C110  C     C_R   0.993361 0.565818 0.870301 -0.062075
C111  C     C_R   0.433385 0.997661 0.129689 -0.061396
C112  C     C_R   0.005882 0.434543 0.870330 -0.063510
C113  C     C_R   0.934329 0.499158 0.370328 -0.062300
C114  C     C_R   0.503830 0.065824 0.629693 -0.059810
C115  C     C_R   0.066647 0.500990 0.370355 -0.059709
C116  C     C_R   0.495362 0.934226 0.629662 -0.062337
C117  C     C_R   0.065748 0.503407 0.629698 -0.061195
C118  C     C_R   0.500875 0.066070 0.370327 -0.060899
C119  C     C_R   0.933647 0.495506 0.629639 -0.063105
C120  C     C_R   0.499112 0.934222 0.370332 -0.062227
C121  C     C_R   0.566185 0.992078 0.846995 -0.137196
C122  C     C_R   0.997117 0.565861 0.152979 -0.136299
C123  C     C_R   0.434541 0.007025 0.846998 -0.142093
C124  C     C_R   0.003046 0.433987 0.152982 -0.130909
C125  C     C_R   0.565865 0.002620 0.153008 -0.131973
C126  C     C_R   0.993569 0.565847 0.847002 -0.128138
C127  C     C_R   0.433451 0.997622 0.152982 -0.129241
C128  C     C_R   0.005892 0.434382 0.847031 -0.142657
C129  C     C_R   0.934107 0.499219 0.347031 -0.134278
C130  C     C_R   0.503891 0.065897 0.652994 -0.118165
C131  C     C_R   0.066575 0.500878 0.347055 -0.139346
C132  C     C_R   0.495535 0.934117 0.652963 -0.130813
C133  C     C_R   0.065913 0.503509 0.652996 -0.114788
C134  C     C_R   0.500803 0.066095 0.347027 -0.131015
C135  C     C_R   0.933630 0.495732 0.652940 -0.129807
C136  C     C_R   0.499217 0.934096 0.347032 -0.136446
C137  C     C_R   0.500609 0.999198 0.882024 0.255335
C138  C     C_R   0.000112 0.499875 0.117933 0.256101
C139  C     C_R   0.499443 0.000155 0.117984 0.259630
C140  C     C_R   0.999586 0.500214 0.882029 0.262288
C141  C     C_R   0.000559 0.500090 0.382086 0.256807
C142  C     C_R   0.499560 0.000033 0.617968 0.261474
C143  C     C_R   0.999661 0.499398 0.617960 0.261413
C144  C     C_R   0.499982 0.000171 0.382076 0.256071
C145  C     C_R   0.500551 0.999187 0.952552 -0.112887
C146  C     C_R   0.999984 0.499953 0.047385 -0.112161
C147  C     C_R   0.499602 0.999851 0.047471 -0.109215
C148  C     C_R   0.999696 0.500238 0.952523 -0.112524
C149  C     C_R   0.000525 0.500012 0.452624 -0.111723
C150  C     C_R   0.499686 0.000127 0.547482 -0.111705
C151  C     C_R   0.999842 0.499585 0.547479 -0.111749
C152  C     C_R   0.499885 0.000223 0.452621 -0.111670
C153  C     C_R   0.460440 0.945817 0.940622 -0.127137
C154  C     C_R   0.944189 0.463096 0.059217 -0.127234
C155  C     C_R   0.540854 0.052442 0.940711 -0.125623
C156  C     C_R   0.055847 0.536740 0.059305 -0.127977
C157  C     C_R   0.471162 0.939429 0.059348 -0.129568
C158  C     C_R   0.062240 0.524123 0.940690 -0.128027
C159  C     C_R   0.527824 0.060443 0.059379 -0.130491
C160  C     C_R   0.937087 0.476404 0.940608 -0.128511
C161  C     C_R   0.034872 0.442741 0.440766 -0.127904
C162  C     C_R   0.435960 0.020801 0.559300 -0.129305
C163  C     C_R   0.966314 0.557369 0.440734 -0.127975
C164  C     C_R   0.563361 0.979418 0.559411 -0.129454
C165  C     C_R   0.020445 0.436027 0.559344 -0.129131
C166  C     C_R   0.557402 0.966037 0.440794 -0.128302
C167  C     C_R   0.979077 0.563036 0.559358 -0.129641
C168  C     C_R   0.442414 0.034420 0.440698 -0.127755
C169  C     C_R   0.417760 0.894976 0.952572 0.335623
C170  C     C_R   0.890600 0.423804 0.047152 0.332527
C171  C     C_R   0.583417 0.103342 0.952758 0.336101
C172  C     C_R   0.109371 0.576096 0.047328 0.332602
C173  C     C_R   0.441709 0.879996 0.047302 0.328687
C174  C     C_R   0.125274 0.545246 0.952787 0.332184
C175  C     C_R   0.557427 0.119740 0.047367 0.328660
C176  C     C_R   0.874111 0.455253 0.952624 0.332042
C177  C     C_R   0.071619 0.387489 0.452814 0.330571
C178  C     C_R   0.371981 0.038729 0.547185 0.330118
C179  C     C_R   0.929462 0.612555 0.452739 0.330761
C180  C     C_R   0.627399 0.961549 0.547412 0.329389
C181  C     C_R   0.038412 0.372275 0.547277 0.330200
C182  C     C_R   0.612770 0.929331 0.452867 0.330799
C183  C     C_R   0.961266 0.626893 0.547313 0.329337
C184  C     C_R   0.387005 0.071124 0.452679 0.330477
C185  C     C_R   0.500280 0.999704 0.835146 -0.037047
C186  C     C_R   0.000060 0.499942 0.164846 -0.030551
C187  C     C_R   0.499735 0.000087 0.164850 -0.032519
C188  C     C_R   0.999812 0.500082 0.835151 -0.036631
C189  C     C_R   0.000264 0.500034 0.335178 -0.031983
C190  C     C_R   0.499809 0.999994 0.664845 -0.039061
C191  C     C_R   0.999807 0.499745 0.664831 -0.040164
C192  C     C_R   0.500011 0.000070 0.335162 -0.032853
H33   H     H_    0.382984 0.013181 0.838300 0.205405
H34   H     H_    0.005445 0.382373 0.161674 0.195045
H35   H     H_    0.617611 0.986075 0.838293 0.202983
H36   H     H_    0.994699 0.617500 0.161667 0.192370
H37   H     H_    0.381685 0.995615 0.161666 0.194916
H38   H     H_    0.010936 0.382920 0.838350 0.202076
H39   H     H_    0.617745 0.004608 0.161710 0.198247
H40   H     H_    0.988602 0.617261 0.838298 0.205538
H41   H     H_    0.118377 0.501556 0.338371 0.197540
H42   H     H_    0.492158 0.882541 0.661642 0.199012
H43   H     H_    0.882191 0.498524 0.338330 0.193125
H44   H     H_    0.507329 0.117467 0.661696 0.208206
H45   H     H_    0.881901 0.492609 0.661614 0.196143
H46   H     H_    0.498566 0.882396 0.338345 0.194707
H47   H     H_    0.117712 0.506723 0.661711 0.214168
H48   H     H_    0.501465 0.117759 0.338337 0.200656
H49   H     H_    0.383871 0.013030 0.879252 0.175909
H50   H     H_    0.005902 0.382897 0.120727 0.173402
H51   H     H_    0.617309 0.985416 0.879251 0.176110
H52   H     H_    0.994319 0.616860 0.120722 0.172345
H53   H     H_    0.382022 0.995922 0.120701 0.170744
H54   H     H_    0.010905 0.383681 0.879330 0.170477
H55   H     H_    0.616896 0.004387 0.120752 0.170977
H56   H     H_    0.988277 0.616731 0.879277 0.171171
H57   H     H_    0.118061 0.501966 0.379327 0.173524
H58   H     H_    0.491874 0.883219 0.620658 0.168146
H59   H     H_    0.883025 0.498201 0.379280 0.172332
H60   H     H_    0.507248 0.116844 0.620715 0.171106
H61   H     H_    0.882410 0.492224 0.620625 0.167490
H62   H     H_    0.498164 0.883061 0.379295 0.172707
H63   H     H_    0.116928 0.506591 0.620731 0.172110
H64   H     H_    0.501811 0.117268 0.379287 0.174109
C193  C     C_R   0.025071 0.437876 0.511880 0.025261
C194  C     C_R   0.440279 0.030670 0.488157 0.025939
C195  C     C_R   0.975151 0.561628 0.511880 0.025323
C196  C     C_R   0.559350 0.969735 0.488259 0.025957
C197  C     C_R   0.030818 0.440514 0.488219 0.026005
C198  C     C_R   0.561834 0.975245 0.511935 0.025289
C199  C     C_R   0.969764 0.559215 0.488199 0.025895
C200  C     C_R   0.437695 0.025114 0.511827 0.025298
C201  C     C_R   0.468065 0.940905 0.011819 0.026544
C202  C     C_R   0.939044 0.472170 0.988083 0.025670
C203  C     C_R   0.531854 0.058264 0.011866 0.026619
C204  C     C_R   0.060555 0.528120 0.988167 0.025729
C205  C     C_R   0.463298 0.943733 0.988109 0.027423
C206  C     C_R   0.057856 0.533391 0.011843 0.026463
C207  C     C_R   0.537147 0.055071 0.988181 0.027146
C208  C     C_R   0.941892 0.466744 0.011756 0.026353
C209  C     C_R   0.000019 0.499695 0.523708 0.090515
C210  C     C_R   0.499838 0.000210 0.476385 0.089952
C211  C     C_R   0.000374 0.499916 0.476387 0.089923
C212  C     C_R   0.499738 0.000162 0.523710 0.090519
C213  C     C_R   0.499836 0.999675 0.023677 0.088926
C214  C     C_R   0.999764 0.500178 0.976296 0.090240
C215  C     C_R   0.500338 0.999324 0.976327 0.089172
C216  C     C_R   0.999911 0.500028 0.023621 0.089776
C217  C     C_R   0.041694 0.374359 0.524023 -0.245055
C218  C     C_R   0.385968 0.067739 0.475946 -0.245655
C219  C     C_R   0.958334 0.625027 0.524049 -0.245008
C220  C     C_R   0.613714 0.932688 0.476137 -0.245768
C221  C     C_R   0.068075 0.386404 0.476077 -0.245760
C222  C     C_R   0.625470 0.958502 0.524150 -0.244950
C223  C     C_R   0.932704 0.613448 0.476012 -0.245875
C224  C     C_R   0.374012 0.041844 0.523928 -0.244937
C225  C     C_R   0.441983 0.880824 0.024041 -0.243321
C226  C     C_R   0.876286 0.452276 0.975882 -0.244575
C227  C     C_R   0.557619 0.118561 0.024108 -0.243052
C228  C     C_R   0.123233 0.548101 0.976045 -0.244923
C229  C     C_R   0.420607 0.893854 0.975837 -0.244075
C230  C     C_R   0.110396 0.572946 0.024058 -0.245723
C231  C     C_R   0.580150 0.104736 0.976011 -0.244676
C232  C     C_R   0.889432 0.427104 0.023884 -0.245957
H65   H     H_    0.053168 0.323539 0.515709 0.193268
H66   H     H_    0.344015 0.098863 0.484214 0.191901
H67   H     H_    0.946981 0.675927 0.515764 0.193278
H68   H     H_    0.655636 0.901555 0.484471 0.191768
H69   H     H_    0.099235 0.344568 0.484402 0.191854
H70   H     H_    0.676519 0.947095 0.515898 0.193332
H71   H     H_    0.901448 0.655231 0.484292 0.191794
H72   H     H_    0.323003 0.053293 0.515583 0.193222
H73   H     H_    0.421470 0.832604 0.015919 0.192194
H74   H     H_    0.825912 0.438274 0.984141 0.192630
H75   H     H_    0.578235 0.166680 0.015999 0.192157
H76   H     H_    0.173654 0.562075 0.984364 0.192583
H77   H     H_    0.384735 0.855704 0.983962 0.188520
H78   H     H_    0.150740 0.606119 0.015801 0.191261
H79   H     H_    0.615923 0.142924 0.984229 0.188726
H80   H     H_    0.849041 0.393981 0.015556 0.191368
N9    N     N_R   0.760843 0.870669 0.720186 0.242432
O69   O     O_R   0.758069 0.833344 0.701692 -0.290220
O70   O     O_R   0.737323 0.937424 0.719168 -0.311574
N10   N     N_R   0.895773 0.221425 0.268337 0.248547
O71   O     O_R   0.898826 0.270377 0.284026 -0.357370
O72   O     O_R   0.947989 0.173205 0.267775 -0.235705
N11   N     N_R   0.318187 0.217501 0.705370 0.249301
O73   O     O_R   0.383662 0.241942 0.709118 -0.302757
O74   O     O_R   0.297141 0.214539 0.684545 -0.306063
N12   N     N_R   0.123398 0.789344 0.272849 0.244570
O75   O     O_R   0.104385 0.733385 0.284819 -0.375105
O76   O     O_R   0.088553 0.849545 0.277042 -0.194252
N13   N     N_R   0.214480 0.901388 0.263031 0.256301
O77   O     O_R   0.258592 0.910399 0.279888 -0.349081
O78   O     O_R   0.166412 0.952378 0.259312 -0.251294
N14   N     N_R   0.240313 0.337190 0.711013 0.275647
O79   O     O_R   0.305621 0.362166 0.714784 -0.314622
O80   O     O_R   0.204214 0.366799 0.694525 -0.319406
N15   N     N_R   0.781376 0.132907 0.277402 0.244477
O81   O     O_R   0.722043 0.119486 0.288583 -0.382151
O82   O     O_R   0.839747 0.098926 0.284183 -0.199665
N16   N     N_R   0.866450 0.766096 0.718225 0.263240
O83   O     O_R   0.870653 0.703675 0.708055 -0.364497
O84   O     O_R   0.901465 0.820622 0.709309 -0.215607
N17   N     N_R   0.260933 0.370672 0.220210 0.242307
O85   O     O_R   0.258425 0.333371 0.201708 -0.298126
O86   O     O_R   0.237092 0.437312 0.219192 -0.313516
N18   N     N_R   0.395497 0.722207 0.768628 0.250397
O87   O     O_R   0.397886 0.771136 0.784334 -0.350781
O88   O     O_R   0.447846 0.674109 0.768214 -0.241224
N19   N     N_R   0.717092 0.602244 0.234717 0.250193
O89   O     O_R   0.762967 0.595866 0.218262 -0.355052
O90   O     O_R   0.667882 0.551505 0.236955 -0.232543
N20   N     N_R   0.622606 0.289371 0.772802 0.232307
O91   O     O_R   0.602672 0.233267 0.784569 -0.414027
O92   O     O_R   0.587941 0.349667 0.777000 -0.250003
N21   N     N_R   0.714222 0.401419 0.763162 0.259462
O93   O     O_R   0.758681 0.410542 0.779927 -0.345703
O94   O     O_R   0.666143 0.452438 0.759497 -0.255937
N22   N     N_R   0.627703 0.715300 0.225082 0.246107
O95   O     O_R   0.611832 0.772767 0.213339 -0.377749
O96   O     O_R   0.592628 0.656219 0.219668 -0.194732
N23   N     N_R   0.280340 0.634785 0.778030 0.231369
O97   O     O_R   0.220572 0.620559 0.788900 -0.404051
O98   O     O_R   0.338859 0.602106 0.785279 -0.244766
N24   N     N_R   0.366688 0.266214 0.218300 0.262766
O99   O     O_R   0.370906 0.203844 0.208101 -0.369530
O100  O     O_R   0.401774 0.320773 0.209429 -0.216688
N25   N     N_R   0.706202 0.809887 0.795869 0.241492
O101  O     O_R   0.720486 0.878949 0.795358 -0.342944
O102  O     O_R   0.696699 0.780560 0.815465 -0.233340
N26   N     N_R   0.790200 0.308212 0.203387 0.229630
O103  O     O_R   0.855042 0.335566 0.201218 -0.351307
O104  O     O_R   0.750917 0.306610 0.185200 -0.205070
N27   N     N_R   0.200417 0.096980 0.763420 0.244010
O105  O     O_R   0.229781 0.047067 0.750960 -0.336269
O106  O     O_R   0.149006 0.075969 0.776992 -0.213876
N28   N     N_R   0.198425 0.697401 0.207060 0.205681
O107  O     O_R   0.187162 0.759367 0.197226 -0.373134
O108  O     O_R   0.166568 0.640459 0.198457 -0.298247
N29   N     N_R   0.324506 0.777679 0.205217 0.228403
O109  O     O_R   0.353122 0.841602 0.202422 -0.361839
O110  O     O_R   0.329320 0.733630 0.188213 -0.199087
N30   N     N_R   0.098384 0.200435 0.756093 0.205953
O111  O     O_R   0.096269 0.150603 0.740678 -0.328535
O112  O     O_R   0.036326 0.218420 0.765145 -0.240745
N31   N     N_R   0.709071 0.184935 0.206895 0.209772
O113  O     O_R   0.774340 0.168906 0.200040 -0.382678
O114  O     O_R   0.654638 0.154293 0.196436 -0.294004
N32   N     N_R   0.830328 0.732927 0.791444 0.204291
O115  O     O_R   0.843907 0.801424 0.795007 -0.360999
O116  O     O_R   0.866415 0.686073 0.803525 -0.298620
N33   N     N_R   0.205968 0.309708 0.295867 0.242179
O117  O     O_R   0.220313 0.378760 0.295380 -0.341848
O118  O     O_R   0.196352 0.280325 0.315449 -0.218398
N34   N     N_R   0.290782 0.807192 0.703364 0.228041
O119  O     O_R   0.355691 0.834386 0.701199 -0.358370
O120  O     O_R   0.251772 0.805033 0.685128 -0.221467
N35   N     N_R   0.819205 0.717548 0.295757 0.229002
O121  O     O_R   0.847625 0.653394 0.298198 -0.356923
O122  O     O_R   0.821468 0.759319 0.313348 -0.202334
N36   N     N_R   0.697744 0.197878 0.707073 0.208561
O123  O     O_R   0.686919 0.259864 0.697200 -0.370617
O124  O     O_R   0.665703 0.141074 0.698446 -0.299743
N37   N     N_R   0.824031 0.277722 0.705228 0.226433
O125  O     O_R   0.852421 0.341738 0.702425 -0.372082
O126  O     O_R   0.828977 0.233663 0.688230 -0.215217
N38   N     N_R   0.693423 0.797655 0.293254 0.207205
O127  O     O_R   0.680420 0.734089 0.301821 -0.376949
O128  O     O_R   0.661714 0.853327 0.302608 -0.298585
N39   N     N_R   0.209521 0.684293 0.707018 0.216278
O129  O     O_R   0.274941 0.667024 0.700614 -0.373800
O130  O     O_R   0.155283 0.654327 0.696280 -0.289004
N40   N     N_R   0.330139 0.232747 0.291474 0.204862
O131  O     O_R   0.343647 0.301228 0.295094 -0.362626
O132  O     O_R   0.366245 0.185826 0.303525 -0.292251
N41   N     N_R   0.630208 0.724014 0.778378 0.226038
O133  O     O_R   0.573806 0.761624 0.784852 -0.298559
O134  O     O_R   0.618710 0.657034 0.772170 -0.278364
N42   N     N_R   0.713082 0.379047 0.226295 0.236348
O135  O     O_R   0.742576 0.435034 0.216514 -0.248363
O136  O     O_R   0.654679 0.390271 0.238166 -0.317694
N43   N     N_R   0.266834 0.169617 0.789447 0.233990
O137  O     O_R   0.272645 0.108525 0.800369 -0.273470
O138  O     O_R   0.287816 0.228246 0.799834 -0.351946
N44   N     N_R   0.277159 0.613646 0.224911 0.257718
O139  O     O_R   0.313220 0.595978 0.206973 -0.177373
O140  O     O_R   0.266432 0.563300 0.239756 -0.360128
N45   N     N_R   0.386349 0.708220 0.232575 0.233742
O141  O     O_R   0.446361 0.736768 0.224917 -0.282898
O142  O     O_R   0.392730 0.653475 0.246237 -0.341619
N46   N     N_R   0.150935 0.252568 0.788872 0.270003
O143  O     O_R   0.122835 0.204595 0.802375 -0.238587
O144  O     O_R   0.162119 0.317648 0.796773 -0.358881
N47   N     N_R   0.619751 0.267647 0.220004 0.251109
O145  O     O_R   0.608344 0.301184 0.201138 -0.179839
O146  O     O_R   0.562925 0.251749 0.232021 -0.391623
N48   N     N_R   0.747539 0.635813 0.785446 0.252362
O147  O     O_R   0.723776 0.632881 0.805933 -0.196497
O148  O     O_R   0.755723 0.574662 0.774797 -0.333805
N49   N     N_R   0.130078 0.223873 0.278315 0.226304
O149  O     O_R   0.073631 0.261447 0.284772 -0.297720
O150  O     O_R   0.118624 0.156913 0.272077 -0.273826
N50   N     N_R   0.213529 0.878927 0.726004 0.241431
O151  O     O_R   0.243971 0.934858 0.716467 -0.303607
O152  O     O_R   0.154757 0.890567 0.737667 -0.302123
N51   N     N_R   0.884569 0.790425 0.270184 0.234416
O153  O     O_R   0.943701 0.759457 0.277669 -0.277542
O154  O     O_R   0.892492 0.848068 0.257790 -0.333097
N52   N     N_R   0.776370 0.113800 0.724838 0.255033
O155  O     O_R   0.812037 0.096083 0.706831 -0.183001
O156  O     O_R   0.766351 0.063603 0.739779 -0.358184
N53   N     N_R   0.885459 0.207970 0.732576 0.245735
O157  O     O_R   0.945413 0.236188 0.724828 -0.299564
O158  O     O_R   0.891725 0.153244 0.746250 -0.293481
N54   N     N_R   0.773796 0.884430 0.277630 0.254063
O159  O     O_R   0.809945 0.898594 0.295899 -0.177279
O160  O     O_R   0.758075 0.938886 0.264628 -0.380120
N55   N     N_R   0.120052 0.767322 0.719866 0.249274
O161  O     O_R   0.108977 0.800745 0.700961 -0.187275
O162  O     O_R   0.062973 0.751233 0.731748 -0.390177
N56   N     N_R   0.247380 0.135667 0.285404 0.252026
O163  O     O_R   0.223535 0.132655 0.305882 -0.189564
O164  O     O_R   0.255605 0.074558 0.274735 -0.333635
C233  C     C_1   0.800048 0.896437 0.757248 0.384164
N57   N     N_1   0.820976 0.943919 0.768273 -0.006588
C234  C     C_1   0.883219 0.208759 0.229365 0.317228
N58   N     N_1   0.918372 0.197101 0.213695 -0.059911
C235  C     C_1   0.224801 0.138637 0.715745 0.273432
N59   N     N_1   0.195368 0.087505 0.708867 0.047208
C236  C     C_1   0.099640 0.789252 0.234258 0.347777
N60   N     N_1   0.052153 0.797239 0.221674 -0.084159
C237  C     C_1   0.214870 0.876147 0.224454 0.319121
N61   N     N_1   0.208581 0.905840 0.207480 -0.060137
C238  C     C_1   0.137682 0.258389 0.712828 0.263432
N62   N     N_1   0.083255 0.246733 0.703631 -0.009217
C239  C     C_1   0.792589 0.096930 0.239911 0.362367
N63   N     N_1   0.804220 0.045985 0.229088 -0.061214
C240  C     C_1   0.904227 0.793729 0.754234 0.323224
N64   N     N_1   0.956804 0.809534 0.763887 -0.031484
C241  C     C_1   0.299974 0.396451 0.257288 0.383324
N65   N     N_1   0.320832 0.443927 0.268329 -0.020305
C242  C     C_1   0.383090 0.708164 0.729715 0.325063
N66   N     N_1   0.418376 0.695950 0.714112 -0.056089
C243  C     C_1   0.712533 0.621609 0.273545 0.321126
N67   N     N_1   0.704078 0.589396 0.289977 -0.056523
C244  C     C_1   0.599420 0.289399 0.734190 0.305086
N68   N     N_1   0.552117 0.297399 0.721543 -0.043309
C245  C     C_1   0.714597 0.376548 0.724562 0.322647
N69   N     N_1   0.708330 0.406390 0.707612 -0.058316
C246  C     C_1   0.598455 0.709801 0.263260 0.353417
N70   N     N_1   0.549256 0.700011 0.275007 -0.067542
C247  C     C_1   0.292554 0.596347 0.740827 0.296036
N71   N     N_1   0.304237 0.544449 0.730446 -0.050246
C248  C     C_1   0.404156 0.293752 0.254346 0.322740
N72   N     N_1   0.456640 0.309560 0.264046 -0.042215
N73   N     N_R   0.367272 0.846909 0.941622 0.256520
O165  O     O_R   0.364432 0.778723 0.947394 -0.278233
O166  O     O_R   0.314686 0.873899 0.929533 -0.290864
N74   N     N_R   0.839548 0.376259 0.057977 0.258426
O167  O     O_R   0.771101 0.377266 0.052106 -0.278874
O168  O     O_R   0.863570 0.322391 0.070038 -0.281522
N75   N     N_R   0.634170 0.151205 0.941931 0.256178
O169  O     O_R   0.637168 0.219409 0.947699 -0.280209
O170  O     O_R   0.686765 0.124006 0.929963 -0.291908
N76   N     N_R   0.160496 0.623567 0.058245 0.258492
O171  O     O_R   0.228912 0.622563 0.052446 -0.278026
O172  O     O_R   0.136554 0.677391 0.070319 -0.282392
N77   N     N_R   0.407545 0.819433 0.058190 0.259313
O173  O     O_R   0.426785 0.753447 0.052976 -0.281371
O174  O     O_R   0.347367 0.829542 0.069283 -0.263560
N78   N     N_R   0.193563 0.560114 0.942010 0.257095
O175  O     O_R   0.230396 0.618085 0.947404 -0.279158
O176  O     O_R   0.225800 0.508911 0.930702 -0.269399
N79   N     N_R   0.591289 0.180515 0.058301 0.259450
O177  O     O_R   0.571925 0.246387 0.052985 -0.280613
O178  O     O_R   0.651381 0.170698 0.069553 -0.262673
N80   N     N_R   0.805755 0.440468 0.941765 0.256725
O179  O     O_R   0.768891 0.382523 0.947091 -0.279646
O180  O     O_R   0.773517 0.491716 0.930442 -0.266703
N81   N     N_R   0.116887 0.334414 0.441985 0.258991
O181  O     O_R   0.112496 0.266314 0.447761 -0.277255
O182  O     O_R   0.172174 0.355760 0.430042 -0.275081
N82   N     N_R   0.302940 0.049911 0.557939 0.257580
O183  O     O_R   0.262966 0.105717 0.552505 -0.282507
O184  O     O_R   0.273550 0.997115 0.569272 -0.260846
N83   N     N_R   0.884361 0.665744 0.441845 0.258943
O185  O     O_R   0.888806 0.733809 0.447682 -0.277418
O186  O     O_R   0.829123 0.644530 0.429766 -0.276371
N84   N     N_R   0.696400 0.950366 0.558294 0.257530
O187  O     O_R   0.736427 0.894601 0.552903 -0.283000
O188  O     O_R   0.725711 0.003138 0.569719 -0.259144
N85   N     N_R   0.049467 0.303432 0.558070 0.257554
O189  O     O_R   0.105427 0.263516 0.552712 -0.282438
O190  O     O_R   0.996384 0.274213 0.569361 -0.261566
N86   N     N_R   0.666091 0.884289 0.442047 0.258950
O191  O     O_R   0.734408 0.888674 0.447916 -0.277434
O192  O     O_R   0.644736 0.829226 0.430009 -0.276229
N87   N     N_R   0.950040 0.695636 0.558153 0.257515
O193  O     O_R   0.894105 0.735549 0.552695 -0.283430
O194  O     O_R   0.002985 0.724811 0.569606 -0.258694
N88   N     N_R   0.333734 0.116186 0.441775 0.259009
O195  O     O_R   0.265399 0.111832 0.447518 -0.277221
O196  O     O_R   0.355147 0.171237 0.429791 -0.274605

loop_
_geom_bond_atom_site_label_1
_geom_bond_atom_site_label_2
_geom_bond_distance
_ccdc_geom_bond_type
C41   N9    1.499731 S    
C242  N66   1.158541 T    
N11   O74   1.304290 A    
C149  C161  1.417330 A    
C235  N59   1.158331 T    
C69   N37   1.491411 S    
C43   N11   1.494332 S    
N51   O153  1.302134 A    
C43   C75   1.624282 S    
N27   O105  1.299281 A    
N34   O119  1.296511 A    
C110  C126  1.393828 A    
C103  N7    1.364536 A    
C134  H48   1.082961 S    
C237  N61   1.158554 T    
Zn12  O7    1.929074 S    
C20   C75   1.503816 S    
C193  C217  1.408297 A    
C114  C130  1.393865 A    
Zn2   O13   1.929531 S    
C35   C83   1.572361 S    
N14   O79   1.300409 A    
C150  C212  1.422082 A    
Zn15  O28   1.955223 S    
C133  C191  1.405900 A    
C180  C222  1.393022 A    
C121  C185  1.405413 A    
Zn1   O30   1.956321 S    
N43   O138  1.301274 A    
C120  H62   1.082917 S    
Zn5   O20   1.930058 S    
Zn3   O32   1.955633 S    
C56   C248  1.494970 S    
C176  N80   1.434970 S    
N86   O191  1.301278 A    
C113  C141  1.400839 A    
C12   C83   1.504514 S    
C61   N45   1.494190 S    
C27   C75   1.569304 S    
C183  N87   1.435057 S    
N8    C144  1.436233 S    
N77   O174  1.301369 A    
C41   C233  1.490720 S    
O34   C22   1.272783 A    
C196  C210  1.415322 A    
C107  H49   1.082916 S    
N50   O151  1.302115 A    
O52   C22   1.290262 A    
O41   C15   1.286945 A    
C100  O64   1.348627 S    
C184  N88   1.435666 S    
C69   C85   1.626086 S    
C136  H46   1.082950 S    
C106  C122  1.393696 A    
Zn4   O2    1.959803 S    
C26   H18   1.109908 S    
C22   C77   1.499509 S    
O47   C17   1.287398 A    
N12   O76   1.302112 A    
C118  C134  1.393835 A    
C40   H16   1.106736 S    
Zn13  O26   1.956449 S    
C196  C220  1.408695 A    
C57   N25   1.490673 S    
Zn10  O5    1.929531 S    
C148  C158  1.417941 A    
Zn15  O4    1.957033 S    
C132  H42   1.082963 S    
C116  C132  1.393919 A    
C14   C85   1.501178 S    
C172  C230  1.393392 A    
C240  N64   1.158552 T    
C34   C82   1.572785 S    
C116  C142  1.399836 A    
N78   O175  1.301236 A    
C38   C86   1.562563 S    
N4    C140  1.434312 S    
C128  H38   1.082963 S    
C51   C243  1.494515 S    
N46   O143  1.302965 A    
C205  C229  1.409752 A    
O22   C10   1.274124 A    
C101  N7    1.364541 A    
C96   C160  1.410794 A    
O46   C20   1.286518 A    
C31   H23   1.105757 S    
C226  H74   1.078932 S    
C219  H67   1.079004 S    
C50   N18   1.492393 S    
C220  H68   1.078953 S    
Zn8   O19   1.929535 S    
C232  H80   1.078882 S    
N23   O98   1.302234 A    
C169  N73   1.435669 S    
C8    C187  1.470860 S    
Zn12  O46   1.957555 S    
N80   O180  1.301401 A    
C97   C161  1.410315 A    
N40   O131  1.300780 A    
C68   N52   1.488630 S    
C49   C241  1.490717 S    
C5    C186  1.472020 S    
C25   C32   1.530843 S    
C207  C215  1.415709 A    
C96   N4    1.364621 A    
C47   N15   1.495482 S    
C204  C214  1.415446 A    
N18   O87   1.300993 A    
N83   O186  1.301476 A    
N10   O72   1.304517 A    
C128  C188  1.405826 A    
Zn7   O3    1.957033 S    
C115  C131  1.393847 A    
C149  C163  1.417314 A    
C104  C168  1.410388 A    
C150  C164  1.417963 A    
C151  C209  1.421997 A    
C61   C77   1.625686 S    
C30   H22   1.100039 S    
C98   O62   1.348617 S    
N15   O81   1.301216 A    
O11   C3    1.293061 A    
N42   O135  1.302104 A    
C199  C223  1.408683 A    
C123  C185  1.405348 A    
C42   N10   1.492493 S    
O49   C23   1.291291 A    
C19   C74   1.505402 S    
C179  N83   1.435659 S    
C93   C157  1.410763 A    
C90   C154  1.410278 A    
Zn13  O4    1.952382 S    
C91   O55   1.348804 S    
Zn14  O3    1.959799 S    
C40   C88   1.569623 S    
C107  C123  1.393273 A    
C118  H64   1.082916 S    
C44   C45   1.610624 S    
C113  H59   1.082919 S    
C165  C181  1.415315 A    
C48   N16   1.488780 S    
C32   H24   1.107601 S    
C4    C191  1.471604 S    
C33   H25   1.108367 S    
Zn2   O31   1.954299 S    
N85   O189  1.301254 A    
Zn6   O17   1.929070 S    
C106  H52   1.082910 S    
N33   O118  1.302594 A    
C236  N60   1.158279 T    
C55   C87   1.626158 S    
N9    O69   1.302416 A    
C182  N86   1.435654 S    
N7    C143  1.434011 S    
N32   O115  1.300764 A    
C124  C186  1.405628 A    
C146  C216  1.421605 A    
C131  H41   1.082967 S    
C25   C73   1.568454 S    
Zn3   O1    1.957030 S    
C48   C240  1.494975 S    
C134  C192  1.405738 A    
N73   O165  1.301277 A    
C30   H6    1.107652 S    
C62   N46   1.498531 S    
C96   O60   1.348609 S    
N49   O150  1.302789 A    
C47   C79   1.626140 S    
C58   N42   1.491186 S    
C129  H43   1.082967 S    
N39   O129  1.298346 A    
C53   N21   1.492270 S    
C161  C177  1.415028 A    
C102  C166  1.410362 A    
N52   O155  1.302503 A    
C16   C87   1.497748 S    
C181  N85   1.435069 S    
C2    C189  1.471965 S    
N45   O142  1.301740 A    
C42   C234  1.493825 S    
C64   N48   1.489604 S    
Zn7   O41   1.958942 S    
C98   N6    1.364540 A    
Zn14  O27   1.954253 S    
C98   C162  1.410853 A    
C184  C218  1.393479 A    
C148  C160  1.417950 A    
N24   O100  1.304810 A    
Zn11  O2    1.957030 S    
N81   O181  1.301282 A    
C124  H34   1.082947 S    
O27   C15   1.276993 A    
C67   N35   1.491297 S    
C66   C82   1.633279 S    
C170  N74   1.435652 S    
O8    C2    1.290361 A    
N17   O85   1.302423 A    
C54   C86   1.626759 S    
C176  C226  1.392896 A    
N44   O139  1.302503 A    
C108  C138  1.400980 A    
C99   O63   1.348759 S    
C103  C167  1.410715 A    
N51   O154  1.301854 A    
C90   O54   1.348759 S    
Zn7   O36   1.955223 S    
C90   N2    1.365410 A    
O16   C6    1.289995 A    
O14   C6    1.289951 A    
C172  N76   1.435649 S    
C64   N32   1.496559 S    
C154  C170  1.414869 A    
O40   C10   1.290463 A    
C46   C78   1.614541 S    
C26   H2    1.104801 S    
N44   O140  1.298220 A    
C105  H51   1.082909 S    
C179  C223  1.393402 A    
O17   C7    1.293058 A    
N35   O121  1.297227 A    
N26   O103  1.296549 A    
C117  C143  1.399788 A    
C202  C208  1.420570 A    
O9    C3    1.293122 A    
C116  H58   1.082867 S    
C30   C78   1.559753 S    
C47   C239  1.492014 S    
C229  H77   1.077776 S    
C109  C139  1.400245 A    
C105  C121  1.393418 A    
Zn16  O11   1.929535 S    
C110  C140  1.399942 A    
C177  N81   1.435684 S    
C53   C245  1.494614 S    
N49   O149  1.302728 A    
C44   C236  1.492690 S    
C178  C224  1.393062 A    
N36   O123  1.298631 A    
C112  C128  1.393827 A    
N5    C141  1.436079 S    
N13   O78   1.304797 A    
C58   C74   1.633367 S    
C49   N17   1.499742 S    
Zn4   O29   1.952735 S    
C122  C186  1.405598 A    
C201  C205  1.421769 A    
C166  C182  1.415016 A    
C65   N33   1.490617 S    
C133  H47   1.083022 S    
C173  C225  1.391605 A    
C114  C142  1.399801 A    
C178  N82   1.435056 S    
C63   N47   1.491970 S    
O50   C24   1.287024 A    
O5    C1    1.293138 A    
N22   O95   1.301362 A    
C108  C124  1.393752 A    
O31   C19   1.271819 A    
C114  H60   1.082870 S    
C159  C175  1.414578 A    
C94   O58   1.348607 S    
N75   O170  1.301465 A    
C147  C159  1.418590 A    
N55   O161  1.302727 A    
C204  C228  1.408272 A    
N82   O183  1.301249 A    
C44   C76   1.629613 S    
O32   C20   1.283552 A    
C145  C153  1.417087 A    
C34   C39   1.524065 S    
Zn13  O12   1.930058 S    
C100  N6    1.364546 A    
N84   O188  1.301419 A    
N37   O126  1.302965 A    
C57   C64   1.619427 S    
C145  C215  1.422245 A    
N48   O148  1.300619 A    
C58   C63   1.627446 S    
Zn8   O4    1.958892 S    
N6    C142  1.434092 S    
Zn4   O38   1.957555 S    
C50   C55   1.610445 S    
C63   C79   1.614657 S    
C56   N24   1.488764 S    
C32   C80   1.569558 S    
C33   C81   1.568405 S    
C130  H44   1.082994 S    
C206  C230  1.408738 A    
C205  C215  1.415757 A    
C111  C139  1.400297 A    
C36   H28   1.103260 S    
Zn9   O47   1.959757 S    
C42   C47   1.610633 S    
C26   C74   1.572074 S    
Zn10  O48   1.956366 S    
Zn11  O45   1.958531 S    
N34   O120  1.303122 A    
C58   N26   1.493705 S    
C51   C83   1.603389 S    
C45   C77   1.604772 S    
C171  N75   1.435714 S    
N53   O158  1.301775 A    
C70   N38   1.493632 S    
Zn1   O1    1.952377 S    
C102  O66   1.348750 S    
N14   O80   1.305245 A    
Zn1   O39   1.959757 S    
C92   N2    1.365406 A    
C6    C185  1.470682 S    
Zn2   O40   1.956366 S    
Zn3   O37   1.958531 S    
C61   N29   1.491144 S    
Zn9   O22   1.956321 S    
N29   O110  1.302945 A    
C169  C229  1.392727 A    
C39   H31   1.105737 S    
Zn11  O24   1.955633 S    
C62   C78   1.628845 S    
N48   O147  1.302773 A    
C52   N20   1.495487 S    
C37   H29   1.109887 S    
C246  N70   1.158271 T    
Zn9   O2    1.952377 S    
C52   C53   1.611864 S    
N50   O152  1.301974 A    
C239  N63   1.158278 T    
C67   N51   1.493507 S    
C94   C158  1.410778 A    
N19   O90   1.304171 A    
Zn16  O25   1.953064 S    
O6    C2    1.290238 A    
C25   H1    1.102348 S    
C135  C191  1.405793 A    
C43   C46   1.609244 S    
C70   N54   1.491500 S    
C106  C138  1.400958 A    
C230  H78   1.078873 S    
C201  C213  1.416322 A    
C59   N27   1.496096 S    
C32   H8    1.106721 S    
C39   H15   1.106809 S    
C217  H65   1.079015 S    
N3    C139  1.434703 S    
N88   O195  1.301280 A    
C109  C125  1.393247 A    
C50   C82   1.604115 S    
C71   N39   1.494532 S    
C104  O68   1.348750 S    
C35   H11   1.104863 S    
C113  C129  1.393684 A    
N54   O159  1.302533 A    
N78   O176  1.301398 A    
N1    C137  1.435441 S    
C31   H7    1.106811 S    
C195  C199  1.420494 A    
N21   O94   1.304788 A    
N16   O83   1.300808 A    
C44   N12   1.495388 S    
Zn15  O49   1.958942 S    
C23   C78   1.499458 S    
C223  H71   1.078961 S    
C17   C76   1.501652 S    
N38   O127  1.298372 A    
C145  C155  1.417099 A    
C129  C189  1.405617 A    
N56   O163  1.302773 A    
C21   C80   1.496677 S    
C221  H69   1.078974 S    
Zn12  O21   1.952735 S    
N25   O102  1.302593 A    
N20   O91   1.301647 A    
C36   C37   1.523843 S    
C197  C221  1.408686 A    
Zn8   O42   1.957601 S    
C66   N50   1.492306 S    
C181  C217  1.393033 A    
C123  H33   1.083009 S    
C89   O53   1.348790 S    
C196  C198  1.420558 A    
Zn12  O1    1.959803 S    
N40   O132  1.303547 A    
C54   C246  1.492826 S    
C147  C213  1.423384 A    
C15   C86   1.498129 S    
C111  H53   1.082895 S    
C108  H50   1.082906 S    
C13   C88   1.496651 S    
C64   C80   1.626043 S    
C174  C228  1.392879 A    
C3    C192  1.472299 S    
C175  N79   1.434452 S    
C33   C40   1.530887 S    
N18   O88   1.304574 A    
C107  C137  1.400743 A    
C180  N84   1.435059 S    
C244  N68   1.158230 T    
C48   C80   1.612209 S    
C49   C81   1.610353 S    
O12   C4    1.290431 A    
C72   N56   1.489569 S    
N25   O101  1.296505 A    
O48   C18   1.290543 A    
N2    C138  1.436345 S    
N42   O136  1.301892 A    
N77   O173  1.301115 A    
O38   C12   1.293530 A    
C56   C88   1.612161 S    
C101  C165  1.410760 A    
C198  C212  1.415424 A    
C68   N36   1.493999 S    
N23   O97   1.301318 A    
N43   O137  1.303705 A    
N46   O144  1.302039 A    
C195  C209  1.415413 A    
C157  C173  1.414573 A    
N28   O107  1.298515 A    
C127  H37   1.082968 S    
C195  C219  1.408293 A    
C241  N65   1.158372 T    
O21   C9    1.274707 A    
C160  C176  1.415247 A    
C248  N72   1.158556 T    
C148  C214  1.422149 A    
Zn10  O23   1.954299 S    
C200  C224  1.408325 A    
O23   C11   1.272153 A    
N75   O169  1.301281 A    
C31   C79   1.561645 S    
C233  N57   1.158378 T    
C202  C214  1.415436 A    
C24   C79   1.497704 S    
C28   H20   1.103080 S    
N27   O106  1.303556 A    
N32   O116  1.303546 A    
O25   C13   1.274260 A    
C70   C86   1.613994 S    
C59   C62   1.610349 S    
C62   N30   1.498297 S    
C119  C135  1.393902 A    
O10   C4    1.289979 A    
N36   O124  1.303385 A    
C228  H76   1.078924 S    
C91   C155  1.409943 A    
C218  H66   1.078952 S    
C55   N23   1.495709 S    
C52   C244  1.492563 S    
C152  C210  1.421627 A    
N74   O168  1.301467 A    
N35   O122  1.302900 A    
C112  C140  1.399943 A    
C105  C137  1.400788 A    
N79   O178  1.301364 A    
C167  C183  1.415312 A    
N12   O75   1.301536 A    
Zn7   O18   1.927702 S    
N52   O156  1.298267 A    
Zn5   O34   1.956449 S    
O36   C24   1.276162 A    
Zn16  O50   1.957601 S    
C175  C227  1.391544 A    
N74   O167  1.301273 A    
C97   O61   1.348755 S    
C57   C73   1.627331 S    
C198  C222  1.408298 A    
N47   O146  1.299812 A    
C55   C247  1.491938 S    
C126  H40   1.082959 S    
C28   C76   1.563851 S    
C203  C213  1.416269 A    
C162  C178  1.415309 A    
O43   C13   1.285368 A    
O28   C16   1.277266 A    
C164  C180  1.415303 A    
Zn5   O3    1.952382 S    
C103  O67   1.348629 S    
Zn6   O4    1.959799 S    
C38   H14   1.106559 S    
N28   O108  1.303372 A    
C109  H55   1.082902 S    
C18   C73   1.502571 S    
C33   H9    1.102394 S    
C46   C238  1.494767 S    
C146  C154  1.417189 A    
C53   C85   1.605319 S    
N31   O114  1.303533 A    
C94   N4    1.364632 A    
C72   N40   1.496562 S    
C11   C82   1.505300 S    
C151  C167  1.417972 A    
C177  C221  1.393460 A    
N80   O179  1.301238 A    
Zn16  O3    1.958892 S    
O39   C9    1.287692 A    
C28   H4    1.106361 S    
C194  C210  1.415339 A    
N76   O172  1.301464 A    
Zn14  O9    1.929070 S    
C25   H17   1.108374 S    
C120  C136  1.393826 A    
C208  C232  1.408736 A    
Zn4   O15   1.929074 S    
O15   C5    1.293027 A    
C101  O65   1.348629 S    
C27   H19   1.108243 S    
C93   N3    1.364232 A    
C174  N78   1.434959 S    
N10   O71   1.300989 A    
N26   O104  1.303183 A    
C66   N34   1.493662 S    
N11   O73   1.299568 A    
Zn14  O52   1.956037 S    
C203  C207  1.421623 A    
C54   N22   1.496378 S    
Zn8   O33   1.953064 S    
C125  H39   1.082969 S    
C170  C232  1.393401 A    
C36   H12   1.106729 S    
C97   N5    1.365331 A    
C146  C156  1.417189 A    
Zn2   O2    1.958895 S    
O7    C1    1.292902 A    
C51   N19   1.490163 S    
N87   O193  1.301253 A    
O26   C14   1.272752 A    
C111  C127  1.393422 A    
N31   O113  1.298715 A    
C173  N77   1.434497 S    
C204  C206  1.420585 A    
N13   O77   1.301086 A    
C243  N67   1.158557 T    
C27   C30   1.537430 S    
N47   O145  1.302686 A    
C42   C74   1.604329 S    
N85   O190  1.301426 A    
C115  C141  1.400879 A    
N33   O117  1.296519 A    
C171  C231  1.392705 A    
C182  C220  1.393442 A    
N22   O96   1.302130 A    
O37   C11   1.296715 A    
C49   C56   1.616580 S    
C72   C88   1.626034 S    
N9    O70   1.301928 A    
C197  C211  1.415312 A    
C89   N1    1.364942 A    
C38   H30   1.105228 S    
O13   C5    1.293009 A    
Zn10  O1    1.958895 S    
C39   C87   1.561995 S    
O51   C21   1.285344 A    
C9    C84   1.500071 S    
C43   C235  1.485450 S    
C95   C159  1.410730 A    
N45   O141  1.302400 A    
C51   C54   1.608417 S    
C37   C85   1.571960 S    
N73   O166  1.301459 A    
C35   H27   1.110174 S    
C121  H35   1.083012 S    
C41   C48   1.616590 S    
C156  C172  1.414870 A    
C122  H36   1.082937 S    
C67   C83   1.629378 S    
C115  H57   1.082915 S    
C45   C237  1.494692 S    
N15   O82   1.302301 A    
N82   O184  1.301421 A    
C201  C225  1.408880 A    
O24   C12   1.275007 A    
C231  H79   1.077823 S    
Zn6   O35   1.954253 S    
C104  N8    1.365369 A    
O20   C8    1.290068 A    
N37   O125  1.297581 A    
C168  C184  1.415029 A    
C125  C187  1.405563 A    
C152  C166  1.417315 A    
O44   C14   1.291122 A    
C126  C188  1.405886 A    
N24   O99   1.300816 A    
C199  C211  1.415322 A    
C112  H54   1.082868 S    
N81   O182  1.301477 A    
C163  C179  1.415018 A    
C29   C77   1.572447 S    
C41   C73   1.610341 S    
C60   C76   1.613408 S    
C136  C192  1.405696 A    
N84   O187  1.301251 A    
C45   N13   1.492318 S    
C149  C211  1.421534 A    
C131  C189  1.405660 A    
C67   C70   1.629100 S    
C69   N53   1.492356 S    
N17   O86   1.301896 A    
Zn5   O43   1.959630 S    
C60   N28   1.493635 S    
Zn6   O44   1.956037 S    
C130  C190  1.405992 A    
C222  H70   1.078998 S    
N87   O194  1.301421 A    
C151  C165  1.417980 A    
C225  H73   1.077698 S    
C234  N58   1.158523 T    
C40   H32   1.107612 S    
N76   O171  1.301272 A    
C119  H61   1.082862 S    
Zn15  O10   1.927702 S    
C227  H75   1.077751 S    
C68   C84   1.612479 S    
N53   O157  1.300983 A    
C117  C133  1.393713 A    
C57   N41   1.496693 S    
Zn1   O16   1.930059 S    
C206  C216  1.415328 A    
C120  C144  1.400888 A    
Zn3   O14   1.927702 S    
O29   C17   1.275832 A    
C34   H26   1.109957 S    
C95   O59   1.348593 S    
C50   C242  1.493294 S    
O42   C16   1.285922 A    
C93   O57   1.348598 S    
C238  N62   1.157390 T    
C194  C200  1.420601 A    
C110  H56   1.082865 S    
C28   C29   1.523859 S    
N55   O162  1.299904 A    
N29   O109  1.297651 A    
C60   N44   1.488345 S    
C37   H13   1.104533 S    
N39   O130  1.303573 A    
C102  N8    1.365350 A    
N30   O111  1.299941 A    
C99   N5    1.365319 A    
C65   N49   1.496738 S    
C92   C156  1.410273 A    
C150  C162  1.417978 A    
C7    C188  1.471901 S    
N30   O112  1.302948 A    
C92   O56   1.348756 S    
C118  C144  1.400877 A    
N41   O134  1.302787 A    
C183  C219  1.392976 A    
C132  C190  1.405907 A    
C52   C84   1.629336 S    
C29   H5    1.104559 S    
C193  C197  1.420507 A    
C203  C227  1.408832 A    
C158  C174  1.415254 A    
O45   C19   1.297049 A    
Zn13  O51   1.959630 S    
C91   N1    1.364942 A    
C68   C69   1.623291 S    
C127  C187  1.405601 A    
C207  C231  1.409719 A    
C36   C84   1.563544 S    
C63   N31   1.494700 S    
C1    C190  1.472019 S    
C224  H72   1.078997 S    
C89   C153  1.409992 A    
O19   C7    1.292928 A    
O33   C21   1.274293 A    
C202  C226  1.408275 A    
C34   H10   1.104829 S    
N88   O196  1.301475 A    
Zn9   O8    1.930059 S    
C200  C212  1.415423 A    
N83   O185  1.301279 A    
C99   C163  1.410265 A    
Zn11  O6    1.927702 S    
C71   N55   1.492216 S    
C100  C164  1.410781 A    
C71   C87   1.614480 S    
N86   O192  1.301476 A    
C10   C81   1.502588 S    
C65   C81   1.627293 S    
C60   C61   1.625088 S    
C208  C216  1.415329 A    
N54   O160  1.299823 A    
C29   H21   1.109945 S    
N79   O177  1.301110 A    
C27   H3    1.100330 S    
C119  C143  1.399877 A    
C95   N3    1.364215 A    
C194  C218  1.408698 A    
C147  C157  1.418560 A    
N21   O93   1.301071 A    
N16   O84   1.304811 A    
C26   C31   1.523247 S    
C65   C72   1.619442 S    
N38   O128  1.303402 A    
C35   C38   1.524834 S    
N56   O164  1.300609 A    
C155  C171  1.413820 A    
C245  N69   1.158552 T    
C135  H45   1.082971 S    
N20   O92   1.302017 A    
C59   N43   1.504017 S    
N19   O89   1.301085 A    
C152  C168  1.417306 A    
C66   C71   1.627577 S    
C153  C169  1.413844 A    
C247  N71   1.158270 T    
O18   C8    1.289959 A    
O35   C23   1.274772 A    
C59   C75   1.640453 S    
N41   O133  1.302734 A    
C46   N14   1.503368 S    
C117  H63   1.082869 S    
C193  C209  1.415406 A    
O30   C18   1.274037 A    
