data_mof_unit_21688.cif
_audit_creation_date              2013-03-05T15:59:15-0500
_audit_creation_method            fapswitch 2.2
_symmetry_space_group_name_H-M    P1
_symmetry_Int_Tables_number       1
_space_group_crystal_system       triclinic
_cell_length_a                    15.008031
_cell_length_b                    13.870964
_cell_length_c                    23.474103
_cell_angle_alpha                 89.766373
_cell_angle_beta                  87.11381
_cell_angle_gamma                 89.716062
_cell_volume                      4880.44702493

loop_
_atom_site_label
_atom_site_type_symbol
_atom_site_description
_atom_site_fract_x
_atom_site_fract_y
_atom_site_fract_z
_atom_type_partial_charge
O1    O     O_R   0.370260 0.582280 0.500010 -0.576150
O2    O     O_R   0.629740 0.417720 0.499990 -0.581193
O3    O     O_R   0.629740 0.582280 0.499990 -0.583135
O4    O     O_R   0.370260 0.417720 0.500010 -0.581595
C1    C     C_R   0.329092 0.500413 0.499983 0.810063
C2    C     C_R   0.670941 0.499613 0.501911 0.806697
O5    O     O_R   0.499980 0.582290 0.417880 -0.573711
O6    O     O_R   0.500020 0.417710 0.582120 -0.579703
O7    O     O_R   0.500020 0.582290 0.582120 -0.579932
O8    O     O_R   0.499980 0.417710 0.417880 -0.584155
C3    C     C_R   0.501921 0.500003 0.391226 0.807944
C4    C     C_R   0.500107 0.499899 0.608660 0.806390
Cu1   Cu    Cu3+1 0.500000 0.597420 0.500000 0.935103
Cu2   Cu    Cu3+1 0.500000 0.402580 0.500000 0.931562
C5    C     C_R   0.551477 0.420765 0.877908 0.545953
C6    C     C_R   0.485459 0.582021 0.120301 0.546582
N1    N     N_R   0.521370 0.500735 0.850475 -0.455931
N2    N     N_R   0.514232 0.501507 0.147803 -0.455820
C7    C     C_R   0.492781 0.580982 0.879460 0.548657
C8    C     C_R   0.545914 0.422559 0.118768 0.548754
C9    C     C_R   0.492175 0.582901 0.939080 -0.047675
C10   C     C_R   0.548830 0.421597 0.059074 -0.047947
C11   C     C_R   0.521688 0.501439 0.968873 -0.051149
C12   C     C_R   0.519310 0.503051 0.029268 -0.051219
C13   C     C_R   0.552981 0.418516 0.938322 -0.020035
C14   C     C_R   0.487257 0.585660 0.059821 -0.020304
C15   C     C_R   0.461653 0.664629 0.969016 -0.149166
C16   C     C_R   0.580745 0.340473 0.029096 -0.149780
C17   C     C_R   0.458563 0.667640 0.028659 0.144640
C18   C     C_R   0.583426 0.337295 0.969448 0.145010
O9    O     O_2   0.578801 0.344283 0.846314 -0.549217
O10   O     O_2   0.455420 0.657373 0.151942 -0.548031
O11   O     O_2   0.464215 0.658474 0.850411 -0.542117
O12   O     O_2   0.574449 0.345096 0.147849 -0.542867
H1    H     H_    0.439378 0.727064 0.945638 0.188841
H2    H     H_    0.603684 0.278324 0.052458 0.188781
C19   C     C_R   0.586329 0.534875 0.237509 -0.020738
C20   C     C_R   0.435932 0.469130 0.765815 -0.022298
C21   C     C_R   0.585676 0.533105 0.297640 0.104292
C22   C     C_R   0.428218 0.470360 0.706173 0.103485
C23   C     C_R   0.508594 0.499582 0.328744 -0.069393
C24   C     C_R   0.502270 0.499813 0.670833 -0.064696
C25   C     C_R   0.436708 0.463165 0.299981 -0.256280
C26   C     C_R   0.580991 0.529574 0.694823 -0.264053
H3    H     H_    0.379435 0.434487 0.324176 0.146434
H4    H     H_    0.637000 0.552474 0.667115 0.144015
C27   C     C_R   0.437635 0.463802 0.240438 0.208112
C28   C     C_R   0.588489 0.529292 0.753909 0.211512
C29   C     C_R   0.512491 0.500450 0.209112 0.274784
C30   C     C_R   0.515627 0.498987 0.789524 0.275743
C31   C     C_R   0.815499 0.556318 0.465172 -0.288326
C32   C     C_R   0.184602 0.461874 0.546146 -0.294667
C33   C     C_R   0.767830 0.500080 0.505030 -0.075094
C34   C     C_R   0.232259 0.503123 0.500165 -0.073250
C35   C     C_R   0.811707 0.450944 0.548358 0.113520
C36   C     C_R   0.188718 0.553419 0.457457 0.124958
C37   C     C_R   0.904009 0.468647 0.554365 0.072841
C38   C     C_R   0.095292 0.569130 0.464319 0.065961
C39   C     C_R   0.952831 0.518070 0.509829 -0.058327
C40   C     C_R   0.046551 0.518994 0.508629 -0.060439
C41   C     C_R   0.907986 0.564985 0.465885 0.083764
C42   C     C_R   0.091534 0.468011 0.551096 0.087995
C43   C     C_R   0.949384 0.440091 0.603397 0.155115
C44   C     C_R   0.048751 0.633156 0.428765 0.161906
C45   C     C_R   0.043095 0.429363 0.599245 0.165825
C46   C     C_R   0.955613 0.623551 0.425314 0.167980
H5    H     H_    0.778976 0.591263 0.432486 0.157789
H6    H     H_    0.221731 0.425709 0.578181 0.154345
C47   C     C_R   0.424796 0.795895 0.518144 0.281835
C48   C     C_R   0.574202 0.204268 0.479635 0.285438
C49   C     C_R   0.574997 0.795779 0.482308 0.300649
C50   C     C_R   0.426036 0.204575 0.520370 0.308149
N3    N     N_R   0.500000 0.743810 0.500000 -0.183980
N4    N     N_R   0.500000 0.256190 0.500000 -0.184498
C51   C     C_R   0.579949 0.896878 0.493526 -0.030666
C52   C     C_R   0.419797 0.103039 0.509828 -0.037334
C53   C     C_R   0.419831 0.897595 0.507326 -0.032105
C54   C     C_R   0.580581 0.102292 0.490090 -0.035667
C55   C     C_R   0.499960 0.948906 0.500353 -0.055343
C56   C     C_R   0.500134 0.051353 0.500131 -0.057834
C57   C     C_R   0.661678 0.947107 0.496983 0.180777
C58   C     C_R   0.337146 0.051845 0.508011 0.181160
C59   C     C_R   0.338199 0.949070 0.503586 0.185644
C60   C     C_R   0.663200 0.049744 0.491573 0.183525
C61   C     C_3   0.091433 0.379550 0.646588 -0.866162
H7    H     H_    0.046053 0.347230 0.679966 0.247803
H8    H     H_    0.132541 0.319053 0.628667 0.226973
H9    H     H_    0.134833 0.431963 0.667422 0.237587
C62   C     C_3   0.906882 0.676843 0.379331 -0.871527
H10   H     H_    0.951787 0.714880 0.347960 0.248867
H11   H     H_    0.869245 0.624677 0.354166 0.235288
H12   H     H_    0.860155 0.730723 0.399243 0.229674
C63   C     C_3   0.356874 0.753369 0.560926 -0.751938
H13   H     H_    0.387930 0.700868 0.589226 0.254564
H14   H     H_    0.328754 0.810482 0.589709 0.202242
H15   H     H_    0.300201 0.719510 0.540431 0.230197
C64   C     C_3   0.640045 0.248823 0.436553 -0.759335
H16   H     H_    0.610717 0.307097 0.412083 0.262349
H17   H     H_    0.699751 0.276563 0.456782 0.225924
H18   H     H_    0.660723 0.194955 0.403542 0.198374
C65   C     C_3   0.642585 0.754304 0.439390 -0.795529
H19   H     H_    0.612153 0.699651 0.412930 0.262860
H20   H     H_    0.667556 0.811043 0.409167 0.204574
H21   H     H_    0.700571 0.723666 0.460178 0.229719
C66   C     C_3   0.360598 0.248513 0.563861 -0.791263
H22   H     H_    0.391255 0.304530 0.588876 0.263382
H23   H     H_    0.301283 0.278434 0.543812 0.230964
H24   H     H_    0.338819 0.193679 0.596173 0.198332
C67   C     C_3   0.743894 0.892758 0.514784 -0.862680
H25   H     H_    0.771732 0.927719 0.552387 0.235440
H26   H     H_    0.728428 0.819117 0.530580 0.236277
H27   H     H_    0.794881 0.889501 0.478865 0.236138
C68   C     C_3   0.249588 0.107055 0.504564 -0.854449
H28   H     H_    0.194411 0.065720 0.487367 0.237362
H29   H     H_    0.224802 0.129832 0.547711 0.229710
H30   H     H_    0.258778 0.170252 0.475709 0.236305
C69   C     C_3   0.255505 0.895985 0.486629 -0.876079
H31   H     H_    0.228752 0.929452 0.447988 0.235474
H32   H     H_    0.270105 0.821272 0.472791 0.228572
H33   H     H_    0.203986 0.896029 0.522274 0.242113
C70   C     C_3   0.751502 0.102937 0.493393 -0.859391
H34   H     H_    0.807982 0.059403 0.507685 0.238116
H35   H     H_    0.773644 0.128051 0.450174 0.232394
H36   H     H_    0.744725 0.163913 0.523682 0.229271
C71   C     C_3   0.424251 0.759532 0.056558 -0.735387
H37   H     H_    0.406023 0.814886 0.024792 0.201778
H38   H     H_    0.363112 0.744543 0.083674 0.257695
H39   H     H_    0.476649 0.791583 0.082225 0.260060
C72   C     C_3   0.619173 0.246049 0.941499 -0.736769
H40   H     H_    0.640585 0.192068 0.973182 0.201970
H41   H     H_    0.566516 0.211591 0.917110 0.261192
H42   H     H_    0.678603 0.262627 0.913142 0.255947
C73   C     C_1   0.663107 0.570874 0.204281 0.290469
N5    N     N_1   0.724404 0.599627 0.177675 -0.272185
C74   C     C_1   0.361897 0.438290 0.803369 0.287421
N6    N     N_1   0.302802 0.413667 0.833429 -0.272653
C75   C     C_3   0.668604 0.562562 0.327176 -0.882133
H43   H     H_    0.726870 0.520527 0.309734 0.239812
H44   H     H_    0.681464 0.640502 0.319905 0.241217
H45   H     H_    0.663742 0.548366 0.373596 0.215641
C76   C     C_3   0.340423 0.443591 0.681596 -0.880940
H46   H     H_    0.340150 0.455174 0.634993 0.211882
H47   H     H_    0.325494 0.366601 0.690768 0.242338
H48   H     H_    0.286098 0.489081 0.701126 0.239611
C77   C     C_3   0.358683 0.426026 0.210495 -0.805870
H49   H     H_    0.330666 0.483938 0.183842 0.239897
H50   H     H_    0.379698 0.364473 0.182806 0.245568
H51   H     H_    0.305050 0.400734 0.241234 0.222064
C78   C     C_3   0.673977 0.561142 0.778769 -0.809503
H52   H     H_    0.660759 0.623911 0.807196 0.244560
H53   H     H_    0.702240 0.501245 0.803773 0.243711
H54   H     H_    0.724652 0.582621 0.745027 0.218847
C79   C     C_3   0.761653 0.374236 0.583238 -0.839273
H55   H     H_    0.727551 0.324522 0.554949 0.243296
H56   H     H_    0.806254 0.325946 0.606360 0.240480
H57   H     H_    0.711540 0.408028 0.613379 0.229280
C80   C     C_3   0.240830 0.574462 0.401752 -0.835446
H58   H     H_    0.288102 0.514704 0.391453 0.206880
H59   H     H_    0.197069 0.577979 0.365175 0.243391
H60   H     H_    0.279720 0.641891 0.405017 0.243971
C81   C     C_3   0.902136 0.440936 0.662144 -0.856063
H61   H     H_    0.836524 0.478085 0.662037 0.240534
H62   H     H_    0.893214 0.366562 0.679002 0.234831
H63   H     H_    0.941928 0.482562 0.692118 0.242879
C82   C     C_3   0.093856 0.721986 0.403068 -0.864196
H64   H     H_    0.156393 0.738779 0.423876 0.240365
H65   H     H_    0.107349 0.713195 0.356459 0.238162
H66   H     H_    0.050723 0.786427 0.410717 0.239466

loop_
_geom_bond_atom_site_label_1
_geom_bond_atom_site_label_2
_geom_bond_distance
_ccdc_geom_bond_type
C49   C51   1.430886 A    
C43   C45   1.412058 A    
C65   H19   1.097687 S    
C17   C71   1.511641 S    
C48   C54   1.438207 A    
C33   C35   1.410671 A    
C47   C53   1.434569 A    
C31   C41   1.394780 A    
C50   C52   1.435306 A    
O3    C2    1.301768 A    
C57   C60   1.428993 A    
C21   C75   1.513575 S    
C81   H61   1.109226 S    
C78   H52   1.110127 S    
C74   N6    1.157229 T    
C21   C23   1.416011 A    
C61   H7    1.106866 S    
O5    C3    1.303373 A    
C66   H23   1.105957 S    
C82   H64   1.105876 S    
O1    C1    1.295476 A    
Cu2   N4    2.030570 S    
C7    C9    1.399456 A    
C12   C14   1.423135 A    
C72   H40   1.110943 S    
C47   C63   1.514496 S    
C69   H32   1.104925 S    
C77   H49   1.110206 S    
C54   C56   1.411009 A    
C37   C39   1.421884 A    
C15   C17   1.399290 A    
C53   C59   1.421322 A    
C38   C40   1.422371 A    
C64   H16   1.093266 S    
C19   C29   1.408060 A    
C40   C42   1.416652 A    
C64   H17   1.106450 S    
O7    Cu1   1.938248 S    
C6    O10   1.347327 S    
C70   H36   1.108150 S    
C4    C24   1.461433 S    
C67   H26   1.106958 S    
C77   H50   1.110003 S    
C41   C46   1.417308 A    
C80   H58   1.107875 S    
C32   C34   1.387521 A    
C48   N4    1.388750 A    
C71   H39   1.110152 S    
C11   C12   1.416632 A    
C47   N3    1.386821 A    
Cu1   Cu2   2.702617 S    
C79   H56   1.104762 S    
C32   H6    1.078877 S    
C48   C64   1.510462 S    
C72   H42   1.110177 S    
C8    O12   1.350130 S    
C28   C30   1.407503 A    
C9    C15   1.399179 A    
C39   C40   1.405550 A    
C82   H65   1.109721 S    
C10   C16   1.399304 A    
C22   C76   1.513268 S    
C6    C14   1.419310 A    
C23   C25   1.398769 A    
O2    C2    1.298044 A    
C24   C26   1.398969 A    
C27   C77   1.505213 S    
C81   H62   1.109732 S    
C26   H4    1.084639 S    
C37   C43   1.420539 A    
C46   C62   1.521205 S    
C53   C55   1.402591 A    
C9    C11   1.407801 A    
C38   C44   1.421152 A    
C66   H24   1.110619 S    
C34   C36   1.405181 A    
C39   C41   1.414435 A    
C61   H8    1.110575 S    
C1    C34   1.453373 S    
C27   C29   1.407371 A    
O8    Cu2   1.938248 S    
C69   H33   1.110328 S    
C52   C58   1.434936 A    
C49   N3    1.384745 A    
C51   C57   1.419684 A    
C15   H1    1.083821 S    
C60   C70   1.522545 S    
C76   H48   1.110255 S    
C68   H29   1.107951 S    
C62   H12   1.110615 S    
C76   H47   1.110258 S    
C44   C46   1.411228 A    
C80   H59   1.107746 S    
C44   C82   1.517041 S    
C36   C80   1.517534 S    
C75   H44   1.110140 S    
O6    C4    1.301432 A    
C63   H13   1.101257 S    
C31   H5    1.077412 S    
C20   C74   1.448332 S    
C79   H57   1.109765 S    
C45   C61   1.519455 S    
C25   H3    1.082603 S    
C70   H34   1.103458 S    
C78   H54   1.110943 S    
C50   N4    1.387467 A    
Cu1   N3    2.030570 S    
C58   C59   1.429735 A    
C63   H15   1.105662 S    
O8    C3    1.299230 A    
C35   C37   1.422149 A    
C7    O11   1.350210 S    
C71   H37   1.110950 S    
C10   C12   1.407901 A    
C67   H27   1.110647 S    
O1    Cu1   1.959458 S    
C2    C33   1.459687 S    
C81   H63   1.110919 S    
C77   H51   1.110818 S    
C68   H28   1.103493 S    
C75   H43   1.110453 S    
C61   H9    1.109791 S    
C13   C18   1.426081 A    
C5    N1    1.366692 A    
O6    Cu2   1.939949 S    
C64   H18   1.110539 S    
C42   C45   1.417590 A    
C6    N2    1.366717 A    
C52   C56   1.408778 A    
C58   C68   1.523164 S    
C8    C10   1.399846 A    
O4    C1    1.300166 A    
O3    Cu1   1.957386 S    
N1    C30   1.437997 S    
C5    O9    1.347273 S    
C20   C30   1.409135 A    
C80   H60   1.109877 S    
C82   H66   1.110923 S    
C18   C72   1.511564 S    
C66   H22   1.093027 S    
C57   C67   1.518422 S    
C69   H31   1.109442 S    
C65   H20   1.111199 S    
C68   H30   1.110495 S    
C78   H53   1.110087 S    
C62   H10   1.106911 S    
C16   C18   1.399584 A    
C19   C21   1.411178 A    
O4    Cu2   1.957389 S    
C43   C81   1.518648 S    
C76   H46   1.105255 S    
C20   C22   1.410655 A    
C59   C69   1.517264 S    
C73   N5    1.157227 T    
C51   C55   1.400225 A    
C75   H45   1.105395 S    
C22   C24   1.413913 A    
N1    C7    1.363106 A    
C36   C38   1.419144 A    
C3    C23   1.465111 S    
N2    C8    1.363132 A    
C11   C13   1.423156 A    
C49   C65   1.506961 S    
O2    Cu2   1.959455 S    
C19   C73   1.448294 S    
C70   H35   1.106958 S    
C5    C13   1.419674 A    
O7    C4    1.299424 A    
C55   C56   1.421039 A    
C54   C60   1.437059 A    
O5    Cu1   1.939949 S    
C50   C66   1.508773 S    
C16   H2    1.083818 S    
C14   C17   1.426082 A    
C63   H14   1.111092 S    
C62   H11   1.110292 S    
C67   H25   1.109728 S    
C71   H38   1.110105 S    
C32   C42   1.397955 A    
C65   H21   1.101581 S    
C31   C33   1.388483 A    
C79   H55   1.104475 S    
C28   C78   1.504995 S    
C25   C27   1.397070 A    
C35   C79   1.518455 S    
C26   C28   1.397155 A    
N2    C29   1.438118 S    
C72   H41   1.110080 S    
