data_mof_unit_33088.cif
_audit_creation_date              2013-03-05T16:02:16-0500
_audit_creation_method            fapswitch 2.2
_symmetry_space_group_name_H-M    P1
_symmetry_Int_Tables_number       1
_space_group_crystal_system       triclinic
_cell_length_a                    22.011424
_cell_length_b                    6.909885
_cell_length_c                    14.463263
_cell_angle_alpha                 89.99762
_cell_angle_beta                  102.844009
_cell_angle_gamma                 89.996951
_cell_volume                      2144.7686653

loop_
_atom_site_label
_atom_site_type_symbol
_atom_site_description
_atom_site_fract_x
_atom_site_fract_y
_atom_site_fract_z
_atom_type_partial_charge
O1    O     O_R   0.835850 0.638310 0.002120 -0.587214
O2    O     O_R   0.164150 0.361690 0.997880 -0.586768
O3    O     O_R   0.664150 0.138310 0.997880 -0.587434
O4    O     O_R   0.335850 0.861690 0.002120 -0.586759
O5    O     O_R   0.717530 0.306070 0.861970 -0.569396
O6    O     O_R   0.282470 0.693930 0.138030 -0.569242
O7    O     O_R   0.782470 0.806070 0.138030 -0.569469
O8    O     O_R   0.217530 0.193930 0.861970 -0.569289
C1    C     C_R   0.701142 0.476893 0.824434 1.029223
C2    C     C_R   0.298817 0.523079 0.175587 1.029408
C3    C     C_R   0.798866 0.976875 0.175561 1.029159
C4    C     C_R   0.201193 0.023095 0.824407 1.029420
O9    O     O_R   0.838690 0.308440 0.993250 -0.587719
O10   O     O_R   0.161310 0.691560 0.006750 -0.588142
O11   O     O_R   0.661310 0.808440 0.006750 -0.587530
O12   O     O_R   0.338690 0.191560 0.993250 -0.588204
O13   O     O_R   0.786170 0.140510 0.130090 -0.580930
O14   O     O_R   0.213830 0.859490 0.869910 -0.581731
O15   O     O_R   0.713830 0.640510 0.869910 -0.581137
O16   O     O_R   0.286170 0.359490 0.130090 -0.581685
C5    C     C_R   0.864526 0.478027 0.991875 1.039790
C6    C     C_R   0.135493 0.521977 0.008221 1.040129
C7    C     C_R   0.635476 0.978033 0.008140 1.039858
C8    C     C_R   0.364502 0.021967 0.991756 1.040166
O17   O     O_3   0.732630 0.472520 0.044740 -0.257854
O18   O     O_3   0.267370 0.527480 0.955260 -0.257717
O19   O     O_3   0.767370 0.972520 0.955260 -0.257840
O20   O     O_3   0.232630 0.027480 0.044740 -0.257721
V1    V     V_3+5 0.753220 0.196740 0.991700 1.278233
V2    V     V_3+5 0.246780 0.803260 0.008300 1.278078
V3    V     V_3+5 0.746780 0.696740 0.008300 1.278281
V4    V     V_3+5 0.253220 0.303260 0.991700 1.278058
C9    C     C_R   0.547731 0.983357 0.833568 -0.314798
C10   C     C_R   0.452243 0.017703 0.166286 -0.314844
C11   C     C_R   0.952276 0.483671 0.166444 -0.314734
C12   C     C_R   0.047733 0.517753 0.833694 -0.314883
C13   C     C_R   0.508998 0.981360 0.743928 -0.132155
C14   C     C_R   0.490970 0.019823 0.255918 -0.132398
C15   C     C_R   0.991011 0.481970 0.256084 -0.132140
C16   C     C_R   0.008993 0.519999 0.744069 -0.132426
C17   C     C_R   0.444254 0.984837 0.733564 0.234293
C18   C     C_R   0.555701 0.015430 0.266285 0.235181
C19   C     C_R   0.055755 0.485500 0.266443 0.234240
C20   C     C_R   0.944263 0.515600 0.733722 0.235116
C21   C     C_R   0.419452 0.994181 0.815715 0.212407
C22   C     C_R   0.580512 0.005285 0.184165 0.212278
C23   C     C_R   0.080554 0.494594 0.184281 0.212403
C24   C     C_R   0.919466 0.505467 0.815850 0.212248
C25   C     C_R   0.458269 0.999510 0.908855 -0.054997
C26   C     C_R   0.541702 0.000398 0.091017 -0.055170
C27   C     C_R   0.041733 0.499700 0.091140 -0.054979
C28   C     C_R   0.958287 0.500441 0.908988 -0.055130
C29   C     C_R   0.524159 0.990796 0.916894 0.092249
C30   C     C_R   0.475816 0.009554 0.082971 0.092345
C31   C     C_R   0.975844 0.490947 0.083111 0.092199
C32   C     C_R   0.024173 0.509556 0.917019 0.092382
C33   C     C_R   0.433641 0.010930 0.993191 -0.228950
C34   C     C_R   0.566333 0.989086 0.006683 -0.229154
C35   C     C_R   0.066354 0.510967 0.006794 -0.228985
C36   C     C_R   0.933667 0.489100 0.993327 -0.229147
H1    H     H_    0.597288 0.979086 0.836505 0.143479
H2    H     H_    0.402691 0.022491 0.163349 0.143499
H3    H     H_    0.902720 0.479345 0.163511 0.143490
H4    H     H_    0.097284 0.522558 0.836619 0.143459
C37   C     C_R   0.171816 0.011009 0.720744 -0.150437
C38   C     C_R   0.828395 0.988886 0.279170 -0.150939
C39   C     C_R   0.328215 0.510908 0.279242 -0.150419
C40   C     C_R   0.671645 0.488955 0.720814 -0.150776
C41   C     C_R   0.181952 0.948459 0.559424 -0.140201
C42   C     C_R   0.818234 0.048155 0.440740 -0.139183
C43   C     C_R   0.318099 0.448185 0.440558 -0.140192
C44   C     C_R   0.681779 0.549315 0.559316 -0.139290
C45   C     C_R   0.207957 0.964893 0.655527 -0.029900
C46   C     C_R   0.792108 0.030408 0.344750 -0.031168
C47   C     C_R   0.292066 0.465059 0.344483 -0.029997
C48   C     C_R   0.707885 0.531848 0.655331 -0.030877
C49   C     C_R   0.106920 0.031666 0.686781 -0.287298
C50   C     C_R   0.893458 0.972463 0.312766 -0.287044
C51   C     C_R   0.393133 0.531036 0.313159 -0.287274
C52   C     C_R   0.606624 0.471320 0.687128 -0.287082
C53   C     C_R   0.078412 0.006490 0.588252 0.131788
C54   C     C_R   0.921977 0.996945 0.411343 0.129594
C55   C     C_R   0.421655 0.505640 0.411672 0.131547
C56   C     C_R   0.578097 0.496072 0.588570 0.130001
C57   C     C_R   0.117910 0.968405 0.525210 0.171186
C58   C     C_R   0.882427 0.032421 0.474602 0.172018
C59   C     C_R   0.382160 0.467610 0.474727 0.171338
C60   C     C_R   0.617625 0.532371 0.525369 0.171661
C61   C     C_R   0.012497 0.015392 0.549894 0.077496
C62   C     C_R   0.987920 0.988911 0.449628 0.077507
C63   C     C_R   0.487574 0.514412 0.450014 0.077571
C64   C     C_R   0.512161 0.487729 0.550267 0.077737
C65   C     C_R   0.030098 0.957332 0.390931 -0.192591
C66   C     C_R   0.970321 0.046161 0.608660 -0.194666
C67   C     C_R   0.469993 0.456001 0.608962 -0.192869
C68   C     C_R   0.529743 0.545465 0.391264 -0.194319
C69   C     C_R   0.093621 0.948405 0.428143 -0.038394
C70   C     C_R   0.906764 0.053106 0.571613 -0.035937
C71   C     C_R   0.406466 0.447278 0.571773 -0.038338
C72   C     C_R   0.593292 0.552880 0.428344 -0.036087
H5    H     H_    0.124285 0.927469 0.379836 0.173132
H6    H     H_    0.876100 0.072351 0.620055 0.173018
H7    H     H_    0.375809 0.426373 0.620092 0.173154
H8    H     H_    0.623953 0.572506 0.379928 0.173218
H9    H     H_    0.920157 0.943444 0.260279 0.114644
H10   H     H_    0.080309 0.064312 0.738969 0.114649
H11   H     H_    0.579954 0.441223 0.739534 0.114639
H12   H     H_    0.419749 0.563462 0.260949 0.114636
H13   H     H_    0.743201 0.051667 0.323649 0.231238
H14   H     H_    0.256651 0.939259 0.676972 0.230008
H15   H     H_    0.756739 0.554315 0.676516 0.230829
H16   H     H_    0.243344 0.439927 0.323075 0.230037
H17   H     H_    0.212220 0.915653 0.511678 0.169073
H18   H     H_    0.787880 0.078016 0.488723 0.168308
H19   H     H_    0.287829 0.415517 0.488320 0.168936
H20   H     H_    0.712101 0.580095 0.511399 0.168469
H21   H     H_    0.015653 0.940125 0.315257 0.126676
H22   H     H_    0.984772 0.062957 0.684357 0.126994
H23   H     H_    0.484445 0.438734 0.684633 0.126700
H24   H     H_    0.515290 0.562323 0.315570 0.126941
N1    N     N_R   0.596442 0.025491 0.359559 0.239757
O21   O     O_R   0.648902 0.931702 0.379331 -0.419389
O22   O     O_R   0.581184 0.127815 0.426212 -0.431862
N2    N     N_R   0.403505 0.974423 0.640283 0.239463
O23   O     O_R   0.350760 0.066705 0.620658 -0.418056
O24   O     O_R   0.418994 0.873048 0.573507 -0.431855
N3    N     N_R   0.903502 0.525749 0.640464 0.239671
O25   O     O_R   0.851045 0.431955 0.620700 -0.418642
O26   O     O_R   0.918730 0.628219 0.573831 -0.432006
N4    N     N_R   0.096507 0.475361 0.359731 0.239434
O27   O     O_R   0.149252 0.567627 0.379275 -0.418041
O28   O     O_R   0.081029 0.374211 0.426591 -0.431873
C73   C     C_1   0.537746 0.978856 0.663495 0.216233
N5    N     N_1   0.561171 0.976419 0.599448 -0.012956
C74   C     C_1   0.462232 0.023117 0.336358 0.216020
N6    N     N_1   0.438818 0.026169 0.400411 -0.013340
C75   C     C_1   0.962264 0.479712 0.336518 0.216337
N7    N     N_1   0.938837 0.477467 0.400565 -0.012859
C76   C     C_1   0.037716 0.523632 0.663620 0.216121
N8    N     N_1   0.061120 0.526983 0.599560 -0.013302
N9    N     N_R   0.354089 0.986571 0.803238 0.201643
O29   O     O_R   0.322427 0.147081 0.792655 -0.426023
O30   O     O_R   0.327244 0.820640 0.809193 -0.438464
N10   N     N_R   0.645900 0.011112 0.196704 0.201557
O31   O     O_R   0.673282 0.176557 0.191862 -0.438229
O32   O     O_R   0.677092 0.849704 0.206652 -0.425925
N11   N     N_R   0.145917 0.486974 0.196758 0.201645
O33   O     O_R   0.177573 0.647485 0.207279 -0.425825
O34   O     O_R   0.172771 0.321020 0.190884 -0.438584
N12   N     N_R   0.854085 0.511788 0.803335 0.201572
O35   O     O_R   0.826843 0.677389 0.808421 -0.438286
O36   O     O_R   0.822761 0.350644 0.793163 -0.425802

loop_
_geom_bond_atom_site_label_1
_geom_bond_atom_site_label_2
_geom_bond_distance
_ccdc_geom_bond_type
C40   C52   1.410878 A    
C7    C34   1.519314 S    
C71   H7    1.083654 S    
C15   C75   1.442661 S    
C20   N3    1.446077 S    
O1    C5    1.299438 A    
C29   C34   1.418575 A    
C24   N12   1.410666 S    
O19   V1    1.687665 S    
O13   V1    2.009420 S    
O3    C7    1.299468 A    
N11   O33   1.300675 A    
C10   H2    1.082577 S    
C44   C48   1.385074 A    
O4    V2    2.023061 S    
O15   V3    2.009467 S    
C46   H13   1.061837 S    
C25   C33   1.442882 A    
C74   N6    1.156109 T    
C2    C39   1.497342 S    
C42   H18   1.084782 S    
O18   V4    1.687655 S    
C52   H11   1.077138 S    
C41   H17   1.084763 S    
C47   H16   1.062335 S    
C26   C30   1.430294 A    
C50   H9    1.077123 S    
C17   N2    1.446344 S    
O9    V1    2.029036 S    
C49   H10   1.077172 S    
N11   O34   1.301477 A    
C14   C18   1.399487 A    
N9    O30   1.301484 A    
C11   C15   1.384374 A    
O4    C8    1.299557 A    
C67   C71   1.383424 A    
C66   C70   1.383213 A    
C38   C46   1.398842 A    
C16   C76   1.442656 S    
O1    V3    2.023021 S    
C37   C45   1.399179 A    
O17   V1    2.140058 S    
O2    V4    2.023023 S    
C18   C22   1.415003 A    
C61   C66   1.407219 A    
O3    V1    2.023063 S    
C12   C16   1.384284 A    
C28   C36   1.442810 A    
C63   C68   1.407227 A    
C1    O15   1.306609 A    
C72   H8    1.083666 S    
C2    O16   1.306489 A    
C8    C33   1.519286 S    
O2    C6    1.299551 A    
C41   C45   1.385226 A    
O14   V2    2.009419 S    
C21   C25   1.426309 A    
C16   C20   1.399504 A    
C59   C71   1.393624 A    
C3    C38   1.497301 S    
C52   C56   1.434399 A    
C53   C61   1.434837 A    
O11   C7    1.304625 A    
O12   C8    1.304584 A    
C31   C36   1.418570 A    
C66   H22   1.076315 S    
C21   N9    1.410614 S    
C65   H21   1.076308 S    
O10   V2    2.029034 S    
O20   V4    2.140044 S    
C44   C60   1.393067 A    
O7    C3    1.315629 A    
O5    V1    2.013186 S    
C9    C29   1.415030 A    
C38   C50   1.410879 A    
C23   N11   1.410625 S    
C43   C47   1.385205 A    
O7    V3    2.013277 S    
C11   C31   1.415015 A    
C26   C34   1.442855 A    
C45   H14   1.062341 S    
C37   C49   1.410715 A    
C5    C36   1.519290 S    
N10   O32   1.300762 A    
C6    C35   1.519297 S    
C23   C27   1.426317 A    
C67   H23   1.076309 S    
C70   H6    1.083691 S    
O19   V3    2.140043 S    
C64   C67   1.407316 A    
C9    C13   1.384376 A    
O8    V4    2.013276 S    
N4    O28   1.298513 A    
N3    O26   1.298471 A    
C42   C46   1.385019 A    
C12   C32   1.415057 A    
C50   C54   1.434414 A    
C4    C37   1.497342 S    
C49   C53   1.434321 A    
O8    C4    1.315737 A    
C43   H19   1.084763 S    
C14   C74   1.442700 S    
O11   V3    2.028957 S    
N1    O21   1.299316 A    
C60   C72   1.393546 A    
C43   C59   1.393125 A    
O6    V2    2.013188 S    
O18   V2    2.140057 S    
C73   N5    1.156103 T    
N12   O36   1.300724 A    
C27   C35   1.442882 A    
N3    O25   1.299363 A    
C42   C58   1.393017 A    
C65   C69   1.383455 A    
C63   C64   1.442363 A    
C41   C57   1.393133 A    
C62   C65   1.407341 A    
N2    O24   1.298506 A    
O16   V4    2.009467 S    
C44   H20   1.084741 S    
C3    O13   1.306634 A    
C10   C14   1.384246 A    
O17   V3    1.687656 S    
C68   H24   1.076321 S    
C19   N4    1.446352 S    
C56   C60   1.417428 A    
O5    C1    1.315658 A    
N10   O31   1.301511 A    
C55   C59   1.417380 A    
O6    C2    1.315776 A    
C22   N10   1.410662 S    
C76   N8    1.156107 T    
C10   C30   1.415065 A    
O12   V4    2.028959 S    
C55   C63   1.434869 A    
C75   N7    1.156110 T    
C22   C26   1.426271 A    
C54   C62   1.434994 A    
C32   C35   1.418502 A    
O10   C6    1.304584 A    
O20   V2    1.687666 S    
N4    O27   1.299398 A    
C1    C40   1.497309 S    
C54   C58   1.417462 A    
N9    O29   1.300669 A    
O9    C5    1.304633 A    
C51   C55   1.434337 A    
C40   C48   1.398935 A    
C48   H15   1.062028 S    
C25   C29   1.430265 A    
C68   C72   1.383255 A    
C51   H12   1.077181 S    
C27   C31   1.430267 A    
C13   C17   1.399641 A    
C58   C70   1.393528 A    
C13   C73   1.442678 S    
C53   C57   1.417363 A    
N1    O22   1.298465 A    
C57   C69   1.393637 A    
C28   C32   1.430290 A    
C24   C28   1.426264 A    
C39   C47   1.399167 A    
C15   C19   1.399653 A    
C9    H1    1.082582 S    
C4    O14   1.306527 A    
C17   C21   1.415059 A    
N12   O35   1.301493 A    
C11   H3    1.082584 S    
C56   C64   1.434987 A    
C61   C62   1.442358 A    
C12   H4    1.082579 S    
C19   C23   1.415070 A    
C39   C51   1.410753 A    
C69   H5    1.083659 S    
C20   C24   1.414925 A    
C18   N1    1.446072 S    
N2    O23   1.299403 A    
C30   C33   1.418479 A    
