data_mof_unit_21559.cif
_audit_creation_date              2012-12-11T15:49:18-0500
_audit_creation_method            fapswitch 2.2
_symmetry_space_group_name_H-M    P1
_symmetry_Int_Tables_number       1
_space_group_crystal_system       triclinic
_cell_length_a                    8.239099
_cell_length_b                    18.992927
_cell_length_c                    27.023043
_cell_angle_alpha                 95.158604
_cell_angle_beta                  92.550096
_cell_angle_gamma                 85.770523
_cell_volume                      4197.04026856

loop_
_atom_site_label
_atom_site_type_symbol
_atom_type_description
_atom_site_fract_x
_atom_site_fract_y
_atom_site_fract_z
_atom_type_partial_charge
Ba1   Ba    Ba6+2 0.854000 0.466860 0.523710 1.661761
Ba2   Ba    Ba6+2 0.335820 0.533080 0.476290 1.648503
Br1   Br    Br    0.003249 0.894856 0.442341 -0.608882
C1    C     C_3   0.640771 0.217079 0.660447 -0.370658
C2    C     C_R   0.885847 0.565214 0.173693 0.577535
C3    C     C_2   0.759466 0.542114 0.271917 -0.097576
C4    C     C_3   0.154640 0.310661 0.661693 0.296354
C5    C     C_3   0.741808 0.567249 0.326091 -0.053036
C6    C     C_1   0.982810 0.490040 0.343492 0.022310
C7    C     C_2   0.029638 0.492688 0.296906 -0.150756
C8    C     C_2   0.908822 0.515955 0.256518 0.181362
C9    C     C_R   0.028977 0.508622 0.101749 -0.081691
C10   C     C_R   0.102874 0.458440 0.132547 -0.026712
C11   C     C_R   0.218458 0.407214 0.112258 -0.066100
C12   C     C_3   0.642509 0.288557 0.639288 0.351724
C13   C     C_R   0.917786 0.561578 0.122537 -0.025910
C14   C     C_2   0.843395 0.520978 0.359415 -0.259424
C15   C     C_2   0.352170 0.483486 0.640969 -0.278374
C16   C     C_3   0.119699 0.296888 0.714525 -0.347446
C17   C     C_R   0.224772 0.452509 0.979018 0.019671
C18   C     C_R   0.026478 0.554722 0.968387 0.020432
C19   C     C_R   0.145203 0.502861 0.948375 0.048752
C20   C     C_R   0.341646 0.402010 0.956965 -0.101235
C21   C     C_R   0.377038 0.400477 0.906895 -0.061581
C22   C     C_R   0.299674 0.449727 0.876318 -0.031391
C23   C     C_3   0.513473 0.644536 0.626507 0.306499
C24   C     C_R   0.184938 0.501457 0.897106 -0.078789
C25   C     C_R   0.110102 0.551932 0.866621 -0.031366
C26   C     C_R   0.154725 0.551697 0.816609 0.588305
C27   C     C_R   0.334777 0.448000 0.825314 0.580490
C28   C     C_3   0.188449 0.319541 0.421597 0.330919
C29   C     C_2   0.461783 0.488204 0.728964 -0.076869
C30   C     C_3   0.502104 0.490877 0.674760 -0.054197
C31   C     C_1   0.212127 0.512919 0.656491 0.032970
C32   C     C_2   0.173743 0.511633 0.703631 -0.109992
C33   C     C_2   0.304790 0.498739 0.743364 0.195358
C34   C     C_3   0.508668 0.670206 0.681524 -0.369163
C35   C     C_R   0.185284 0.454183 0.030271 0.020456
C36   C     C_R   0.067512 0.506418 0.050325 0.048031
C37   C     C_R   0.988334 0.556792 0.019654 0.019984
C38   C     C_R   0.259735 0.405414 0.062613 -0.101582
C39   C     C_R   0.841043 0.610825 0.091927 -0.059780
C40   C     C_3   0.207944 0.239614 0.409675 -0.368905
C41   C     C_R   0.950206 0.603194 0.936096 -0.100205
C42   C     C_R   0.992193 0.602110 0.886719 -0.061160
C43   C     C_R   0.873995 0.608206 0.041766 -0.102624
C44   C     C_R   0.400639 0.300539 0.525307 -0.286165
C45   C     C_3   0.050820 0.686250 0.338888 0.361555
C46   C     C_R   0.541469 0.278216 0.499961 0.081956
C47   C     C_R   0.593119 0.205915 0.495324 -0.114704
C48   C     C_R   0.504206 0.155841 0.515992 -0.021639
C49   C     C_R   0.360249 0.179247 0.540674 -0.133978
C50   C     C_R   0.306919 0.251326 0.544153 0.002458
C51   C     C_R   0.565576 0.036352 0.548626 -0.073002
C52   C     C_3   0.016383 0.683521 0.578531 0.347055
C53   C     C_R   0.616596 0.964183 0.541514 -0.073112
C54   C     C_R   0.657074 0.932836 0.494040 0.095193
C55   C     C_R   0.642166 0.975097 0.453740 -0.008178
C56   C     C_3   0.051358 0.709385 0.286541 -0.353818
C57   C     C_R   0.594065 0.047489 0.461008 -0.061605
C58   C     C_R   0.555512 0.078944 0.508542 0.063227
C59   C     C_R   0.854249 0.830112 0.462464 0.194796
C60   C     C_R   0.896745 0.756344 0.456931 -0.004365
C61   C     C_R   0.658455 0.734312 0.500896 0.048901
C62   C     C_R   0.613468 0.806915 0.506218 -0.130277
C63   C     C_R   0.708472 0.855695 0.486498 -0.032847
C64   C     C_3   0.078747 0.757565 0.582870 0.284619
C65   C     C_R   0.794939 0.709412 0.474505 -0.345559
C66   C     C_3   0.670991 0.349634 0.364634 0.778208
C67   C     C_3   0.520038 0.721787 0.357210 0.354000
C68   C     C_3   0.527511 0.354907 0.326101 -0.332458
C69   C     C_3   0.113349 0.843848 0.649165 0.285922
C70   C     C_3   0.161440 0.904459 0.619495 -0.216105
C71   C     C_3   0.286585 0.948934 0.649150 -0.490264
C72   C     C_3   0.855627 0.332020 0.296986 0.255280
C73   C     C_3   0.839312 0.268350 0.258281 -0.195376
C74   C     C_3   0.909314 0.280957 0.208707 -0.449973
C75   C     C_3   0.477750 0.791970 0.335120 -0.334512
C76   C     C_R   0.060025 0.460272 0.183028 0.583711
H1    H     H_    0.747562 0.286453 0.614622 0.100020
H2    H     H_    0.766000 0.200176 0.674481 0.130365
H3    H     H_    0.522286 0.305228 0.301541 0.084800
H4    H     H_    0.532809 0.400817 0.303816 0.077229
H5    H     H_    0.410852 0.360522 0.344855 0.133325
H6    H     H_    0.527619 0.298219 0.617449 -0.043722
H7    H     H_    0.600258 0.176828 0.630759 0.069101
H8    H     H_    0.387914 0.633663 0.612901 0.016750
H9    H     H_    0.594874 0.595323 0.621969 0.036415
H10   H     H_    0.440682 0.722779 0.686354 0.126472
H11   H     H_    0.446433 0.632877 0.702125 0.069426
H12   H     H_    0.293322 0.226330 0.379059 0.120016
H13   H     H_    0.634561 0.674665 0.697427 0.133836
H14   H     H_    0.555078 0.220572 0.691678 0.134779
H15   H     H_    0.184356 0.334226 0.741175 0.113001
H16   H     H_    0.120192 0.633846 0.339659 0.069672
H17   H     H_    0.922571 0.681509 0.348185 -0.070733
H18   H     H_    0.178454 0.713276 0.275320 0.145988
H19   H     H_    0.992546 0.669842 0.260253 0.124531
H20   H     H_    0.982696 0.761900 0.284792 0.128370
H21   H     H_    0.654699 0.712421 0.357776 -0.065855
H22   H     H_    0.478115 0.726239 0.395940 0.078738
H23   H     H_    0.256386 0.213267 0.442676 0.060969
H24   H     H_    0.539744 0.834781 0.357441 0.073655
H25   H     H_    0.344623 0.805286 0.335141 0.168718
H26   H     H_    0.113468 0.366578 0.656641 0.068810
H27   H     H_    0.518662 0.788642 0.296394 0.117258
H28   H     H_    0.156063 0.480293 0.288498 0.162514
H29   H     H_    0.279432 0.368246 0.134984 0.114506
H30   H     H_    0.561707 0.482908 0.756284 0.112982
H31   H     H_    0.467353 0.360396 0.892238 0.121085
H32   H     H_    0.408872 0.362321 0.977278 0.067101
H33   H     H_    0.351104 0.364642 0.050895 0.066134
H34   H     H_    0.088046 0.219134 0.398160 0.152167
H35   H     H_    0.659789 0.554399 0.245867 0.130472
H36   H     H_    0.753038 0.651821 0.106635 0.122870
H37   H     H_    0.856665 0.643255 0.947543 0.068171
H38   H     H_    0.287730 0.302469 0.657013 -0.017884
H39   H     H_    0.930187 0.640999 0.864062 0.120611
H40   H     H_    0.047509 0.519746 0.713638 0.143137
H41   H     H_    0.807743 0.648203 0.021624 0.068619
H42   H     H_    0.818404 0.526631 0.398729 0.083516
H43   H     H_    0.357705 0.452004 0.605512 0.068300
H44   H     H_    0.506723 0.825521 0.526953 0.086213
H45   H     H_    0.882199 0.687810 0.575646 -0.000192
H46   H     H_    0.625652 0.932855 0.573237 0.076618
H47   H     H_    0.536460 0.059207 0.585600 0.059242
H48   H     H_    0.699986 0.188464 0.474374 0.099500
H49   H     H_    0.667031 0.951952 0.416505 0.097814
H50   H     H_    0.986822 0.304946 0.720369 0.150139
H51   H     H_    0.584241 0.078775 0.429268 0.068795
H52   H     H_    0.286183 0.141370 0.554897 0.084558
H53   H     H_    0.829629 0.653159 0.471441 0.071228
H54   H     H_    0.357703 0.355876 0.527228 0.068373
H55   H     H_    0.162203 0.241613 0.721544 0.117117
H56   H     H_    0.064324 0.655278 0.543852 -0.013635
H57   H     H_    0.308477 0.339529 0.432204 -0.019574
H58   H     H_    0.105475 0.331479 0.452889 0.077188
H59   H     H_    0.223177 0.811615 0.662321 0.037605
H60   H     H_    0.052825 0.867819 0.683194 0.079143
H61   H     H_    0.215833 0.882546 0.583975 0.126104
H62   H     H_    0.050758 0.939219 0.610545 0.140086
H63   H     H_    0.235568 0.973417 0.684463 0.138010
H64   H     H_    0.320162 0.991850 0.626980 0.147036
H65   H     H_    0.398702 0.915060 0.657748 0.141194
H66   H     H_    0.985509 0.344057 0.298849 0.119810
H67   H     H_    0.049351 0.782235 0.547662 -0.002778
H68   H     H_    0.787575 0.380361 0.284603 -0.022156
H69   H     H_    0.905534 0.220694 0.272532 0.138369
H70   H     H_    0.709620 0.257170 0.251603 0.109457
H71   H     H_    0.849883 0.330047 0.194449 0.153727
H72   H     H_    0.887337 0.235367 0.180930 0.128295
H73   H     H_    0.043161 0.285408 0.213337 0.179229
H74   H     H_    0.214045 0.751619 0.587545 0.019754
H75   H     H_    0.697520 0.403404 0.381294 -0.093008
N1    N     N_R   0.951122 0.513264 0.203706 -0.416838
N2    N     N_R   0.264488 0.499365 0.795837 -0.423751
O1    O     O_2   0.913240 0.537010 0.617740 -0.463921
O2    O     O_2   0.236903 0.748881 0.463333 -0.461112
O3    O     O_3   0.124269 0.736742 0.371943 -0.565059
O4    O     O_3   0.145240 0.536960 0.557560 -0.487500
O5    O     O_3   0.557280 0.416300 0.475860 -0.491186
O6    O     O_2   0.376710 0.670070 0.522470 -0.476636
O7    O     O_3   0.573633 0.697440 0.601028 -0.632298
O8    O     O_2   0.414813 0.530568 0.323086 -0.498437
O9    O     O_3   0.443075 0.667410 0.328459 -0.589143
O10   O     O_2   0.119558 0.414083 0.208241 -0.635109
O11   O     O_2   0.426837 0.400228 0.807170 -0.596714
O12   O     O_3   0.618501 0.307353 0.399956 -0.648985
O13   O     O_2   0.801994 0.615986 0.191529 -0.617309
O14   O     O_2   0.097435 0.599098 0.791871 -0.601469
O15   O     O_3   0.669960 0.410470 0.588880 -0.490282
O16   O     O_2   0.836553 0.445291 0.672529 -0.494219
O17   O     O_3   0.066233 0.650367 0.621665 -0.625831
O18   O     O_3   0.654724 0.341860 0.678454 -0.590109
O19   O     O_2   0.812980 0.329910 0.477500 -0.458277
O20   O     O_3   0.078660 0.374870 0.564770 -0.489515
O21   O     O_2   0.969096 0.249272 0.535057 -0.482436
O22   O     O_3   0.001284 0.800490 0.621809 -0.635299
O23   O     O_3   0.071273 0.263770 0.628183 -0.599684
O24   O     O_3   0.814345 0.313267 0.344412 -0.645067
O25   O     O_2   0.276450 0.462960 0.382230 -0.470576
O26   O     O_3   0.044470 0.462980 0.442430 -0.486694
O27   O     O_3   0.519740 0.589470 0.411120 -0.472040
O28   O     O_3   0.124959 0.349912 0.379034 -0.620965
O29   O     O_3   0.632420 0.583650 0.524140 -0.472851
O30   O     O_3   0.111040 0.625070 0.435230 -0.498456
P1    P     P_3+3 0.082480 0.557670 0.610090 1.003598
P2    P     P_3+3 0.635220 0.340300 0.462910 1.001986
P3    P     P_3+3 0.106507 0.283273 0.567672 0.939972
P4    P     P_3+3 0.107220 0.442270 0.389900 0.994186
P5    P     P_3+3 0.092640 0.717299 0.432608 1.004252
P6    P     P_3+3 0.666138 0.423520 0.653776 0.974838
P7    P     P_3+3 0.562561 0.672569 0.537116 0.955407
P8    P     P_3+3 0.529016 0.586316 0.346539 0.959074

loop_
_geom_bond_atom_site_label_1
_geom_bond_atom_site_label_2
_ccdc_geom_bond_type
C42   H39   S    
C16   H50   S    
C71   H64   S    
C10   C76   A    
Ba1   O20   S    
C55   H49   S    
O12   P2    S    
C45   H16   S    
C28   O28   S    
C67   C75   S    
C56   H20   S    
C70   C71   S    
C4    H38   S    
C32   H40   S    
C32   C33   S    
C48   C58   S    
C69   O22   S    
C54   C63   S    
O9    P8    S    
Ba2   O6    S    
O20   P3    S    
C67   H22   S    
C44   C46   A    
C70   H62   S    
C72   H66   S    
C16   H55   S    
C37   C43   A    
C51   H47   S    
Ba1   O19   S    
C28   C40   S    
C34   H11   S    
C30   P6    S    
C61   C65   A    
C41   H37   S    
C25   C26   A    
C27   O11   D    
C31   C32   D    
O5    P2    S    
C66   O24   S    
C39   C43   A    
C35   C36   A    
C52   H56   S    
Br1   C59   S    
C1    H7    S    
O7    P7    S    
C55   C57   A    
C23   O7    S    
O27   P8    S    
C53   C54   A    
Ba2   O5    S    
C65   H53   S    
Ba1   Ba2   S    
Ba2   O26   S    
O30   P5    S    
C66   C68   S    
C52   O17   S    
C2    C13   A    
O19   P2    D    
C52   H45   S    
C69   H60   S    
C3    H35   S    
C1    H2    S    
C9    C13   A    
C23   H8    S    
C38   H33   S    
C20   C21   A    
C4    H26   S    
C5    P8    S    
C26   O14   D    
C28   H58   S    
C6    C7    D    
C34   H13   S    
C8    N1    S    
C44   C50   A    
C68   H3    S    
C11   H29   S    
C71   H63   S    
Ba1   O5    S    
C10   C11   A    
C44   H54   S    
C74   H72   S    
C7    H28   S    
C74   H73   S    
C67   H21   S    
C66   O12   S    
C68   H4    S    
Ba1   P1    S    
Ba2   O4    S    
C45   O3    S    
C51   C53   A    
C25   C42   A    
O21   P3    D    
C29   H30   S    
C59   C63   A    
C75   H25   S    
C48   C49   A    
O3    P5    S    
C21   H31   S    
C21   C22   A    
C35   C38   A    
C67   O9    S    
C57   H51   S    
C3    C8    D    
C69   C70   S    
C3    C5    S    
C72   H68   S    
C2    N1    Am   
Ba1   O15   S    
O16   P6    D    
C57   C58   A    
Ba2   O25   S    
C72   C73   S    
Ba2   O30   S    
C59   C60   A    
C18   C41   A    
C17   C35   A    
O25   P4    D    
C12   H1    S    
O23   P3    S    
C17   C20   A    
C61   P7    S    
C64   H67   S    
C47   C48   A    
C4    O23   S    
C53   H46   S    
C73   C74   S    
C72   O24   S    
C15   C31   D    
C75   H27   S    
C16   H15   S    
C15   H43   S    
C26   N2    Am   
C14   H42   S    
C51   C58   A    
C17   C19   A    
C62   C63   A    
C4    C16   S    
C19   C24   A    
C11   C38   A    
C56   H18   S    
O28   P4    S    
C6    P4    S    
C13   C39   A    
C36   C37   A    
C49   C50   A    
C33   N2    S    
C45   C56   S    
C68   H5    S    
Ba1   P2    S    
C6    C14   D    
C22   C27   A    
C71   H65   S    
C60   C65   A    
O17   P1    S    
C45   H17   S    
C12   O18   S    
C75   H24   S    
C49   H52   S    
Ba1   O4    S    
C41   C42   A    
Ba2   P4    S    
O29   P7    S    
C28   H57   S    
C64   O22   S    
C74   H71   S    
C52   C64   S    
Ba1   O26   S    
C29   C33   D    
C23   C34   S    
C70   H61   S    
Ba1   O29   S    
C43   H41   S    
C22   C24   A    
C20   H32   S    
C66   H75   S    
C12   H6    S    
C64   H74   S    
C61   C62   A    
C9    C36   A    
Ba1   O1    S    
Ba2   O29   S    
O2    P5    D    
C29   C30   S    
C5    C14   S    
C46   P2    S    
C54   C55   A    
C18   C37   A    
C73   H70   S    
C1    C12   S    
C60   P5    S    
O6    P7    D    
C27   N2    Am   
C34   H10   S    
O15   P6    S    
O8    P8    D    
Ba2   O27   S    
C62   H44   S    
C76   O10   D    
C31   P1    S    
C69   H59   S    
C15   C30   S    
C40   H12   S    
C40   H23   S    
O1    P1    D    
C7    C8    S    
C76   N1    Am   
C1    H14   S    
C39   H36   S    
C9    C10   A    
C73   H69   S    
C23   H9    S    
C46   C47   A    
C24   C25   A    
C56   H19   S    
C2    O13   D    
C47   H48   S    
O26   P4    S    
O4    P1    S    
C18   C19   A    
C50   P3    S    
C40   H34   S    
O18   P6    S    
