data_mof_unit_54261.cif
_audit_creation_date              2012-12-11T16:58:23-0500
_audit_creation_method            fapswitch 2.2
_symmetry_space_group_name_H-M    P1
_symmetry_Int_Tables_number       1
_space_group_crystal_system       triclinic
_cell_length_a                    16.930201
_cell_length_b                    7.275426
_cell_length_c                    16.797219
_cell_angle_alpha                 89.79689
_cell_angle_beta                  100.430274
_cell_angle_gamma                 89.513403
_cell_volume                      2034.6991749

loop_
_atom_site_label
_atom_site_type_symbol
_atom_type_description
_atom_site_fract_x
_atom_site_fract_y
_atom_site_fract_z
_atom_type_partial_charge
O1    O     O_R   0.413450 0.494370 0.415710 -0.534581
O2    O     O_R   0.586550 0.994370 0.584290 -0.535271
O3    O     O_R   0.578420 0.819350 0.429360 -0.537487
O4    O     O_R   0.421580 0.319350 0.570640 -0.535548
C1    C     C_R   0.604901 0.654601 0.414600 0.715280
C2    C     C_R   0.395718 0.155328 0.586442 0.708254
O5    O     O_R   0.413570 0.823780 0.406240 -0.544688
O6    O     O_R   0.586430 0.323780 0.593760 -0.542946
O7    O     O_R   0.420530 0.998740 0.561000 -0.535330
O8    O     O_R   0.579470 0.498740 0.439000 -0.536153
C3    C     C_R   0.385938 0.656180 0.383666 0.706133
C4    C     C_R   0.613955 0.154829 0.615947 0.706530
O9    O     O_3   0.502480 0.662320 0.550800 -0.378147
O10   O     O_3   0.497520 0.162320 0.449200 -0.378852
V1    V     V_3+5 0.499540 0.935370 0.490580 1.427086
V2    V     V_3+5 0.500460 0.435370 0.509420 1.432217
C5    C     C_R   0.742656 0.008259 0.687889 0.089359
C6    C     C_R   0.302664 0.487011 0.267765 0.086978
C7    C     C_R   0.683810 0.146339 0.683250 -0.126176
C8    C     C_R   0.317364 0.648076 0.314261 -0.114090
C9    C     C_R   0.693508 0.279058 0.744799 -0.187029
C10   C     C_R   0.257184 0.786744 0.302350 -0.188264
H1    H     H_    0.648575 0.386315 0.743840 0.149013
H2    H     H_    0.260586 0.899882 0.344504 0.150325
C11   C     C_R   0.756285 0.264981 0.812212 0.176004
C12   C     C_R   0.186954 0.767076 0.243040 0.159893
C13   C     C_R   0.815394 0.123514 0.816785 -0.147947
C14   C     C_R   0.179323 0.618803 0.188806 -0.123960
C15   C     C_R   0.807505 0.998057 0.752427 0.096520
C16   C     C_R   0.231891 0.470300 0.209514 0.063202
C17   C     C_3   0.801551 0.793032 0.755844 0.023646
C18   C     C_3   0.210649 0.298662 0.250590 0.033989
C19   C     C_3   0.731976 0.805100 0.685051 -0.420041
C20   C     C_3   0.292746 0.301419 0.302520 -0.418884
H3    H     H_    0.783312 0.746427 0.812658 0.156638
H4    H     H_    0.200725 0.179004 0.209252 0.147452
H5    H     H_    0.673974 0.761612 0.701064 0.169430
H6    H     H_    0.334878 0.198992 0.283789 0.166354
H7    H     H_    0.745057 0.745811 0.627900 0.196268
H8    H     H_    0.291985 0.300383 0.368532 0.196881
C21   C     C_R   0.331044 0.143454 0.635048 -0.084980
C22   C     C_R   0.669575 0.639072 0.366652 -0.091826
C23   C     C_R   0.165637 0.125228 0.861419 -0.136777
C24   C     C_R   0.833224 0.631415 0.139146 -0.142819
C25   C     C_R   0.301092 0.208476 0.846764 -0.148706
C26   C     C_R   0.718116 0.799527 0.172487 -0.147965
C27   C     C_R   0.243906 0.179699 0.895787 0.117724
C28   C     C_R   0.772806 0.769368 0.121209 0.172838
C29   C     C_R   0.146088 0.095498 0.776732 0.101425
C30   C     C_R   0.834805 0.520640 0.209867 0.115451
C31   C     C_R   0.207793 0.097977 0.728713 0.040048
C32   C     C_R   0.785879 0.570274 0.267590 0.035064
C33   C     C_R   0.284145 0.169269 0.763847 0.059577
C34   C     C_R   0.723894 0.703386 0.245122 0.061319
C35   C     C_R   0.343818 0.196973 0.716310 -0.186559
C36   C     C_R   0.666529 0.736931 0.294545 -0.180047
C37   C     C_R   0.259053 0.057177 0.602329 -0.177181
C38   C     C_R   0.734639 0.520754 0.392988 -0.187399
C39   C     C_R   0.198152 0.031329 0.647802 0.218817
C40   C     C_R   0.794529 0.492331 0.346672 0.211946
H9    H     H_    0.401378 0.254141 0.743267 0.119601
H10   H     H_    0.617551 0.833423 0.275270 0.125616
H11   H     H_    0.251346 0.003402 0.541331 0.143651
H12   H     H_    0.740653 0.456032 0.452030 0.143456
H13   H     H_    0.359985 0.257454 0.874216 0.157248
H14   H     H_    0.670762 0.901087 0.155562 0.154557
O11   O     O_R   0.920630 0.775410 0.061150 -0.519823
O12   O     O_R   0.079370 0.275410 0.938850 -0.525209
O13   O     O_R   0.086500 0.441450 0.093690 -0.531284
O14   O     O_R   0.913500 0.941450 0.906310 -0.532036
C41   C     C_R   0.112461 0.609341 0.117758 0.723702
C42   C     C_R   0.884889 0.110553 0.884994 0.769547
O15   O     O_R   0.921670 0.445960 0.070740 -0.516056
O16   O     O_R   0.078330 0.945960 0.929260 -0.533316
O17   O     O_R   0.913380 0.271130 0.915780 -0.519226
O18   O     O_R   0.086620 0.771130 0.084220 -0.533635
C43   C     C_R   0.895875 0.614957 0.086585 0.776740
C44   C     C_R   0.103363 0.114387 0.913368 0.751089
O19   O     O_3   0.997500 0.603030 0.949220 -0.368489
O20   O     O_3   0.002500 0.103030 0.050780 -0.361075
V3    V     V_3+5 0.000470 0.329940 0.009420 1.604713
V4    V     V_3+5 0.999530 0.829940 0.990580 1.581440
I1    I     I_    0.108935 0.842687 0.593425 -0.196428
I2    I     I_    0.902655 0.379736 0.415021 -0.170249
I3    I     I_    0.278871 0.228419 0.021843 -0.434891
I4    I     I_    0.750190 0.927519 0.012644 -0.339021
I5    I     I_    0.021587 0.120995 0.723755 -0.250877
I6    I     I_    0.885109 0.248188 0.213258 -0.226523
I7    I     I_    0.744747 0.436132 0.911538 -0.371945
I8    I     I_    0.079600 0.899278 0.260411 -0.243395
I9    I     I_    0.904099 0.651680 0.727049 -0.246986
I10   I     I_    0.121546 0.356911 0.325992 -0.252905

loop_
_geom_bond_atom_site_label_1
_geom_bond_atom_site_label_2
_ccdc_geom_bond_type
C1    C22   S    
C13   C15   A    
C5    C15   A    
C29   I5    S    
O11   C43   A    
O2    C4    A    
C22   C38   A    
C2    O7    A    
C23   C44   S    
O5    C3    A    
C19   H7    S    
C20   H8    S    
O12   V3    S    
C27   I3    S    
C24   C43   S    
C7    C9    A    
C39   I1    S    
C26   H14   S    
C41   O18   A    
C37   C39   A    
C38   C40   A    
C4    C7    S    
C25   C27   A    
O13   C41   A    
C21   C35   A    
C32   C40   A    
C22   C36   A    
C29   C31   A    
C2    C21   S    
O1    C3    A    
C30   C32   A    
C17   C19   S    
C6    C16   A    
C30   I6    S    
C36   H10   S    
O5    V1    S    
C25   C33   A    
O6    V2    S    
C38   H12   S    
C5    C19   S    
O16   V4    S    
C42   O17   A    
O15   V3    S    
C32   C34   A    
C37   H11   S    
C26   C28   A    
C33   C35   A    
O12   C44   A    
C34   C36   A    
C3    C8    S    
O4    C2    A    
O18   V4    S    
O17   V3    S    
C28   I4    S    
C19   H5    S    
C31   C33   A    
C18   C20   S    
O4    V2    S    
O6    C4    A    
C26   C34   A    
O1    V2    S    
O2    V1    S    
C6    C20   S    
C8    C10   A    
C17   I9    S    
C9    H1    S    
C25   H13   S    
C10   H2    S    
C14   C41   S    
C11   C13   A    
C18   H4    S    
O3    V1    S    
C24   C30   A    
C9    C11   A    
C20   H6    S    
C11   I7    S    
C23   C29   A    
O20   V3    S    
O3    C1    A    
O19   V4    S    
C12   I8    S    
C12   C14   A    
C14   C16   A    
O7    V1    S    
C21   C37   A    
C1    O8    A    
C15   C17   S    
O8    V2    S    
C16   C18   S    
C40   I2    S    
C18   I10   S    
C35   H9    S    
C17   H3    S    
C5    C7    A    
C6    C8    A    
O14   V4    S    
O13   V3    S    
C10   C12   A    
C31   C39   A    
O11   V4    S    
O16   C44   A    
O9    V2    S    
O15   C43   A    
O10   V1    S    
O14   C42   A    
C23   C27   A    
C13   C42   S    
C24   C28   A    
