data_mof_unit_65422.cif
_audit_creation_date              2012-12-10T20:15:52-0500
_audit_creation_method            fapswitch 2.2
_symmetry_space_group_name_H-M    P1
_symmetry_Int_Tables_number       1
_space_group_crystal_system       triclinic
_cell_length_a                    16.809622
_cell_length_b                    18.518076
_cell_length_c                    19.128911
_cell_angle_alpha                 90.131129
_cell_angle_beta                  91.422188
_cell_angle_gamma                 84.578167
_cell_volume                      5926.01672241

loop_
_atom_site_label
_atom_site_type_symbol
_atom_type_description
_atom_site_fract_x
_atom_site_fract_y
_atom_site_fract_z
_atom_type_partial_charge
C1    C     C_R   0.500523 0.500012 0.634106 1.008638
C2    C     C_R   0.500309 0.500031 0.365750 0.999080
C3    C     C_R   0.583815 0.515814 0.264142 0.352816
C4    C     C_R   0.588109 0.491521 0.738776 0.387776
C5    C     C_R   0.594243 0.514452 0.192413 -0.177619
C6    C     C_R   0.598050 0.490699 0.811011 -0.177457
C7    C     C_R   0.531769 0.497627 0.147887 -0.052092
C8    C     C_R   0.531039 0.497824 0.852868 -0.055528
C9    C     C_R   0.458581 0.482018 0.174311 -0.176947
C10   C     C_R   0.453827 0.506038 0.823345 -0.173247
C11   C     C_R   0.447320 0.483340 0.245964 0.376737
C12   C     C_R   0.443149 0.506691 0.751152 0.335576
C13   C     C_R   0.510346 0.499582 0.291060 -0.199072
C14   C     C_R   0.510460 0.499365 0.708959 -0.204860
C15   C     C_R   0.550554 0.432287 0.037540 -0.135106
C16   C     C_R   0.534544 0.563307 0.963547 -0.131064
C17   C     C_R   0.550511 0.430958 0.964970 0.099069
C18   C     C_R   0.534624 0.564683 0.036090 0.098641
C19   C     C_R   0.541059 0.497020 0.928136 0.032369
C20   C     C_R   0.541399 0.498561 0.072956 0.033762
C21   C     C_R   0.451854 0.276374 0.454228 0.390351
C22   C     C_R   0.550229 0.722414 0.544897 0.387748
C23   C     C_R   0.653169 0.489404 0.498229 0.993571
C24   C     C_R   0.346698 0.510734 0.499157 0.960562
C25   C     C_R   0.451162 0.200120 0.454381 0.252115
C26   C     C_R   0.551231 0.798634 0.545731 0.249915
C27   C     C_R   0.501040 0.157683 0.501574 -0.233880
C28   C     C_R   0.500024 0.842017 0.500174 -0.232489
C29   C     C_R   0.551237 0.193296 0.547403 0.247663
C30   C     C_R   0.448404 0.807310 0.454803 0.250118
C31   C     C_R   0.550034 0.269794 0.545608 0.402153
C32   C     C_R   0.449193 0.730863 0.455670 0.402642
C33   C     C_R   0.567773 0.031959 0.479016 -0.078629
C34   C     C_R   0.433768 0.967755 0.523682 -0.079192
C35   C     C_R   0.567265 0.956077 0.478175 -0.091924
C36   C     C_R   0.434249 0.043635 0.524462 -0.092738
C37   C     C_R   0.500232 0.923066 0.500446 0.231741
C38   C     C_R   0.501249 0.076628 0.502129 0.232608
C39   C     C_R   0.738723 0.482384 0.486854 -0.104697
C40   C     C_R   0.261498 0.520076 0.482936 -0.141347
C41   C     C_R   0.782687 0.538413 0.510646 -0.154306
C42   C     C_R   0.231265 0.474147 0.432750 -0.163827
C43   C     C_R   0.861465 0.539898 0.492175 -0.118539
C44   C     C_R   0.152944 0.486194 0.408729 -0.098331
C45   C     C_R   0.897211 0.485556 0.448876 0.108882
C46   C     C_R   0.102931 0.543321 0.436321 0.094854
C47   C     C_R   0.855085 0.427507 0.427850 -0.157083
C48   C     C_R   0.133239 0.591185 0.484577 -0.169924
C49   C     C_R   0.775760 0.425507 0.446047 0.425423
C50   C     C_R   0.212424 0.579956 0.508215 0.424989
C51   C     C_2   0.980842 0.484991 0.430456 -0.172228
C52   C     C_2   0.016632 0.546276 0.425554 -0.166247
H1    H     H_    0.755680 0.581823 0.542785 0.225176
H2    H     H_    0.268603 0.429781 0.410706 0.248176
H3    H     H_    0.555341 0.381678 0.066409 0.186285
H4    H     H_    0.526872 0.613860 0.934592 0.187594
H5    H     H_    0.619957 0.055968 0.461180 0.178593
H6    H     H_    0.381531 0.943771 0.541433 0.178832
H7    H     H_    0.619194 0.922964 0.459926 0.173547
H8    H     H_    0.382241 0.076773 0.542519 0.172759
H9    H     H_    0.982174 0.598846 0.428030 0.169685
H10   H     H_    0.015272 0.432340 0.428666 0.166016
H11   H     H_    0.883450 0.384572 0.395832 0.180045
H12   H     H_    0.094248 0.634933 0.506594 0.178476
H13   H     H_    0.130774 0.449586 0.370206 0.175460
H14   H     H_    0.894293 0.583196 0.512571 0.160997
H15   H     H_    0.650620 0.526819 0.171263 0.191210
H16   H     H_    0.657602 0.484623 0.834578 0.193663
H17   H     H_    0.410016 0.470218 0.139047 0.194812
H18   H     H_    0.402263 0.511576 0.856522 0.195126
N1    N     N_R   0.499990 0.310560 0.500020 -0.206911
N2    N     N_R   0.500010 0.689440 0.499980 -0.206506
O1    O     O_R   0.500000 0.439160 0.601820 -0.580902
O2    O     O_R   0.500000 0.560840 0.398180 -0.573418
O3    O     O_R   0.500030 0.560790 0.601820 -0.558713
O4    O     O_R   0.499970 0.439210 0.398180 -0.557169
O5    O     O_R   0.615780 0.432000 0.500010 -0.544495
O6    O     O_R   0.384220 0.568000 0.499990 -0.549863
O7    O     O_R   0.615820 0.553620 0.500010 -0.587912
O8    O     O_R   0.384180 0.446380 0.499990 -0.602807
Zn1   Zn    Zn3+2 0.499980 0.418790 0.500000 1.111703
Zn2   Zn    Zn3+2 0.500020 0.581210 0.500000 1.116842
N3    N     N_3   0.557128 0.362340 0.929785 -0.415383
H19   H     H_    0.506191 0.359370 0.897807 0.218411
H20   H     H_    0.606902 0.360037 0.897887 0.220208
N4    N     N_3   0.524232 0.633356 0.071001 -0.416766
H21   H     H_    0.473379 0.634422 0.101508 0.222633
H22   H     H_    0.573810 0.638014 0.104186 0.213344
Cl1   Cl    Cl    0.391449 0.326847 0.392511 -0.459703
Cl2   Cl    Cl    0.613877 0.670038 0.603569 -0.460960
Cl3   Cl    Cl    0.389605 0.157816 0.393509 -0.445709
Cl4   Cl    Cl    0.614947 0.839583 0.605724 -0.450127
Cl5   Cl    Cl    0.614476 0.142513 0.608268 -0.443166
Cl6   Cl    Cl    0.384133 0.859072 0.395429 -0.444049
Cl7   Cl    Cl    0.615276 0.312321 0.602151 -0.409645
Cl8   Cl    Cl    0.383314 0.688925 0.399203 -0.435872
Cl9   Cl    Cl    0.246250 0.639695 0.571857 -0.472821
Cl10  Cl    Cl    0.724892 0.353743 0.411625 -0.508178
Cl11  Cl    Cl    0.664060 0.537893 0.318542 -0.594221
Cl12  Cl    Cl    0.673862 0.482954 0.687109 -0.519189
Cl13  Cl    Cl    0.352508 0.468709 0.277055 -0.532632
Cl14  Cl    Cl    0.345287 0.516516 0.715054 -0.523898

loop_
_geom_bond_atom_site_label_1
_geom_bond_atom_site_label_2
_ccdc_geom_bond_type
C30   C32   A    
C27   C29   A    
C34   C37   A    
C5    H15   S    
C39   C41   A    
C21   Cl1   S    
C18   N4    S    
C21   N1    A    
C35   C37   A    
C9    H17   S    
C52   H9    S    
C16   C19   A    
C47   H11   S    
C33   C35   A    
N4    H22   S    
C48   H12   S    
C32   N2    A    
C45   C51   S    
C27   C38   S    
C26   Cl4   S    
C46   C52   S    
C35   H7    S    
O1    Zn1   S    
C2    C13   S    
C24   C40   S    
C49   Cl10  S    
C24   O8    A    
C18   C20   A    
C3    C13   A    
C40   C42   A    
C41   C43   A    
C44   H13   S    
C51   H10   S    
C42   C44   A    
O2    Zn2   S    
C22   N2    A    
C44   C46   A    
C45   C47   A    
C15   C20   A    
C46   C48   A    
C25   Cl3   S    
C8    C19   S    
C51   C52   D    
C1    O3    A    
C4    C6    A    
C5    C7    A    
N4    H21   S    
C30   Cl6   S    
C6    C8    A    
C36   H8    S    
C17   N3    S    
C15   H3    S    
C16   H4    S    
C12   Cl14  S    
C3    Cl11  S    
C9    C11   A    
O6    Zn2   S    
N3    H19   S    
O5    Zn1   S    
C22   Cl2   S    
C11   Cl13  S    
C23   O5    A    
C48   C50   A    
C43   C45   A    
C41   H1    S    
C10   C12   A    
C10   H18   S    
C24   O6    A    
C32   Cl8   S    
C12   C14   A    
C4    Cl12  S    
C36   C38   A    
C2    O4    A    
C15   C17   A    
C21   C25   A    
C50   Cl9   S    
C33   H5    S    
N3    H20   S    
C8    C10   A    
O8    Zn1   S    
C3    C5    A    
C2    O2    A    
O4    Zn1   S    
O7    Zn2   S    
C39   C49   A    
O3    Zn2   S    
C25   C27   A    
C26   C28   A    
C33   C38   A    
C1    O1    A    
C28   C30   A    
C29   C31   A    
C47   C49   A    
C42   H2    S    
C29   Cl5   S    
C11   C13   A    
C28   C37   S    
C43   H14   S    
C31   Cl7   S    
C6    H16   S    
C17   C19   A    
C34   C36   A    
C4    C14   A    
C7    C9    A    
C40   C50   A    
C16   C18   A    
C7    C20   S    
C22   C26   A    
C34   H6    S    
C1    C14   S    
C23   O7    A    
C23   C39   S    
N2    Zn2   S    
C31   N1    A    
N1    Zn1   S    
