data_mof_unit_61498.cif
_audit_creation_date              2013-03-05T16:33:25-0500
_audit_creation_method            fapswitch 2.2
_symmetry_space_group_name_H-M    P1
_symmetry_Int_Tables_number       1
_space_group_crystal_system       triclinic
_cell_length_a                    41.237226
_cell_length_b                    35.521986
_cell_length_c                    21.734858
_cell_angle_alpha                 91.135568
_cell_angle_beta                  120.52141
_cell_angle_gamma                 89.350214
_cell_volume                      27420.9479225

loop_
_atom_site_label
_atom_site_type_symbol
_atom_site_description
_atom_site_fract_x
_atom_site_fract_y
_atom_site_fract_z
_atom_type_partial_charge
O1    O     O_R   0.444560 0.531280 0.944560 -0.561113
O2    O     O_R   0.555440 0.531280 0.055440 -0.561610
O3    O     O_R   0.944560 0.031280 0.944560 -0.561016
O4    O     O_R   0.055440 0.031280 0.055440 -0.561836
O5    O     O_R   0.444540 0.468700 0.944530 -0.638653
O6    O     O_R   0.555460 0.468700 0.055470 -0.638256
O7    O     O_R   0.944540 0.968700 0.944530 -0.638782
O8    O     O_R   0.055460 0.968700 0.055470 -0.637863
C1    C     C_R   0.426571 0.500066 0.925673 0.952217
C2    C     C_R   0.573424 0.500050 0.074339 0.952857
C3    C     C_R   0.926571 0.000066 0.925667 0.952218
C4    C     C_R   0.073424 0.000051 0.074342 0.952817
O9    O     O_R   0.500010 0.531280 0.909540 -0.627843
O10   O     O_R   0.499990 0.531280 0.090460 -0.607055
O11   O     O_R   0.000010 0.031280 0.909540 -0.627790
O12   O     O_R   0.999990 0.031280 0.090460 -0.608483
O13   O     O_R   0.499990 0.468700 0.909520 -0.618877
O14   O     O_R   0.500010 0.468700 0.090480 -0.640197
O15   O     O_R   0.999990 0.968700 0.909520 -0.618753
O16   O     O_R   0.000010 0.968700 0.090480 -0.638472
C5    C     C_R   0.503893 0.499477 0.884950 0.927083
C6    C     C_R   0.496103 0.500489 0.115049 0.925273
C7    C     C_R   0.003910 0.999477 0.884967 0.927263
C8    C     C_R   0.996169 0.000545 0.115140 0.925176
Zn1   Zn    Zn3+2 0.500000 0.541780 0.000000 1.046508
Zn2   Zn    Zn3+2 0.000000 0.041780 0.000000 1.045951
Zn3   Zn    Zn3+2 0.500000 0.458200 0.000000 0.964081
Zn4   Zn    Zn3+2 0.000000 0.958200 0.000000 0.965217
C9    C     C_R   0.472882 0.674543 0.506479 0.294956
C10   C     C_R   0.527214 0.673246 0.489697 0.298585
C11   C     C_R   0.972852 0.174541 0.506420 0.295072
C12   C     C_R   0.027231 0.173253 0.489782 0.298488
C13   C     C_R   0.999420 0.385507 0.497669 -0.208209
C14   C     C_R   0.499426 0.885507 0.497674 -0.207949
C15   C     C_1   0.500476 0.733238 0.498476 0.220276
C16   C     C_1   0.000462 0.233240 0.498480 0.220295
C17   C     C_R   0.499982 0.614583 0.498833 -0.222431
C18   C     C_R   0.999981 0.114585 0.498844 -0.223040
C19   C     C_2   0.521867 0.527145 0.738075 0.405834
C20   C     C_2   0.478097 0.472726 0.261891 0.389647
C21   C     C_2   0.021987 0.027160 0.738208 0.407036
C22   C     C_2   0.976580 0.973467 0.260238 0.392246
C23   C     C_2   0.496637 0.506009 0.682427 0.243907
C24   C     C_2   0.503388 0.493803 0.317574 0.234990
C25   C     C_2   0.996653 0.006152 0.682457 0.243572
C26   C     C_2   0.003334 0.992584 0.317477 0.232388
C27   C     C_2   0.518940 0.528931 0.802710 -0.219830
C28   C     C_2   0.481015 0.470952 0.197227 -0.223200
C29   C     C_2   0.019072 0.028935 0.802865 -0.220163
C30   C     C_2   0.979632 0.971486 0.195745 -0.220657
C31   C     C_2   0.516087 0.497301 0.832729 0.061372
C32   C     C_2   0.483888 0.502606 0.167254 0.056738
C33   C     C_2   0.016121 0.997298 0.832757 0.061916
C34   C     C_2   0.984205 0.003016 0.167693 0.054949
H1    H     H_    0.515066 0.556524 0.820510 0.152217
H2    H     H_    0.484898 0.443366 0.179420 0.142700
H3    H     H_    0.015270 0.056530 0.820758 0.152205
H4    H     H_    0.982042 0.943778 0.176367 0.141647
C35   C     C_R   0.172274 0.470913 0.709160 0.071507
C36   C     C_R   0.827805 0.470831 0.289132 0.071958
C37   C     C_R   0.672277 0.970831 0.708921 0.071944
C38   C     C_R   0.327801 0.970796 0.289263 0.072592
C39   C     C_R   0.132927 0.470278 0.666941 0.368224
C40   C     C_R   0.867160 0.470262 0.331213 0.370647
C41   C     C_R   0.632929 0.970193 0.666691 0.367929
C42   C     C_R   0.367156 0.970219 0.331352 0.369633
C43   C     C_R   0.114279 0.496973 0.612119 -0.271783
C44   C     C_R   0.885723 0.496958 0.387693 -0.270307
C45   C     C_R   0.614273 0.997018 0.612124 -0.271641
C46   C     C_R   0.385726 0.996989 0.387689 -0.270395
C47   C     C_R   0.134803 0.522793 0.597089 0.296423
C48   C     C_R   0.865112 0.522729 0.404389 0.295163
C49   C     C_R   0.634781 0.023003 0.597389 0.296279
C50   C     C_R   0.365127 0.022863 0.404216 0.298787
C51   C     C_R   0.174525 0.521244 0.635834 0.327057
C52   C     C_R   0.825395 0.521115 0.365643 0.327123
C53   C     C_R   0.674504 0.021481 0.636135 0.326715
C54   C     C_R   0.325409 0.021271 0.365468 0.326630
C55   C     C_R   0.192761 0.496356 0.692935 -0.063638
C56   C     C_R   0.807234 0.496213 0.307025 -0.063729
C57   C     C_R   0.692753 0.996433 0.692965 -0.063580
C58   C     C_R   0.307239 0.996274 0.307003 -0.063515
C59   C     C_1   0.232930 0.496741 0.733109 0.106555
C60   C     C_1   0.767061 0.496546 0.266949 0.106745
C61   C     C_1   0.732923 0.996814 0.733124 0.106372
C62   C     C_1   0.267064 0.996606 0.266939 0.107062
C63   C     C_1   0.266542 0.497630 0.766154 0.079265
C64   C     C_1   0.733445 0.497423 0.233983 0.079467
C65   C     C_1   0.766537 0.997690 0.766159 0.079054
C66   C     C_1   0.233447 0.997473 0.233981 0.079501
C67   C     C_R   0.326393 0.468741 0.848185 0.455038
C68   C     C_R   0.673635 0.468177 0.151479 0.455282
C69   C     C_R   0.826380 0.968772 0.848165 0.454999
C70   C     C_R   0.173645 0.968211 0.151470 0.455438
C71   C     C_R   0.365666 0.469542 0.886972 -0.406069
C72   C     C_R   0.634360 0.469029 0.112657 -0.406746
C73   C     C_R   0.865654 0.969557 0.886948 -0.406465
C74   C     C_R   0.134369 0.969050 0.112651 -0.406392
H5    H     H_    0.380984 0.446199 0.921165 0.181748
H6    H     H_    0.619070 0.445377 0.078043 0.180935
H7    H     H_    0.880965 0.946210 0.921136 0.181420
H8    H     H_    0.119086 0.945400 0.078021 0.180835
C75   C     C_R   0.385299 0.500311 0.882926 -0.161871
C76   C     C_R   0.614687 0.500250 0.117165 -0.161157
C77   C     C_R   0.885298 0.000317 0.882908 -0.161640
C78   C     C_R   0.114686 0.000256 0.117179 -0.160888
C79   C     C_R   0.365756 0.530880 0.838405 0.448021
C80   C     C_R   0.634173 0.531241 0.162206 0.448202
C81   C     C_R   0.865765 0.030890 0.838387 0.448147
C82   C     C_R   0.134163 0.031242 0.162245 0.448275
C83   C     C_R   0.325786 0.530743 0.799547 0.015791
C84   C     C_R   0.674145 0.531018 0.201200 0.016463
C85   C     C_R   0.825795 0.030773 0.799545 0.016044
C86   C     C_R   0.174135 0.031036 0.201228 0.016245
C87   C     C_R   0.306697 0.499285 0.805086 0.025597
C88   C     C_R   0.693284 0.499110 0.195129 0.025558
C89   C     C_R   0.806694 0.999325 0.805081 0.025685
C90   C     C_R   0.193285 0.999144 0.195135 0.025610
C91   C     C_R   0.500538 0.693086 0.499287 -0.093202
C92   C     C_R   0.000528 0.193088 0.499297 -0.093155
C93   C     C_R   0.473205 0.634784 0.508311 0.259572
C94   C     C_R   0.527637 0.633485 0.491368 0.250591
C95   C     C_R   0.973180 0.134782 0.508254 0.259523
C96   C     C_R   0.027659 0.133492 0.491455 0.250812
C97   C     C_1   0.000410 0.266865 0.498143 0.221211
C98   C     C_1   0.500426 0.766864 0.498144 0.221185
C99   C     C_R   0.000273 0.307031 0.498304 -0.093707
C100  C     C_R   0.500287 0.807030 0.498311 -0.093723
O17   O     O_R   0.531280 0.444560 0.531260 -0.622882
O18   O     O_R   0.468720 0.444560 0.468740 -0.606062
O19   O     O_R   0.031280 0.944560 0.531260 -0.617819
O20   O     O_R   0.968720 0.944560 0.468740 -0.615045
C101  C     C_R   0.500013 0.426859 0.500109 0.905394
C102  C     C_R   0.999983 0.926848 0.500404 0.896161
O21   O     O_R   0.531280 0.499990 0.621740 -0.585697
O22   O     O_R   0.468720 0.499990 0.378260 -0.580437
O23   O     O_R   0.031280 0.999990 0.621740 -0.587676
O24   O     O_R   0.968720 0.999990 0.378260 -0.579377
O25   O     O_R   0.468680 0.499990 0.559140 -0.624512
O26   O     O_R   0.531320 0.499990 0.440860 -0.626935
O27   O     O_R   0.968680 0.999990 0.559140 -0.620997
O28   O     O_R   0.031320 0.999990 0.440860 -0.625929
C103  C     C_R   0.499343 0.501472 0.618595 0.839448
C104  C     C_R   0.500659 0.498508 0.381389 0.831583
C105  C     C_R   0.999344 0.001569 0.618598 0.832860
C106  C     C_R   0.000644 0.998140 0.381337 0.834200
Zn5   Zn    Zn3+2 0.541790 0.499990 0.541780 1.041412
Zn6   Zn    Zn3+2 0.458210 0.499990 0.458220 1.046007
Zn7   Zn    Zn3+2 0.041790 0.999990 0.541780 1.041876
Zn8   Zn    Zn3+2 0.958210 0.999990 0.458220 1.041028
O29   O     O_R   0.531300 0.555420 0.531300 -0.569410
O30   O     O_R   0.468700 0.555420 0.468700 -0.585418
O31   O     O_R   0.031300 0.055420 0.531300 -0.568890
O32   O     O_R   0.968700 0.055420 0.468700 -0.584430
C107  C     C_R   0.500000 0.573345 0.499757 1.047237
C108  C     C_R   1.000000 0.073346 0.499758 1.048730
O33   O     O_R   0.999980 0.444660 0.448930 -0.595056
O34   O     O_R   0.000020 0.444660 0.551070 -0.595306
O35   O     O_R   0.499980 0.944660 0.448930 -0.595361
O36   O     O_R   0.500020 0.944660 0.551070 -0.595426
C109  C     C_R   0.999821 0.426724 0.499285 0.984688
C110  C     C_R   0.499822 0.926724 0.499286 0.984625
O37   O     O_R   0.055440 0.500090 0.504360 -0.571709
O38   O     O_R   0.944560 0.500090 0.495640 -0.571013
O39   O     O_R   0.555440 0.000090 0.504360 -0.572963
O40   O     O_R   0.444560 0.000090 0.495640 -0.572542
O41   O     O_R   0.055430 0.500110 0.606490 -0.619654
O42   O     O_R   0.944570 0.500110 0.393510 -0.620561
O43   O     O_R   0.555430 0.000110 0.606490 -0.619040
O44   O     O_R   0.444570 0.000110 0.393510 -0.618819
C111  C     C_R   0.073263 0.499412 0.572605 0.961821
C112  C     C_R   0.926736 0.499424 0.427349 0.959385
C113  C     C_R   0.573261 0.999427 0.572605 0.964858
C114  C     C_R   0.426737 0.999433 0.427350 0.966240
Zn9   Zn    Zn3+2 0.000000 0.500080 0.431790 1.086012
Zn10  Zn    Zn3+2 0.000000 0.500080 0.568210 1.082147
Zn11  Zn    Zn3+2 0.500000 0.000080 0.431790 1.081427
Zn12  Zn    Zn3+2 0.500000 0.000080 0.568210 1.081482
O45   O     O_R   0.000010 0.555520 0.448910 -0.572254
O46   O     O_R   0.999990 0.555520 0.551090 -0.574764
O47   O     O_R   0.500010 0.055520 0.448910 -0.580041
O48   O     O_R   0.499990 0.055520 0.551090 -0.580386
C115  C     C_R   0.000083 0.573440 0.500669 1.028944
C116  C     C_R   0.499827 0.073431 0.500405 1.043360
C117  C     C_R   0.980331 0.673554 0.437752 0.070485
C118  C     C_R   0.016754 0.673888 0.569202 0.073633
C119  C     C_R   0.474489 0.173544 0.437561 0.077395
C120  C     C_R   0.520194 0.173943 0.567005 0.066093
C121  C     C_R   0.979189 0.633957 0.437322 0.362942
C122  C     C_R   0.019487 0.634244 0.567618 0.363503
C123  C     C_R   0.474884 0.133644 0.437331 0.362151
C124  C     C_R   0.522201 0.134353 0.565045 0.358192
C125  C     C_R   0.999795 0.614654 0.501865 -0.219067
C126  C     C_R   0.498883 0.114640 0.500965 -0.214543
C127  C     C_R   0.997888 0.693230 0.503858 0.020839
C128  C     C_R   0.497322 0.193215 0.502808 0.021456
C129  C     C_1   0.997414 0.733526 0.504041 0.031631
C130  C     C_1   0.497801 0.233524 0.504416 0.026840
C131  C     C_1   0.498373 0.267171 0.505206 -0.017234
C132  C     C_1   0.997166 0.767171 0.503651 -0.013510
C133  C     C_R   0.505837 0.325021 0.454606 0.169694
C134  C     C_R   0.493037 0.328649 0.553889 0.188504
C135  C     C_R   0.981382 0.826044 0.436759 0.190326
C136  C     C_R   0.013945 0.827698 0.568316 0.178292
C137  C     C_R   0.506047 0.364705 0.452514 0.119461
C138  C     C_R   0.493824 0.368345 0.552549 0.129072
C139  C     C_R   0.984621 0.865467 0.436714 0.085920
C140  C     C_R   0.013662 0.867416 0.567836 0.140232
C141  C     C_R   0.499997 0.385893 0.501574 -0.120365
C142  C     C_R   0.999707 0.885878 0.501945 -0.127352
C143  C     C_R   0.499085 0.307476 0.504819 0.022175
C144  C     C_R   0.997149 0.807480 0.502752 0.025253
C145  C     C_R   0.977085 0.326466 0.517924 0.298421
C146  C     C_R   0.022055 0.325940 0.476013 0.298339
C147  C     C_R   0.477091 0.826462 0.517914 0.298435
C148  C     C_R   0.522076 0.825944 0.476039 0.298306
C149  C     C_R   0.977373 0.366248 0.519507 0.254360
C150  C     C_R   0.022475 0.365743 0.477553 0.257857
C151  C     C_R   0.477374 0.866244 0.519497 0.254320
C152  C     C_R   0.522491 0.865747 0.477578 0.257912
O49   O     O_3   0.445688 0.696001 0.510063 -0.723923
H9    H     H_    0.422315 0.680992 0.490506 0.353801
O50   O     O_3   0.551580 0.693481 0.476901 -0.724884
H10   H     H_    0.558649 0.677853 0.447289 0.354127
O51   O     O_3   0.945637 0.195994 0.509935 -0.724025
H11   H     H_    0.922263 0.180982 0.490337 0.353747
O52   O     O_3   0.051620 0.193493 0.477054 -0.724854
H12   H     H_    0.058716 0.177866 0.447481 0.354110
O53   O     O_3   0.306590 0.438537 0.851818 -0.767535
H13   H     H_    0.324613 0.419509 0.884393 0.340313
O54   O     O_3   0.693486 0.437543 0.147342 -0.767274
H14   H     H_    0.675492 0.418283 0.114412 0.340112
O55   O     O_3   0.806566 0.938576 0.851793 -0.767998
H15   H     H_    0.824582 0.919541 0.884358 0.339975
O56   O     O_3   0.193506 0.937592 0.147312 -0.767359
H16   H     H_    0.175518 0.918330 0.114373 0.340048
O57   O     O_3   0.386776 0.559767 0.834004 -0.740600
H17   H     H_    0.370607 0.577884 0.796955 0.349805
O58   O     O_3   0.613089 0.560603 0.167000 -0.741195
H18   H     H_    0.629232 0.579232 0.203979 0.349387
O59   O     O_3   0.886793 0.059765 0.833978 -0.740563
H19   H     H_    0.870633 0.077862 0.796875 0.349779
O60   O     O_3   0.113070 0.060586 0.167067 -0.741549
H20   H     H_    0.129205 0.079196 0.204100 0.349277
C153  C     C_3   0.304109 0.563973 0.753590 -0.850648
H21   H     H_    0.273214 0.561781 0.729299 0.280608
H22   H     H_    0.312789 0.590223 0.786634 0.242637
H23   H     H_    0.309798 0.566531 0.709098 0.248150
C154  C     C_3   0.695771 0.564609 0.247906 -0.852059
H24   H     H_    0.726686 0.562183 0.272538 0.279998
H25   H     H_    0.687228 0.590458 0.215345 0.242273
H26   H     H_    0.689885 0.568084 0.292198 0.248102
C155  C     C_3   0.804132 0.064017 0.753619 -0.851472
H27   H     H_    0.773239 0.061851 0.729377 0.280711
H28   H     H_    0.812845 0.090263 0.786674 0.242669
H29   H     H_    0.809797 0.066563 0.709096 0.248052
C156  C     C_3   0.195749 0.064629 0.247941 -0.851268
H30   H     H_    0.226663 0.062226 0.272538 0.280237
H31   H     H_    0.187180 0.090484 0.215394 0.242432
H32   H     H_    0.189879 0.068080 0.292257 0.247938
O61   O     O_3   0.449135 0.615006 0.522559 -0.734542
H33   H     H_    0.442450 0.630999 0.552329 0.353733
O62   O     O_3   0.554439 0.612455 0.485726 -0.745298
H34   H     H_    0.578067 0.627154 0.506754 0.355091
O63   O     O_3   0.949088 0.115001 0.522439 -0.734514
H35   H     H_    0.942379 0.130992 0.552177 0.353718
O64   O     O_3   0.054487 0.112469 0.485888 -0.744614
H36   H     H_    0.078114 0.127171 0.506968 0.354977
C157  C     C_3   0.963956 0.694822 0.368442 -0.875921
H37   H     H_    0.984405 0.716174 0.372346 0.247848
H38   H     H_    0.958299 0.676515 0.322151 0.261324
H39   H     H_    0.937425 0.708929 0.357421 0.236947
C158  C     C_3   0.033469 0.694815 0.640287 -0.886293
H40   H     H_    0.023441 0.724190 0.635263 0.246911
H41   H     H_    0.025084 0.680850 0.675367 0.256874
H42   H     H_    0.064635 0.695202 0.666584 0.239158
C159  C     C_3   0.449673 0.194535 0.368836 -0.884557
H43   H     H_    0.452070 0.225552 0.374740 0.246466
H44   H     H_    0.457383 0.186371 0.328312 0.245014
H45   H     H_    0.419662 0.187644 0.348391 0.244297
C160  C     C_3   0.541272 0.195833 0.637052 -0.855367
H46   H     H_    0.522025 0.216327 0.641565 0.241374
H47   H     H_    0.552135 0.177822 0.684609 0.256495
H48   H     H_    0.565051 0.211331 0.639149 0.241020
O65   O     O_3   0.957755 0.613333 0.375055 -0.734167
H49   H     H_    0.934497 0.627682 0.343902 0.344897
O66   O     O_3   0.040608 0.613568 0.628931 -0.736289
H50   H     H_    0.059350 0.629870 0.667917 0.350985
O67   O     O_3   0.452249 0.111921 0.376868 -0.741579
H51   H     H_    0.435767 0.127730 0.335672 0.353817
O68   O     O_3   0.547201 0.114062 0.624199 -0.738267
H52   H     H_    0.570875 0.128608 0.650846 0.344675
C161  C     C_3   0.512477 0.300526 0.403761 -0.861815
H53   H     H_    0.518370 0.316238 0.367133 0.246177
H54   H     H_    0.537005 0.281760 0.434988 0.243813
H55   H     H_    0.487209 0.282962 0.370146 0.237192
C162  C     C_3   0.485637 0.309320 0.607320 -0.871745
H56   H     H_    0.508351 0.316467 0.662509 0.242757
H57   H     H_    0.458018 0.318612 0.599556 0.248313
H58   H     H_    0.484540 0.278228 0.602546 0.237651
C163  C     C_3   0.960638 0.804278 0.366481 -0.887112
H59   H     H_    0.933271 0.818096 0.330400 0.249893
H60   H     H_    0.978004 0.802966 0.340760 0.244197
H61   H     H_    0.953495 0.775243 0.372497 0.241636
C164  C     C_3   0.031253 0.806141 0.637698 -0.883150
H62   H     H_    0.045941 0.823913 0.686570 0.251081
H63   H     H_    0.008859 0.790396 0.640187 0.238642
H64   H     H_    0.052590 0.786011 0.639842 0.242749
C165  C     C_3   0.512255 0.384063 0.397580 -0.817624
H65   H     H_    0.540475 0.376564 0.406273 0.238420
H66   H     H_    0.490145 0.375180 0.342942 0.251210
H67   H     H_    0.511039 0.415162 0.399450 0.234851
C166  C     C_3   0.488329 0.392874 0.604826 -0.884780
H68   H     H_    0.484902 0.377162 0.644543 0.251004
H69   H     H_    0.513145 0.411494 0.635413 0.227442
H70   H     H_    0.462819 0.410611 0.574992 0.241542
C167  C     C_3   0.972232 0.886410 0.367884 -0.786013
H71   H     H_    0.967083 0.867964 0.322185 0.239316
H72   H     H_    0.945999 0.902347 0.352788 0.274641
H73   H     H_    0.994611 0.906309 0.375504 0.229875
C168  C     C_3   0.027046 0.889613 0.637100 -0.868780
H74   H     H_    0.012262 0.879585 0.664449 0.240345
H75   H     H_    0.057897 0.886025 0.672424 0.249527
H76   H     H_    0.021153 0.920156 0.629817 0.225873
O69   O     O_3   0.953938 0.305791 0.533301 -0.722681
H77   H     H_    0.931128 0.320789 0.521139 0.355458
O70   O     O_3   0.041867 0.304776 0.451937 -0.725067
H78   H     H_    0.044699 0.319624 0.416870 0.355051
O71   O     O_3   0.453940 0.805783 0.533274 -0.722618
H79   H     H_    0.431127 0.820779 0.521100 0.355513
O72   O     O_3   0.541897 0.804783 0.451980 -0.725124
H80   H     H_    0.544736 0.819632 0.416923 0.354976
O73   O     O_3   0.548791 0.547741 0.733532 -0.767537
H81   H     H_    0.564239 0.561232 0.779797 0.340763
O74   O     O_3   0.451082 0.452254 0.266354 -0.780929
H82   H     H_    0.435699 0.438676 0.220169 0.337924
O75   O     O_3   0.049022 0.047617 0.733780 -0.767093
H83   H     H_    0.064537 0.061022 0.780116 0.340619
O76   O     O_3   0.947246 0.956130 0.261979 -0.791539
H84   H     H_    0.931011 0.943801 0.214779 0.337557
O77   O     O_3   0.956596 0.386974 0.541953 -0.740339
H85   H     H_    0.954426 0.372435 0.578101 0.355704
O78   O     O_3   0.046277 0.386037 0.463342 -0.742365
H86   H     H_    0.068917 0.370676 0.475780 0.351883
O79   O     O_3   0.456590 0.886967 0.541926 -0.740478
H87   H     H_    0.454414 0.872426 0.578066 0.355710
O80   O     O_3   0.546298 0.886044 0.463385 -0.742556
H88   H     H_    0.568942 0.870686 0.475839 0.351835
O81   O     O_3   0.465982 0.491164 0.683658 -0.774716
H89   H     H_    0.452095 0.473909 0.642003 0.342329
O82   O     O_3   0.534131 0.508438 0.316382 -0.773569
H90   H     H_    0.548141 0.525617 0.358112 0.357927
O83   O     O_3   0.965932 0.991460 0.683654 -0.774616
H91   H     H_    0.951967 0.974253 0.641954 0.344261
O84   O     O_3   0.035187 0.004666 0.317276 -0.773633
H92   H     H_    0.050254 0.021188 0.359560 0.358598
C169  C     C_3   0.527740 0.458791 0.818488 -0.818185
H93   H     H_    0.542162 0.459935 0.787212 0.229165
H94   H     H_    0.548019 0.445659 0.870079 0.224596
H95   H     H_    0.502666 0.440309 0.789958 0.265708
C170  C     C_3   0.472226 0.541091 0.181519 -0.787098
H96   H     H_    0.497305 0.559559 0.210107 0.270500
H97   H     H_    0.451968 0.554244 0.129939 0.224792
H98   H     H_    0.457771 0.539909 0.212730 0.230976
C171  C     C_3   0.027680 0.958770 0.818378 -0.820781
H99   H     H_    0.042078 0.959887 0.787051 0.229976
H100  H     H_    0.047948 0.945587 0.869919 0.224741
H101  H     H_    0.002564 0.940346 0.789838 0.265571
C172  C     C_3   0.974737 0.042008 0.184620 -0.786553
H102  H     H_    0.000827 0.059018 0.214160 0.268809
H103  H     H_    0.955139 0.056420 0.134061 0.226882
H104  H     H_    0.960350 0.041508 0.216005 0.230920
C173  C     C_3   0.191379 0.443271 0.769613 -0.696020
H105  H     H_    0.222430 0.446049 0.800711 0.236405
H106  H     H_    0.180933 0.447695 0.807305 0.252784
H107  H     H_    0.184663 0.414053 0.747736 0.256144
C174  C     C_3   0.808785 0.443184 0.226975 -0.697095
H108  H     H_    0.777718 0.445899 0.196146 0.235508
H109  H     H_    0.819152 0.447665 0.189472 0.252331
H110  H     H_    0.815662 0.413969 0.247034 0.256524
C175  C     C_3   0.691394 0.943031 0.769091 -0.696628
H111  H     H_    0.722443 0.945823 0.800227 0.236497
H112  H     H_    0.680940 0.947259 0.806813 0.252763
H113  H     H_    0.684696 0.913867 0.746921 0.256093
C176  C     C_3   0.308772 0.943057 0.227264 -0.697053
H114  H     H_    0.277706 0.945786 0.196409 0.235534
H115  H     H_    0.319147 0.947419 0.189740 0.252323
H116  H     H_    0.315632 0.913873 0.247495 0.256485
O85   O     O_3   0.113724 0.443184 0.680826 -0.728821
H117  H     H_    0.089068 0.438297 0.637305 0.336487
O86   O     O_3   0.886452 0.443223 0.315555 -0.728031
H118  H     H_    0.911138 0.438343 0.358738 0.337361
O87   O     O_3   0.613738 0.942969 0.680322 -0.729005
H119  H     H_    0.589041 0.938208 0.636823 0.336314
O88   O     O_3   0.386438 0.943101 0.315839 -0.728220
H120  H     H_    0.411148 0.938292 0.359012 0.336941
O89   O     O_3   0.115294 0.549946 0.546507 -0.741296
H121  H     H_    0.131322 0.572588 0.558467 0.347459
O90   O     O_3   0.884526 0.549896 0.456629 -0.743170
H122  H     H_    0.868402 0.572513 0.446096 0.346256
O91   O     O_3   0.615253 0.050277 0.547095 -0.743297
H123  H     H_    0.631256 0.072956 0.559325 0.345979
O92   O     O_3   0.384555 0.050100 0.456292 -0.739345
H124  H     H_    0.368448 0.072742 0.445600 0.348179
O93   O     O_3   0.196275 0.543453 0.619256 -0.769440
H125  H     H_    0.181725 0.549194 0.567698 0.352756
O94   O     O_3   0.803578 0.543276 0.383667 -0.769333
H126  H     H_    0.818137 0.549031 0.435574 0.352749
O95   O     O_3   0.696243 0.043865 0.619809 -0.770223
H127  H     H_    0.681686 0.049774 0.568326 0.352339
O96   O     O_3   0.303600 0.043539 0.383349 -0.768824
H128  H     H_    0.318163 0.049393 0.435217 0.352544

loop_
_geom_bond_atom_site_label_1
_geom_bond_atom_site_label_2
_geom_bond_distance
_ccdc_geom_bond_type
C151  O79   1.382052 S    
O42   Zn9   1.996331 S    
C169  H93   1.108933 S    
C102  C142  1.456666 S    
C135  C163  1.517806 S    
O20   Zn8   2.003710 S    
O28   C106  1.270614 A    
O50   H10   0.990008 S    
O23   Zn7   1.993304 S    
O75   H83   0.991853 S    
C20   O74   1.382116 S    
O73   H81   0.991854 S    
C160  H48   1.110189 S    
C9    C91   1.400396 A    
C12   C92   1.399867 A    
C71   H5    1.083761 S    
C8    C34   1.457143 S    
C158  H42   1.110183 S    
C123  O67   1.387072 S    
Zn7   O31   2.003571 S    
C174  H110  1.110489 S    
C136  C140  1.410976 A    
C46   C50   1.405151 A    
C139  C142  1.412956 A    
O29   C107  1.281140 A    
O4    C4    1.280357 A    
C63   C87   1.427744 S    
C18   C95   1.408490 A    
O71   H79   0.990027 S    
O27   C105  1.269286 A    
C172  H104  1.108777 S    
C73   C77   1.397854 A    
C165  H66   1.110420 S    
C153  H21   1.106933 S    
C45   C113  1.459291 S    
C117  C127  1.411453 A    
C21   C29   1.470095 S    
C23   O81   1.388124 S    
C170  H98   1.108883 S    
O40   C114  1.278584 A    
C62   C66   1.194618 T    
C173  H107  1.110491 S    
C14   C151  1.408971 A    
O41   C111  1.277810 A    
O16   Zn4   1.994146 S    
C74   H8    1.083792 S    
O13   C5    1.273070 A    
O7    Zn4   2.005230 S    
C118  C122  1.412624 A    
C167  H73   1.110687 S    
C13   C109  1.463897 S    
C26   O84   1.388622 S    
O53   H13   0.991766 S    
C54   C58   1.402805 A    
O4    Zn2   2.004520 S    
O84   H92   0.990968 S    
C12   O52   1.382682 S    
C1    C75   1.467574 S    
C136  C144  1.412231 A    
O9    C5    1.283123 A    
O31   C108  1.281148 A    
C68   C88   1.400740 A    
O36   Zn12  1.996372 S    
Zn12  O48   2.011370 S    
O17   C101  1.277103 A    
C169  H95   1.110252 S    
C157  H38   1.108489 S    
C175  H111  1.107845 S    
O8    Zn4   2.005983 S    
O19   Zn7   2.004463 S    
C19   C27   1.469928 S    
O44   C114  1.277817 A    
C163  H61   1.104063 S    
C20   C28   1.470317 S    
C72   C76   1.397758 A    
O3    Zn2   2.005288 S    
C60   C64   1.194596 T    
C166  H70   1.110133 S    
C19   C23   1.346331 D    
C13   C149  1.408979 A    
O87   H119  0.989569 S    
C35   C39   1.401067 A    
C74   C78   1.397747 A    
C146  O70   1.382472 S    
C36   C40   1.401102 A    
C123  C126  1.406971 A    
C35   C173  1.514380 S    
C171  H99   1.108989 S    
C26   C106  1.456985 S    
C29   C33   1.346174 D    
C70   O56   1.383111 S    
C11   C92   1.400381 A    
O17   Zn5   2.004463 S    
O3    C3    1.280424 A    
O74   H82   0.991803 S    
C37   C41   1.401080 A    
C28   C32   1.346534 D    
C133  C161  1.522225 S    
C168  H74   1.110546 S    
C139  C167  1.520416 S    
C153  H23   1.110341 S    
C97   C99   1.426644 S    
C49   C53   1.412106 A    
C75   C79   1.412322 A    
O95   H127  0.990307 S    
O93   H125  0.990309 S    
C51   C55   1.402782 A    
C124  C126  1.403961 A    
C176  H115  1.110499 S    
O81   H89   0.991290 S    
C121  O65   1.382004 S    
C101  C141  1.456206 S    
C21   C25   1.346352 D    
O82   H90   0.991261 S    
C134  C143  1.414009 A    
C21   O75   1.382137 S    
O91   H123  0.990219 S    
C84   C154  1.518592 S    
C138  C166  1.522942 S    
C42   C46   1.417040 A    
C154  H24   1.106947 S    
O49   H9    0.990188 S    
C25   C105  1.453384 S    
C40   C44   1.417062 A    
O28   Zn7   2.008939 S    
C145  O69   1.382702 S    
C155  H27   1.106926 S    
C166  H69   1.110657 S    
O90   H122  0.990211 S    
C68   C72   1.395646 A    
C29   H3    1.086276 S    
C156  H30   1.106944 S    
O5    Zn3   2.005230 S    
O25   C103  1.269110 A    
C164  H63   1.110036 S    
C175  H113  1.110488 S    
C137  C141  1.414166 A    
O55   H15   0.991766 S    
C82   C86   1.419972 A    
O34   C109  1.278729 A    
O21   C103  1.284173 A    
C24   O82   1.388173 S    
C25   O83   1.388127 S    
O57   H17   0.986207 S    
C162  H57   1.110391 S    
C69   C89   1.400693 A    
O26   Zn5   2.008939 S    
C71   C75   1.397863 A    
O27   Zn8   2.008940 S    
C7    C33   1.457169 S    
C119  C159  1.519421 S    
O25   Zn6   2.008940 S    
C38   C42   1.401110 A    
O13   Zn3   2.008670 S    
C10   C94   1.413272 A    
C136  C164  1.519896 S    
C146  C150  1.413701 A    
C171  H101  1.110207 S    
C99   C145  1.400113 A    
C37   C175  1.514383 S    
O36   C110  1.278734 A    
C48   O90   1.382833 S    
Zn5   O29   2.003571 S    
O5    C1    1.284264 A    
C161  H53   1.105228 S    
C80   O58   1.386293 S    
O8    C4    1.284206 A    
C168  H76   1.105865 S    
O67   H51   0.986000 S    
C86   C90   1.415816 A    
O15   Zn4   2.008670 S    
C46   C114  1.459539 S    
O22   Zn6   1.993304 S    
C22   C30   1.469926 S    
C85   C89   1.415735 A    
C19   O73   1.382166 S    
O20   C102  1.276373 A    
C100  C148  1.400491 A    
O21   Zn5   1.993304 S    
C54   O96   1.382858 S    
O38   C112  1.278595 A    
C31   C169  1.522297 S    
C34   C172  1.523043 S    
C69   C73   1.395620 A    
C5    C31   1.456897 S    
C6    C32   1.457098 S    
C77   C81   1.412336 A    
C36   C56   1.409776 A    
C134  C162  1.519727 S    
C98   C100  1.426663 S    
O14   C6    1.282812 A    
C79   C83   1.419922 A    
C42   O88   1.384186 S    
Zn6   O30   2.004341 S    
C65   C89   1.427795 S    
C14   C110  1.463898 S    
C155  H29   1.110339 S    
O64   H36   0.990266 S    
C117  C121  1.407551 A    
C10   O50   1.382678 S    
C160  H47   1.108067 S    
C120  C124  1.408905 A    
C156  H32   1.110348 S    
O10   C6    1.273495 A    
C11   O51   1.382567 S    
C40   O86   1.384159 S    
C37   C57   1.409827 A    
O89   H121  0.990214 S    
C70   C90   1.400761 A    
C38   C176  1.514394 S    
O24   C106  1.284774 A    
C124  O68   1.381636 S    
C116  C126  1.463858 S    
C72   H6    1.083794 S    
C150  O78   1.382480 S    
C158  H41   1.110709 S    
C86   C156  1.518586 S    
O48   C116  1.280085 A    
C174  H109  1.110499 S    
C67   C71   1.395584 A    
C121  C125  1.405103 A    
C20   C24   1.346369 D    
C159  H45   1.110404 S    
O43   C113  1.277728 A    
C52   O94   1.382860 S    
C133  C143  1.413021 A    
C18   C96   1.409768 A    
C172  H103  1.110687 S    
C59   C63   1.194558 T    
C119  C128  1.416088 A    
C23   C103  1.452984 S    
O58   H18   0.986166 S    
C84   C88   1.415823 A    
C56   C60   1.427447 S    
O19   C102  1.278209 A    
O83   H91   0.991262 S    
O62   H34   0.990264 S    
C9    O49   1.382567 S    
C140  C168  1.520377 S    
C170  H97   1.110702 S    
C30   C34   1.345509 D    
C67   O53   1.383118 S    
C66   C90   1.427842 S    
O23   C105  1.284259 A    
O51   H11   0.990186 S    
C161  H55   1.110069 S    
C173  H106  1.110497 S    
C14   C152  1.408123 A    
C94   O62   1.381982 S    
C70   C74   1.395670 A    
O60   H20   0.986171 S    
O39   Zn11  2.012920 S    
C22   C26   1.347385 D    
C33   C171  1.522330 S    
C167  H72   1.109635 S    
C12   C96   1.413261 A    
C122  C125  1.407379 A    
C82   O60   1.386290 S    
C22   O76   1.381402 S    
O92   H124  0.990217 S    
C154  H26   1.110349 S    
C9    C93   1.413407 A    
O56   H16   0.991770 S    
C45   C49   1.405074 A    
O40   Zn12  2.012921 S    
O37   C111  1.278534 A    
O32   C108  1.282075 A    
C117  C157  1.515400 S    
C38   C58   1.409797 A    
O37   Zn9   2.012920 S    
C169  H94   1.110715 S    
C157  H37   1.110296 S    
C163  H60   1.110115 S    
O12   Zn2   2.008655 S    
C36   C174  1.514394 S    
C85   C155  1.518545 S    
O44   Zn11  1.996331 S    
C30   H4    1.086237 S    
C148  C152  1.413710 A    
O1    C1    1.280436 A    
C128  C130  1.431694 S    
C35   C55   1.409797 A    
O80   H88   0.990150 S    
C61   C65   1.194582 T    
C27   C31   1.346099 D    
C68   O54   1.383109 S    
C69   O55   1.383116 S    
C13   C150  1.408121 A    
C80   C84   1.419979 A    
C152  O80   1.382474 S    
O72   H80   0.990174 S    
O65   H49   0.990509 S    
C147  C151  1.412888 A    
O76   H84   0.991818 S    
O30   C107  1.282066 A    
C81   O59   1.386237 S    
C83   C153  1.518551 S    
O35   C110  1.280169 A    
C3    C77   1.467607 S    
C39   O85   1.384179 S    
C153  H22   1.110539 S    
O18   C101  1.276866 A    
O33   C109  1.280170 A    
C76   C80   1.412195 A    
O15   C7    1.273135 A    
C149  O77   1.382055 S    
C176  H114  1.107867 S    
O47   C116  1.279772 A    
C120  C160  1.517325 S    
C53   O95   1.382846 S    
C163  H59   1.110559 S    
O26   C104  1.269257 A    
O6    C2    1.284188 A    
C137  C165  1.520160 S    
O88   H120  0.989554 S    
C96   O64   1.381975 S    
C41   O87   1.384224 S    
O70   H78   0.990173 S    
O22   C104  1.284391 A    
C58   C62   1.427477 S    
C55   C59   1.427375 S    
C44   C112  1.459652 S    
C166  H68   1.105213 S    
O61   H33   0.990178 S    
C41   C45   1.416973 A    
C115  C125  1.463725 S    
C67   C87   1.400667 A    
O38   Zn10  2.012921 S    
O2    Zn1   2.004520 S    
C43   C47   1.405169 A    
O10   Zn1   2.008655 S    
O69   H77   0.990028 S    
C16   C92   1.426692 S    
C17   C94   1.409751 A    
C50   O92   1.382831 S    
O42   C112  1.277867 A    
C164  H62   1.105586 S    
C50   C54   1.412156 A    
C157  H39   1.109764 S    
O96   H128  0.990305 S    
C175  H112  1.110501 S    
C147  O71   1.382704 S    
C4    C78   1.467325 S    
O78   H86   0.990149 S    
C129  C132  1.195216 T    
C162  H56   1.110307 S    
C17   C107  1.465356 S    
C15   C91   1.426709 S    
C16   C97   1.194584 T    
C18   C108  1.465395 S    
C48   C52   1.412149 A    
C118  C158  1.516302 S    
O86   H118  0.989567 S    
C165  H65   1.110200 S    
O24   Zn8   1.993304 S    
O7    C3    1.284292 A    
C79   O57   1.386244 S    
C132  C144  1.432360 S    
C32   C170  1.521847 S    
O59   H19   0.986216 S    
C171  H100  1.110710 S    
Zn11  O47   1.996888 S    
C10   C91   1.399877 A    
O39   C113  1.278509 A    
C93   O61   1.382502 S    
O52   H12   0.990009 S    
C168  H75   1.110113 S    
O94   H126  0.990307 S    
C130  C131  1.195337 T    
C53   C57   1.402824 A    
O63   H35   0.990177 S    
C119  C123  1.417150 A    
O46   C115  1.279909 A    
C44   C48   1.405202 A    
C176  H116  1.110489 S    
O68   H52   0.990336 S    
O11   C7    1.283198 A    
O12   C8    1.271818 A    
O1    Zn1   2.005288 S    
O9    Zn1   1.994130 S    
O35   Zn11  2.010899 S    
O45   C115  1.280239 A    
C39   C43   1.417000 A    
C154  H25   1.110530 S    
O18   Zn6   2.003710 S    
O16   C8    1.284549 A    
C118  C127  1.413742 A    
C155  H28   1.110540 S    
C145  C149  1.412878 A    
O11   Zn2   1.994130 S    
Zn9   O45   1.996888 S    
C43   C111  1.459475 S    
C160  H46   1.110258 S    
C135  C139  1.408329 A    
C156  H31   1.110532 S    
C64   C88   1.427810 S    
C15   C98   1.194596 T    
C95   O63   1.382503 S    
O6    Zn3   2.005983 S    
Zn10  O46   2.011370 S    
C24   C104  1.453737 S    
C164  H64   1.110434 S    
C158  H40   1.104810 S    
C174  H108  1.107869 S    
C51   O93   1.382849 S    
O33   Zn9   2.010899 S    
O34   Zn10  1.996372 S    
C159  H44   1.110486 S    
O66   H50   0.988033 S    
Zn8   O32   2.004341 S    
C162  H58   1.106522 S    
C17   C93   1.408467 A    
C135  C144  1.412614 A    
C52   C56   1.402780 A    
O2    C2    1.280373 A    
O43   Zn12  1.996333 S    
C27   H1    1.086283 S    
C172  H102  1.110221 S    
C78   C82   1.412197 A    
C165  H67   1.106130 S    
C28   H2    1.086272 S    
C133  C137  1.411552 A    
O14   Zn3   1.994146 S    
C99   C146  1.400489 A    
C81   C85   1.419917 A    
C170  H96   1.110200 S    
C47   O89   1.382838 S    
C2    C76   1.467324 S    
C11   C95   1.413407 A    
C161  H54   1.110587 S    
C173  H105  1.107853 S    
C47   C51   1.412100 A    
C138  C141  1.413630 A    
O85   H117  0.989589 S    
C131  C143  1.432612 S    
C148  O72   1.382469 S    
C167  H71   1.106426 S    
C57   C61   1.427422 S    
C100  C147  1.400121 A    
C120  C128  1.411250 A    
C140  C142  1.415557 A    
C134  C138  1.412042 A    
O54   H14   0.991768 S    
O77   H85   0.990237 S    
C122  O66   1.385365 S    
C83   C87   1.415746 A    
C127  C129  1.431253 S    
O79   H87   0.990236 S    
C159  H43   1.106416 S    
C73   H7    1.083759 S    
C49   O91   1.382838 S    
O41   Zn10  1.996333 S    
