data_mof_unit_64643.cif
_audit_creation_date              2012-12-10T20:01:16-0500
_audit_creation_method            fapswitch 2.2
_symmetry_space_group_name_H-M    P1
_symmetry_Int_Tables_number       1
_space_group_crystal_system       triclinic
_cell_length_a                    32.13898
_cell_length_b                    32.13895
_cell_length_c                    23.56151
_cell_angle_alpha                 89.995169
_cell_angle_beta                  90.017149
_cell_angle_gamma                 89.978694
_cell_volume                      24336.9887984

loop_
_atom_site_label
_atom_site_type_symbol
_atom_type_description
_atom_site_fract_x
_atom_site_fract_y
_atom_site_fract_z
_atom_type_partial_charge
C1    C     C_R   0.000003 0.419359 0.499999 0.909282
C2    C     C_R   0.419359 0.000009 0.500010 0.909512
C3    C     C_R   0.999990 0.580647 0.500052 0.909176
C4    C     C_R   0.580642 0.999989 0.499999 0.909493
C5    C     C_R   0.500011 0.919352 0.000063 0.909066
C6    C     C_R   0.919353 0.500013 0.999947 0.909027
C7    C     C_R   0.499998 0.080639 0.999991 0.908968
C8    C     C_R   0.080645 0.499992 0.000068 0.909011
C9    C     C_1   0.999876 0.161852 0.500250 0.003471
C10   C     C_1   0.161855 0.000035 0.500213 0.003638
C11   C     C_1   0.999991 0.838128 0.500021 0.004137
C12   C     C_1   0.838151 0.999914 0.500223 0.003821
C13   C     C_1   0.500057 0.661870 0.999953 0.004280
C14   C     C_1   0.661870 0.499985 0.000115 0.004012
C15   C     C_1   0.500223 0.338143 0.000299 0.002797
C16   C     C_1   0.338121 0.500202 0.999755 0.003900
C17   C     C_1   0.999832 0.338023 0.500688 -0.041416
C18   C     C_1   0.338023 0.000170 0.501014 -0.041188
C19   C     C_1   0.999884 0.661985 0.502259 -0.039358
C20   C     C_1   0.661981 0.999806 0.500809 -0.041437
C21   C     C_1   0.500144 0.838010 0.002369 -0.039116
C22   C     C_1   0.838012 0.500235 0.997854 -0.039366
C23   C     C_1   0.500195 0.161971 0.000510 -0.041393
C24   C     C_1   0.161980 0.499844 0.002077 -0.039495
C25   C     C_1   0.999974 0.375249 0.500310 -0.177197
C26   C     C_1   0.375248 0.000052 0.500472 -0.176974
C27   C     C_1   0.999954 0.624763 0.501088 -0.175823
C28   C     C_1   0.624755 0.999937 0.500363 -0.177104
C29   C     C_1   0.500057 0.875233 0.001151 -0.175606
C30   C     C_1   0.875236 0.500082 0.998964 -0.175732
C31   C     C_1   0.500034 0.124747 0.000219 -0.177047
C32   C     C_1   0.124758 0.499956 0.001025 -0.175692
C33   C     C_1   0.999951 0.124660 0.500053 -0.199538
C34   C     C_1   0.124662 0.000007 0.500052 -0.199627
C35   C     C_1   0.999998 0.875326 0.499965 -0.199514
C36   C     C_1   0.875342 0.999972 0.500030 -0.199574
C37   C     C_1   0.500035 0.624673 0.999929 -0.199847
C38   C     C_1   0.624673 0.499982 0.000095 -0.199691
C39   C     C_1   0.500097 0.375337 0.000081 -0.199911
C40   C     C_1   0.375321 0.500127 0.999873 -0.199884
C41   C     C_R   0.999994 0.499999 0.390464 0.905842
C42   C     C_R   0.500000 0.000001 0.390464 0.905546
C43   C     C_R   0.000006 0.500000 0.609535 0.904195
C44   C     C_R   0.500000 0.999999 0.609535 0.904542
C45   C     C_R   0.499995 0.000001 0.890464 0.905643
C46   C     C_R   1.000000 0.500001 0.890464 0.904923
C47   C     C_R   0.500005 0.000001 0.109535 0.904146
C48   C     C_R   0.000000 0.499998 0.109535 0.904958
C49   C     C_R   0.080598 0.999993 0.500008 0.909026
C50   C     C_R   0.000002 0.919397 0.499994 0.908767
C51   C     C_R   0.919403 0.000009 0.499996 0.909174
C52   C     C_R   0.000006 0.080597 0.500003 0.909292
C53   C     C_R   0.580602 0.499993 0.000019 0.908669
C54   C     C_R   0.499996 0.419401 0.000009 0.909138
C55   C     C_R   0.419396 0.500026 0.999978 0.908504
C56   C     C_R   0.500008 0.580602 0.999987 0.908452
C57   C     C_1   0.999984 0.499996 0.330320 -0.176701
C58   C     C_1   0.500007 0.000005 0.330320 -0.176625
C59   C     C_1   0.000016 0.500001 0.669680 -0.177782
C60   C     C_1   0.499993 0.999996 0.669680 -0.177158
C61   C     C_1   0.499984 0.000000 0.830320 -0.176591
C62   C     C_1   0.000006 0.500004 0.830320 -0.177417
C63   C     C_1   0.500016 0.000003 0.169680 -0.177324
C64   C     C_1   0.999994 0.499995 0.169680 -0.177075
C65   C     C_1   0.999983 0.499995 0.279600 0.016091
C66   C     C_1   0.500013 0.000006 0.279600 0.016137
C67   C     C_1   0.000017 0.500003 0.720399 0.015252
C68   C     C_1   0.499987 0.999997 0.720399 0.015984
C69   C     C_1   0.499983 0.999999 0.779600 0.016228
C70   C     C_1   0.000013 0.500004 0.779600 0.015389
C71   C     C_1   0.500017 0.000005 0.220399 0.015859
C72   C     C_1   0.999987 0.499994 0.220399 0.015910
C73   C     C_R   0.031477 0.227920 0.529855 0.095777
C74   C     C_R   0.227950 0.965651 0.523380 0.097179
C75   C     C_R   0.961796 0.772005 0.496900 0.098687
C76   C     C_R   0.772057 0.033858 0.524471 0.096110
C77   C     C_R   0.967858 0.228026 0.471847 0.095879
C78   C     C_R   0.772010 0.965595 0.477328 0.096298
C79   C     C_R   0.038074 0.771983 0.505171 0.097789
C80   C     C_R   0.228006 0.034694 0.478386 0.095895
C81   C     C_R   0.538252 0.727998 0.996937 0.098607
C82   C     C_R   0.728011 0.462429 0.990104 0.096559
C83   C     C_R   0.471426 0.272057 0.034749 0.095178
C84   C     C_R   0.271989 0.537240 0.013083 0.097558
C85   C     C_R   0.461965 0.728008 0.005016 0.096987
C86   C     C_R   0.271969 0.463019 0.987769 0.096101
C87   C     C_R   0.529567 0.271978 0.966937 0.095800
C88   C     C_R   0.727996 0.537766 0.008352 0.098347
C89   C     C_R   0.999755 0.206434 0.500614 -0.076211
C90   C     C_R   0.206438 0.000098 0.500576 -0.076006
C91   C     C_R   0.999970 0.793539 0.500410 -0.077320
C92   C     C_R   0.793570 0.999810 0.500617 -0.076041
C93   C     C_R   0.500078 0.706459 0.000347 -0.077437
C94   C     C_R   0.706459 0.500023 0.999812 -0.077425
C95   C     C_R   0.500401 0.293559 0.000655 -0.076309
C96   C     C_R   0.293529 0.500212 0.999898 -0.077808
C97   C     C_R   0.967262 0.271711 0.472921 0.387906
C98   C     C_R   0.271680 0.035280 0.479897 0.387945
C99   C     C_R   0.038043 0.728320 0.507515 0.388528
C100  C     C_R   0.728328 0.965048 0.478601 0.387799
C101  C     C_R   0.031832 0.271616 0.529529 0.388089
C102  C     C_R   0.728359 0.034124 0.524214 0.388010
C103  C     C_R   0.961569 0.728340 0.499219 0.388294
C104  C     C_R   0.271652 0.965459 0.523348 0.388031
C105  C     C_R   0.461996 0.771666 0.007501 0.388316
C106  C     C_R   0.771660 0.538158 0.006032 0.388143
C107  C     C_R   0.530153 0.228288 0.967727 0.388170
C108  C     C_R   0.228317 0.462494 0.990184 0.388375
C109  C     C_R   0.538476 0.771660 0.999384 0.388162
C110  C     C_R   0.228327 0.536921 0.015510 0.388566
C111  C     C_R   0.470941 0.228366 0.034302 0.388271
C112  C     C_R   0.771670 0.462629 0.987719 0.388654
C113  C     C_R   0.999577 0.293451 0.501206 -0.143296
C114  C     C_R   0.293451 0.000387 0.501715 -0.143888
C115  C     C_R   0.999791 0.706557 0.503688 -0.146176
C116  C     C_R   0.706556 0.999595 0.501419 -0.143585
C117  C     C_R   0.500250 0.793436 0.003828 -0.146096
C118  C     C_R   0.793439 0.500433 0.996509 -0.145915
C119  C     C_R   0.500476 0.206541 0.000934 -0.143148
C120  C     C_R   0.206550 0.499632 0.003296 -0.145795
O1    O     O_R   0.965560 0.438990 0.499980 -0.614343
O2    O     O_R   0.438990 0.034440 0.499980 -0.614462
O3    O     O_R   0.034440 0.561010 0.499980 -0.613912
O4    O     O_R   0.561010 0.965560 0.499980 -0.614527
O5    O     O_R   0.034440 0.438990 0.500020 -0.613617
O6    O     O_R   0.561010 0.034440 0.500020 -0.613690
O7    O     O_R   0.965560 0.561010 0.500020 -0.614374
O8    O     O_R   0.438990 0.965560 0.500020 -0.613785
O9    O     O_R   0.465560 0.938990 0.999980 -0.613864
O10   O     O_R   0.938990 0.534440 0.999980 -0.614606
O11   O     O_R   0.534440 0.061010 0.999980 -0.614072
O12   O     O_R   0.061010 0.465560 0.999980 -0.614626
O13   O     O_R   0.534440 0.938990 0.000020 -0.614304
O14   O     O_R   0.061010 0.534440 0.000020 -0.613475
O15   O     O_R   0.465560 0.061010 0.000020 -0.613449
O16   O     O_R   0.938990 0.465560 0.000020 -0.613540
O17   O     O_R   0.060930 0.999970 0.453240 -0.615979
O18   O     O_R   0.999970 0.939070 0.453240 -0.616057
O19   O     O_R   0.939070 0.000030 0.453240 -0.616233
O20   O     O_R   0.000030 0.060930 0.453240 -0.616124
O21   O     O_R   0.939070 0.999970 0.546760 -0.616032
O22   O     O_R   0.000030 0.939070 0.546760 -0.615725
O23   O     O_R   0.060930 0.000030 0.546760 -0.616197
O24   O     O_R   0.999970 0.060930 0.546760 -0.616305
O25   O     O_R   0.560930 0.499970 0.953240 -0.615797
O26   O     O_R   0.499970 0.439070 0.953240 -0.616158
O27   O     O_R   0.439070 0.500030 0.953240 -0.616174
O28   O     O_R   0.500030 0.560930 0.953240 -0.616077
O29   O     O_R   0.439070 0.499970 0.046760 -0.615579
O30   O     O_R   0.500030 0.439070 0.046760 -0.616287
O31   O     O_R   0.560930 0.500030 0.046760 -0.615988
O32   O     O_R   0.499970 0.560930 0.046760 -0.615701
O33   O     O_R   0.965560 0.499980 0.417220 -0.612173
O34   O     O_R   0.499980 0.034440 0.417220 -0.612262
O35   O     O_R   0.034440 0.500020 0.417220 -0.612565
O36   O     O_R   0.500020 0.965560 0.417220 -0.612700
O37   O     O_R   0.034440 0.499980 0.582780 -0.612731
O38   O     O_R   0.500020 0.034440 0.582780 -0.612603
O39   O     O_R   0.965560 0.500020 0.582780 -0.613195
O40   O     O_R   0.499980 0.965560 0.582780 -0.612863
O41   O     O_R   0.465560 0.999980 0.917220 -0.612466
O42   O     O_R   0.999980 0.534440 0.917220 -0.612877
O43   O     O_R   0.534440 0.000020 0.917220 -0.612298
O44   O     O_R   0.000020 0.465560 0.917220 -0.612389
O45   O     O_R   0.534440 0.999980 0.082780 -0.612939
O46   O     O_R   0.000020 0.534440 0.082780 -0.612514
O47   O     O_R   0.465560 0.000020 0.082780 -0.612763
O48   O     O_R   0.999980 0.465560 0.082780 -0.612524
Zn1   Zn    Zn3+2 0.954010 0.500000 0.500000 0.989847
Zn2   Zn    Zn3+2 0.500000 0.045990 0.500000 0.990812
Zn3   Zn    Zn3+2 0.045990 0.500000 0.500000 0.990606
Zn4   Zn    Zn3+2 0.500000 0.954010 0.500000 0.990073
Zn5   Zn    Zn3+2 0.454010 0.000000 0.000000 0.990878
Zn6   Zn    Zn3+2 0.000000 0.545990 0.000000 0.990585
Zn7   Zn    Zn3+2 0.545990 0.000000 0.000000 0.990288
Zn8   Zn    Zn3+2 0.000000 0.454010 0.000000 0.990931
Zn9   Zn    Zn3+2 0.000000 0.000000 0.437610 0.971758
Zn10  Zn    Zn3+2 0.000000 0.000000 0.562390 0.971258
Zn11  Zn    Zn3+2 0.500000 0.500000 0.937610 0.971609
Zn12  Zn    Zn3+2 0.500000 0.500000 0.062390 0.971520
O49   O     O_3   0.064407 0.291521 0.556998 -0.766083
H1    H     H_    0.061785 0.322068 0.554250 0.352489
O50   O     O_3   0.291604 0.930393 0.544303 -0.766146
H2    H     H_    0.322142 0.933666 0.543253 0.352737
O51   O     O_3   0.923370 0.708347 0.497102 -0.765379
H3    H     H_    0.926393 0.678309 0.504988 0.352849
O52   O     O_3   0.708419 0.068853 0.546189 -0.765869
H4    H     H_    0.677874 0.065850 0.544318 0.352899
O53   O     O_3   0.934545 0.291727 0.445894 -0.766276
H5    H     H_    0.935584 0.322080 0.452262 0.352663
O54   O     O_3   0.708342 0.930177 0.457176 -0.766124
H6    H     H_    0.678018 0.931653 0.463645 0.352961
O55   O     O_3   0.076014 0.708309 0.513663 -0.765293
H7    H     H_    0.072127 0.678275 0.520821 0.352712
O56   O     O_3   0.291665 0.070519 0.459629 -0.765594
H8    H     H_    0.321928 0.069132 0.466671 0.353044
O57   O     O_3   0.576671 0.791662 0.997378 -0.765274
H9    H     H_    0.573644 0.821668 0.005486 0.352892
O58   O     O_3   0.791671 0.425266 0.976612 -0.765388
H10   H     H_    0.821696 0.429640 0.969944 0.352508
O59   O     O_3   0.440938 0.208459 0.066750 -0.765998
H11   H     H_    0.442984 0.177922 0.063067 0.352168
O60   O     O_3   0.208336 0.573645 0.030067 -0.765315
H12   H     H_    0.178294 0.568970 0.036193 0.352398
O61   O     O_3   0.424022 0.791673 0.013584 -0.765317
H13   H     H_    0.427917 0.821668 0.021037 0.352708
O62   O     O_3   0.208319 0.425070 0.979527 -0.765268
H14   H     H_    0.178314 0.427049 0.988197 0.352867
O63   O     O_3   0.560268 0.208282 0.935578 -0.766275
H15   H     H_    0.559502 0.177881 0.941575 0.352376
O64   O     O_3   0.791658 0.576026 0.013175 -0.765382
H16   H     H_    0.821696 0.573572 0.004945 0.352907
C121  C     C_3   0.065548 0.204367 0.561245 -0.311047
C122  C     C_3   0.100471 0.191674 0.520929 -0.835770
H17   H     H_    0.088498 0.170741 0.487184 0.253545
H18   H     H_    0.114492 0.219675 0.500991 0.280848
H19   H     H_    0.125014 0.174928 0.544998 0.244031
H20   H     H_    0.078961 0.223439 0.596035 0.249056
H21   H     H_    0.052670 0.176283 0.582374 0.189643
C123  C     C_3   0.204411 0.928485 0.547329 -0.318119
C124  C     C_3   0.191830 0.898441 0.500196 -0.826180
H22   H     H_    0.171030 0.914061 0.469164 0.253964
H23   H     H_    0.219901 0.886749 0.477784 0.280238
H24   H     H_    0.174982 0.871537 0.518761 0.239362
H25   H     H_    0.223448 0.911359 0.578997 0.249425
H26   H     H_    0.176280 0.938867 0.570781 0.189025
C125  C     C_3   0.920834 0.795469 0.491424 -0.323235
C126  C     C_3   0.904578 0.808672 0.549542 -0.823227
H27   H     H_    0.899281 0.780892 0.576646 0.279197
H28   H     H_    0.927118 0.829672 0.570868 0.256704
H29   H     H_    0.874631 0.825498 0.544452 0.241832
H30   H     H_    0.924566 0.823323 0.463970 0.186973
H31   H     H_    0.896808 0.776150 0.470131 0.249686
C127  C     C_3   0.795587 0.070481 0.549954 -0.312238
C128  C     C_3   0.808266 0.101540 0.504118 -0.834697
H32   H     H_    0.829196 0.086635 0.472619 0.254024
H33   H     H_    0.780256 0.113687 0.481994 0.280751
H34   H     H_    0.825011 0.128043 0.523909 0.244196
H35   H     H_    0.776509 0.086913 0.582235 0.249434
H36   H     H_    0.823675 0.059579 0.573086 0.189140
C129  C     C_3   0.933800 0.204592 0.440303 -0.310634
C130  C     C_3   0.899107 0.191348 0.480657 -0.838002
H37   H     H_    0.911342 0.170210 0.514003 0.253800
H38   H     H_    0.884973 0.219096 0.501117 0.280162
H39   H     H_    0.874585 0.174648 0.456512 0.244636
H40   H     H_    0.920137 0.223913 0.405938 0.249494
H41   H     H_    0.946763 0.176771 0.418613 0.189843
C131  C     C_3   0.795478 0.929059 0.451484 -0.312044
C132  C     C_3   0.808882 0.898148 0.497149 -0.836386
H42   H     H_    0.830005 0.913246 0.528240 0.254472
H43   H     H_    0.781201 0.885820 0.519805 0.280157
H44   H     H_    0.825651 0.871747 0.477118 0.241493
H45   H     H_    0.776134 0.912470 0.419647 0.249605
H46   H     H_    0.823229 0.940083 0.427751 0.188990
C133  C     C_3   0.079149 0.795419 0.508646 -0.322441
C134  C     C_3   0.088491 0.808495 0.569586 -0.821120
H47   H     H_    0.063758 0.829467 0.585863 0.257155
H48   H     H_    0.090609 0.780659 0.597391 0.278860
H49   H     H_    0.118640 0.825310 0.571074 0.238505
H50   H     H_    0.105330 0.776113 0.492721 0.249792
H51   H     H_    0.078627 0.823327 0.480830 0.186799
C135  C     C_3   0.204571 0.071592 0.453455 -0.311489
C136  C     C_3   0.191386 0.101980 0.499853 -0.836743
H52   H     H_    0.170203 0.086591 0.530587 0.254316
H53   H     H_    0.219151 0.113868 0.522775 0.280434
H54   H     H_    0.174760 0.128720 0.480442 0.244411
H55   H     H_    0.223893 0.088488 0.421903 0.249626
H56   H     H_    0.176720 0.060954 0.429593 0.189273
C137  C     C_3   0.579202 0.704540 0.991250 -0.322692
C138  C     C_3   0.595546 0.691096 0.049235 -0.823207
H57   H     H_    0.600980 0.718770 0.076484 0.279373
H58   H     H_    0.572994 0.670089 0.070514 0.256528
H59   H     H_    0.625433 0.674194 0.043934 0.239430
H60   H     H_    0.575414 0.676796 0.963605 0.187063
H61   H     H_    0.603209 0.723928 0.970049 0.249605
C139  C     C_3   0.704579 0.421771 0.981429 -0.320438
C140  C     C_3   0.691503 0.416622 0.919569 -0.819375
H62   H     H_    0.670532 0.442361 0.906475 0.257145
H63   H     H_    0.719337 0.416401 0.891628 0.278335
H64   H     H_    0.674684 0.386703 0.914292 0.238450
H65   H     H_    0.723891 0.394621 0.993993 0.249678
H66   H     H_    0.676671 0.420388 0.009173 0.186385
C141  C     C_3   0.440405 0.295576 0.071552 -0.310345
C142  C     C_3   0.402083 0.308149 0.037355 -0.834366
H67   H     H_    0.410875 0.329109 0.001865 0.253063
H68   H     H_    0.386452 0.280103 0.019912 0.280848
H69   H     H_    0.379851 0.324822 0.065344 0.242643
H70   H     H_    0.430294 0.276505 0.108359 0.248687
H71   H     H_    0.455019 0.323713 0.090318 0.190154
C143  C     C_3   0.295435 0.577397 0.025309 -0.322583
C144  C     C_3   0.308608 0.579596 0.087456 -0.817747
H72   H     H_    0.280812 0.578562 0.115431 0.278328
H73   H     H_    0.329535 0.553248 0.098216 0.257445
H74   H     H_    0.325512 0.609171 0.095286 0.238978
H75   H     H_    0.323303 0.580096 0.997670 0.185575
H76   H     H_    0.276107 0.605086 0.015225 0.249307
C145  C     C_3   0.420873 0.704567 0.007980 -0.319877
C146  C     C_3   0.411287 0.691114 0.068694 -0.821982
H77   H     H_    0.435988 0.670103 0.084992 0.256936
H78   H     H_    0.408975 0.718784 0.096769 0.278540
H79   H     H_    0.381167 0.674212 0.069696 0.239151
H80   H     H_    0.394748 0.723967 0.992071 0.249595
H81   H     H_    0.421501 0.676831 0.979856 0.185799
C147  C     C_3   0.295366 0.423352 0.972687 -0.314856
C148  C     C_3   0.308341 0.399763 0.026030 -0.829484
H82   H     H_    0.329517 0.419024 0.052422 0.255338
H83   H     H_    0.280492 0.391276 0.051425 0.280168
H84   H     H_    0.324901 0.370804 0.013798 0.242470
H85   H     H_    0.276046 0.402551 0.945805 0.249219
H86   H     H_    0.323319 0.430486 0.946731 0.187832
C149  C     C_3   0.560800 0.295435 0.930400 -0.314528
C150  C     C_3   0.598642 0.308552 0.965210 -0.828167
H87   H     H_    0.589273 0.329598 0.000329 0.252819
H88   H     H_    0.614353 0.280735 0.983232 0.279205
H89   H     H_    0.621022 0.325305 0.937545 0.239990
H90   H     H_    0.571493 0.276170 0.894091 0.249627
H91   H     H_    0.546150 0.323313 0.910941 0.190458
C151  C     C_3   0.704531 0.578116 0.019421 -0.320978
C152  C     C_3   0.691097 0.598508 0.963866 -0.825237
H92   H     H_    0.718777 0.605863 0.937491 0.279363
H93   H     H_    0.670100 0.577577 0.939673 0.255995
H94   H     H_    0.674185 0.627873 0.973093 0.239554
H95   H     H_    0.676782 0.572372 0.046411 0.187539
H96   H     H_    0.723908 0.600504 0.043722 0.249674

loop_
_geom_bond_atom_site_label_1
_geom_bond_atom_site_label_2
_ccdc_geom_bond_type
C82   C94   A    
C101  C113  A    
C108  C120  A    
C109  O57   S    
C144  H72   S    
C42   C58   S    
C121  H21   S    
O10   Zn6   S    
C147  H86   S    
C77   C89   A    
C52   O24   A    
C151  H95   S    
C46   C62   S    
O15   Zn5   S    
C79   C99   A    
C142  H67   S    
C47   O45   A    
C98   C114  A    
C134  H49   S    
C62   C70   T    
C136  H53   S    
O23   Zn10  S    
C45   O41   A    
C21   C117  S    
C37   C56   S    
O2    Zn2   S    
C18   C26   T    
C130  H38   S    
C145  H80   S    
C73   C101  A    
O58   H10   S    
C106  C118  A    
C75   C103  A    
O9    Zn5   S    
C126  H27   S    
C3    O3    A    
C88   C106  A    
C87   C149  S    
C125  H31   S    
O46   Zn6   S    
C130  H39   S    
O21   Zn10  S    
O16   Zn8   S    
C20   C28   T    
O49   H1    S    
C21   C29   T    
C23   C31   T    
O32   Zn12  S    
C42   O36   A    
O50   H2    S    
C24   C32   T    
C14   C38   T    
C125  C126  S    
O4    Zn4   S    
C40   C55   S    
O25   Zn11  S    
O40   Zn4   S    
C2    C26   S    
C15   C39   T    
C16   C40   T    
C6    C30   S    
C63   C71   T    
O28   Zn11  S    
C86   C147  S    
C138  H58   S    
C146  H77   S    
C22   C118  S    
O14   Zn6   S    
C141  H70   S    
C129  H41   S    
C142  H69   S    
C86   C108  A    
C87   C107  A    
C50   O18   A    
C99   O55   S    
C17   C25   T    
C74   C90   A    
C11   C35   T    
C45   O43   A    
O37   Zn3   S    
C47   C63   S    
C38   C53   S    
C139  H66   S    
C75   C125  S    
O5    Zn3   S    
C73   C89   A    
O56   H8    S    
C145  C146  S    
O27   Zn11  S    
C104  O50   S    
C84   C143  S    
O55   H7    S    
C74   C123  S    
C76   C127  S    
C126  H29   S    
C152  H93   S    
C49   O17   A    
C103  O51   S    
C6    O10   A    
O43   Zn7   S    
C111  O59   S    
O51   H3    S    
C17   C113  S    
C54   O30   A    
C33   C52   S    
C5    O13   A    
O34   Zn2   S    
C132  H42   S    
C137  H60   S    
C143  H76   S    
C42   O34   A    
C43   O39   A    
C23   C119  S    
C122  H18   S    
C39   C54   S    
C49   O23   A    
C47   O47   A    
C150  H87   S    
C4    O4    A    
C111  C119  A    
C129  C130  S    
O11   Zn7   S    
C59   C67   T    
C85   C93   A    
C85   C145  S    
C133  H51   S    
C148  H83   S    
C134  H48   S    
C78   C131  S    
C77   C97   A    
C79   C91   A    
C43   C59   S    
C97   O53   S    
C140  H62   S    
C88   C151  S    
C123  C124  S    
C55   O29   A    
C41   O33   A    
O62   H14   S    
C51   O21   A    
C76   C102  A    
C88   C94   A    
C16   C96   S    
C8    O14   A    
C80   C135  S    
C135  H55   S    
C131  H45   S    
O38   Zn2   S    
C78   C92   A    
O36   Zn4   S    
C144  H73   S    
C124  H22   S    
O6    Zn2   S    
C11   C91   S    
O63   H15   S    
C123  H26   S    
C127  H36   S    
O13   Zn7   S    
C60   C68   T    
C142  H68   S    
C128  H34   S    
C101  O49   S    
C74   C104  A    
O48   Zn8   S    
C133  H50   S    
C34   C49   S    
C22   C30   T    
C12   C92   S    
C43   O37   A    
C121  H20   S    
C135  C136  S    
O7    Zn1   S    
C65   C72   S    
C102  O52   S    
C150  H89   S    
C151  H96   S    
C67   C70   S    
C3    C27   S    
O22   Zn10  S    
C106  O64   S    
O57   H9    S    
C1    O1    A    
C139  C140  S    
C140  H64   S    
C141  C142  S    
C53   O31   A    
O18   Zn9   S    
C50   O22   A    
C41   O35   A    
C51   O19   A    
C44   O38   A    
C100  C116  A    
C149  C150  S    
C73   C121  S    
C126  H28   S    
C109  C117  A    
C136  H52   S    
C121  C122  S    
C124  H24   S    
C15   C95   S    
C48   C64   S    
C143  C144  S    
O12   Zn8   S    
C68   C69   S    
C132  H44   S    
C128  H32   S    
C56   O32   A    
C7    O11   A    
O47   Zn5   S    
C5    O9    A    
C137  C138  S    
C9    C33   T    
C138  H59   S    
C105  C117  A    
C146  H78   S    
C107  C119  A    
C2    O2    A    
C147  H85   S    
C24   C120  S    
C129  H40   S    
C9    C89   S    
O29   Zn12  S    
O54   H6    S    
C13   C93   S    
C110  O60   S    
C146  H79   S    
C82   C112  A    
C103  C115  A    
O41   Zn5   S    
O64   H16   S    
C81   C137  S    
C130  H37   S    
C145  H81   S    
C86   C96   A    
C81   C109  A    
C78   C100  A    
C44   O40   A    
C77   C129  S    
C127  C128  S    
C131  C132  S    
O30   Zn12  S    
O39   Zn1   S    
C80   C98   A    
C57   C65   T    
C98   O56   S    
C105  O61   S    
C107  O63   S    
C4    O6    A    
C54   O26   A    
C41   C57   S    
O52   H4    S    
O19   Zn9   S    
O31   Zn12  S    
C44   C60   S    
C149  H91   S    
C99   C115  A    
C45   C61   S    
C52   O20   A    
C150  H88   S    
O26   Zn11  S    
O44   Zn8   S    
C131  H46   S    
O53   H5    S    
C83   C141  S    
C152  H92   S    
C48   O46   A    
C10   C90   S    
C148  H82   S    
O33   Zn1   S    
C138  H57   S    
C14   C94   S    
O3    Zn3   S    
C2    O8    A    
C136  H54   S    
O1    Zn1   S    
O60   H12   S    
O59   H11   S    
C18   C114  S    
O61   H13   S    
C141  H71   S    
C1    O5    A    
C135  H56   S    
C3    O7    A    
C139  H65   S    
C84   C96   A    
C6    O16   A    
C58   C66   T    
C66   C71   S    
C8    O12   A    
C12   C36   T    
C19   C27   T    
C112  O58   S    
C13   C37   T    
C125  H30   S    
C152  H94   S    
C46   O44   A    
C149  H90   S    
C1    C25   S    
C128  H33   S    
C108  O62   S    
C85   C105  A    
C53   O25   A    
C4    C28   S    
O20   Zn9   S    
C5    C29   S    
C132  H43   S    
C7    C31   S    
C137  H61   S    
C143  H75   S    
C8    C32   S    
C144  H74   S    
C110  C120  A    
C20   C116  S    
C122  H17   S    
C84   C110  A    
C87   C95   A    
C56   O28   A    
C82   C139  S    
C7    O15   A    
C151  C152  S    
C81   C93   A    
C55   O27   A    
C48   O48   A    
C19   C115  S    
C148  H84   S    
C83   C95   A    
C134  H47   S    
C35   C50   S    
C10   C34   T    
C36   C51   S    
C76   C92   A    
C104  C114  A    
C147  C148  S    
O8    Zn4   S    
C140  H63   S    
C100  O54   S    
C97   C113  A    
C133  C134  S    
C61   C69   T    
O24   Zn10  S    
C122  H19   S    
O42   Zn6   S    
C75   C91   A    
O45   Zn7   S    
C124  H23   S    
C112  C118  A    
C123  H25   S    
C83   C111  A    
C127  H35   S    
C64   C72   T    
C80   C90   A    
C102  C116  A    
O35   Zn3   S    
O17   Zn9   S    
C46   O42   A    
C79   C133  S    
