data_mof_unit_39118.cif
_audit_creation_date              2012-12-11T15:12:44-0500
_audit_creation_method            fapswitch 2.2
_symmetry_space_group_name_H-M    P1
_symmetry_Int_Tables_number       1
_space_group_crystal_system       triclinic
_cell_length_a                    22.328543
_cell_length_b                    6.942143
_cell_length_c                    19.363202
_cell_angle_alpha                 90.000127
_cell_angle_beta                  99.191692
_cell_angle_gamma                 89.999798
_cell_volume                      2962.90971873

loop_
_atom_site_label
_atom_site_type_symbol
_atom_type_description
_atom_site_fract_x
_atom_site_fract_y
_atom_site_fract_z
_atom_type_partial_charge
O1    O     O_R   0.448420 0.506120 0.415750 -0.535570
O2    O     O_R   0.551580 0.006120 0.584250 -0.535573
O3    O     O_R   0.436490 0.174470 0.555610 -0.536930
O4    O     O_R   0.563510 0.674470 0.444390 -0.536930
C1    C     C_R   0.421209 0.344665 0.575965 0.719085
C2    C     C_R   0.578791 0.844665 0.424035 0.719086
O5    O     O_R   0.441310 0.176330 0.414520 -0.536656
O6    O     O_R   0.558690 0.676330 0.585480 -0.536655
O7    O     O_R   0.556430 0.007110 0.442150 -0.535563
O8    O     O_R   0.443570 0.507110 0.557850 -0.535562
C3    C     C_R   0.426928 0.344993 0.388222 0.695020
C4    C     C_R   0.573072 0.844993 0.611777 0.695019
O9    O     O_3   0.537770 0.339560 0.509230 -0.365365
O10   O     O_3   0.462230 0.839560 0.490770 -0.365364
V1    V     V_3+5 0.492990 0.064280 0.498290 1.422648
V2    V     V_3+5 0.507010 0.564280 0.501710 1.422650
C5    C     C_R   0.866450 0.981399 0.695877 -0.164356
C6    C     C_R   0.133545 0.481313 0.304126 -0.164355
H1    H     H_    0.953734 0.008085 0.759750 0.102387
H2    H     H_    0.046261 0.507993 0.240254 0.102385
H3    H     H_    0.783977 0.980351 0.581322 0.119016
H4    H     H_    0.216017 0.480227 0.418683 0.119015
H5    H     H_    0.884668 0.010636 0.648305 0.108311
H6    H     H_    0.115325 0.510505 0.351700 0.108310
C7    C     C_R   0.884249 0.941561 0.821580 -0.040356
C8    C     C_R   0.115751 0.441554 0.178420 -0.040353
C9    C     C_R   0.589634 0.814269 0.739946 -0.169483
C10   C     C_R   0.410369 0.314310 0.260053 -0.169487
C11   C     C_R   0.626071 0.810227 0.806095 0.139013
C12   C     C_R   0.373932 0.310290 0.193902 0.139016
C13   C     C_R   0.688628 0.842791 0.811213 -0.209416
C14   C     C_R   0.311374 0.342845 0.188785 -0.209416
C15   C     C_R   0.716147 0.879412 0.751604 0.060845
C16   C     C_R   0.283854 0.379426 0.248395 0.060844
C17   C     C_R   0.677992 0.884643 0.684796 0.066207
C18   C     C_R   0.322007 0.384628 0.315205 0.066207
C19   C     C_R   0.780318 0.910501 0.756136 0.084363
C20   C     C_R   0.219682 0.410497 0.243864 0.084364
C21   C     C_R   0.804163 0.947811 0.693615 0.141468
C22   C     C_R   0.195835 0.447754 0.306387 0.141467
C23   C     C_R   0.765842 0.952253 0.629041 -0.206312
C24   C     C_R   0.234154 0.452170 0.370962 -0.206310
C25   C     C_R   0.703906 0.920865 0.624574 -0.185324
C26   C     C_R   0.296091 0.420805 0.375428 -0.185319
C27   C     C_R   0.821953 0.906751 0.820191 -0.217230
C28   C     C_R   0.178048 0.406776 0.179808 -0.217227
C29   C     C_R   0.905961 0.979490 0.759263 -0.170212
C30   C     C_R   0.094035 0.479426 0.240739 -0.170214
C31   C     C_R   0.614619 0.851504 0.679546 -0.117310
C32   C     C_R   0.385381 0.351509 0.320453 -0.117308
H7    H     H_    0.807640 0.879806 0.869863 0.092079
H8    H     H_    0.192364 0.379874 0.130134 0.092076
H9    H     H_    0.541344 0.788107 0.734339 0.095264
H10   H     H_    0.458659 0.288161 0.265659 0.095263
H11   H     H_    0.714710 0.838061 0.863024 0.105049
H12   H     H_    0.285294 0.338137 0.136973 0.105049
H13   H     H_    0.676366 0.925538 0.573226 0.109224
H14   H     H_    0.323630 0.425456 0.426778 0.109217
C33   C     C_3   0.806300 0.744740 0.259500 -0.327417
C34   C     C_3   0.193705 0.244723 0.740505 -0.327416
C35   C     C_3   0.786999 0.100918 0.248837 -0.330438
C36   C     C_3   0.212995 0.600909 0.751157 -0.330437
C37   C     C_3   0.738949 0.083456 0.298606 -0.327638
C38   C     C_3   0.261045 0.583449 0.701388 -0.327636
H15   H     H_    0.780821 0.743531 0.364382 0.137295
H16   H     H_    0.219183 0.243496 0.635623 0.137294
H17   H     H_    0.851833 0.769532 0.291073 0.136463
H18   H     H_    0.148171 0.269496 0.708932 0.136462
H19   H     H_    0.775011 0.223885 0.212360 0.134921
H20   H     H_    0.224980 0.723888 0.787630 0.134920
H21   H     H_    0.832162 0.133142 0.280101 0.136876
H22   H     H_    0.167830 0.633116 0.719892 0.136877
H23   H     H_    0.761256 0.107180 0.353568 0.137004
H24   H     H_    0.238736 0.607154 0.646425 0.137004
H25   H     H_    0.704148 0.198279 0.285849 0.135092
H26   H     H_    0.295842 0.698284 0.714141 0.135091
C39   C     C_1   0.624325 0.854862 0.378258 -0.192712
C40   C     C_1   0.375675 0.354863 0.621742 -0.192713
C41   C     C_3   0.790370 0.912233 0.206620 0.292531
C42   C     C_3   0.209630 0.412233 0.793380 0.292532
C43   C     C_3   0.758187 0.727237 0.309172 -0.328369
C44   C     C_3   0.241818 0.227220 0.690834 -0.328369
C45   C     C_3   0.708058 0.882482 0.291728 0.290543
C46   C     C_3   0.291942 0.382483 0.708272 0.290544
C47   C     C_3   0.678270 0.855245 0.214250 -0.327554
C48   C     C_3   0.321731 0.355271 0.785750 -0.327553
C49   C     C_3   0.726395 0.872505 0.164507 -0.328313
C50   C     C_3   0.273606 0.372529 0.835493 -0.328311
C51   C     C_1   0.662024 0.866267 0.339471 -0.102088
C52   C     C_1   0.337976 0.366268 0.660529 -0.102087
C53   C     C_1   0.836672 0.928311 0.159180 -0.102443
C54   C     C_1   0.163328 0.428309 0.840820 -0.102443
C55   C     C_1   0.874825 0.939558 0.120943 -0.195090
C56   C     C_1   0.125175 0.439556 0.879057 -0.195090
H27   H     H_    0.727095 0.736916 0.133979 0.136504
H28   H     H_    0.272911 0.236947 0.866026 0.136503
H29   H     H_    0.713297 0.990964 0.126355 0.135952
H30   H     H_    0.286701 0.491000 0.873642 0.135951
H31   H     H_    0.656040 0.711511 0.207338 0.136739
H32   H     H_    0.343966 0.211544 0.792668 0.136739
H33   H     H_    0.808601 0.606669 0.230820 0.135686
H34   H     H_    0.191408 0.106657 0.769190 0.135685
H35   H     H_    0.737535 0.580968 0.304030 0.137005
H36   H     H_    0.262474 0.080958 0.695980 0.137003
H37   H     H_    0.642284 0.965592 0.199797 0.137961
H38   H     H_    0.357714 0.465630 0.800200 0.137960
O11   O     O_R   0.056480 0.288780 0.942210 -0.535512
O12   O     O_R   0.943520 0.788780 0.057790 -0.535512
O13   O     O_R   0.058700 0.616820 0.085490 -0.537989
O14   O     O_R   0.941300 0.116820 0.914510 -0.537989
C57   C     C_R   0.073284 0.448410 0.111683 0.693706
C58   C     C_R   0.926716 0.948410 0.888316 0.693706
O15   O     O_R   0.063520 0.618570 0.944410 -0.537634
O16   O     O_R   0.936480 0.118570 0.055590 -0.537635
O17   O     O_R   0.948420 0.787670 0.915740 -0.535910
O18   O     O_R   0.051580 0.287670 0.084260 -0.535909
C59   C     C_R   0.079100 0.449761 0.924178 0.726443
C60   C     C_R   0.920900 0.949761 0.075822 0.726445
O19   O     O_3   0.962260 0.453430 0.990800 -0.366335
O20   O     O_3   0.037740 0.953430 0.009200 -0.366334
V3    V     V_3+5 0.007000 0.728750 0.001710 1.418949
V4    V     V_3+5 0.993000 0.228750 0.998290 1.418949
C61   C     C_3   0.601200 0.770772 0.873361 -0.360398
C62   C     C_3   0.532554 0.733387 0.865026 -0.309642
C63   C     C_3   0.512922 0.694380 0.935723 -0.784666
H39   H     H_    0.536580 0.565210 0.960608 0.229186
H40   H     H_    0.523487 0.820321 0.970946 0.230993
H41   H     H_    0.463249 0.667974 0.928208 0.212362
H42   H     H_    0.507358 0.861282 0.841097 0.191539
H43   H     H_    0.520527 0.605908 0.830855 0.193092
H44   H     H_    0.625334 0.643171 0.899083 0.172635
H45   H     H_    0.612307 0.896388 0.908754 0.170773
C64   C     C_3   0.398806 0.270871 0.126634 -0.360398
C65   C     C_3   0.467450 0.233452 0.134971 -0.309643
C66   C     C_3   0.487083 0.194459 0.064273 -0.784663
H46   H     H_    0.463421 0.065302 0.039382 0.229184
H47   H     H_    0.476523 0.320412 0.029055 0.230995
H48   H     H_    0.536756 0.168037 0.071789 0.212362
H49   H     H_    0.492651 0.361329 0.158907 0.191537
H50   H     H_    0.479470 0.105958 0.169136 0.193095
H51   H     H_    0.374667 0.143294 0.100899 0.172635
H52   H     H_    0.387706 0.396513 0.091252 0.170771

loop_
_geom_bond_atom_site_label_1
_geom_bond_atom_site_label_2
_ccdc_geom_bond_type
C66   H48   S    
C12   C14   A    
C50   H28   S    
O4    V2    S    
O17   V3    S    
C61   H45   S    
C9    C11   A    
O1    C3    A    
O12   V3    S    
O2    C4    A    
C2    O7    A    
C41   C49   S    
C4    C31   S    
C18   C32   A    
C61   C62   S    
C21   C23   A    
H4    C24   S    
C40   C52   T    
O5    C3    A    
C39   C51   T    
C64   H52   S    
C5    H5    S    
C46   C52   S    
C6    H6    S    
C36   C42   S    
C46   C48   S    
O13   C57   A    
C65   H50   S    
C56   C59   S    
C48   C50   S    
C53   C55   T    
C27   H7    S    
C28   H8    S    
C36   H20   S    
C5    C21   A    
C35   C37   S    
C6    C22   A    
C38   C46   S    
C36   C38   S    
C7    C58   S    
C33   H17   S    
C10   C32   A    
C26   H14   S    
C49   H27   S    
C17   C31   A    
C63   H41   S    
C13   C15   A    
C57   O18   A    
C17   C25   A    
C7    C29   A    
C41   C53   S    
C8    C30   A    
C35   H21   S    
C47   C49   S    
O6    V2    S    
C11   C13   A    
C23   C25   A    
C48   H38   S    
C24   C26   A    
C34   H34   S    
C43   C45   S    
O20   V4    S    
O19   V3    S    
C45   C51   S    
C36   H22   S    
C33   H33   S    
O12   C60   A    
C66   H46   S    
O4    C2    A    
C33   C41   S    
C65   H49   S    
C10   H10   S    
C2    C39   S    
O5    V1    S    
C37   H23   S    
C15   C19   A    
C43   H35   S    
C37   C45   S    
C14   C16   A    
C42   C54   S    
C47   H31   S    
H16   C44   S    
H15   C43   S    
O6    C4    A    
C12   C64   S    
C54   C56   T    
C38   H26   S    
C62   H43   S    
O1    V2    S    
O16   C60   A    
O2    V1    S    
H2    C30   S    
C34   C44   S    
O15   C59   A    
C45   C47   S    
C44   C46   S    
O9    V1    S    
C63   H39   S    
H3    C23   S    
C18   C26   A    
C55   C60   S    
C19   C27   A    
C7    C27   A    
C48   H32   S    
O20   V3    S    
O18   V4    S    
O19   V4    S    
C35   H19   S    
C66   H47   S    
C34   C42   S    
C38   H24   S    
C61   H44   S    
C16   C20   A    
C5    C29   A    
O3    C1    A    
C6    C30   A    
C9    H9    S    
C65   C66   S    
C64   H51   S    
H1    C29   S    
C10   C12   A    
O7    V1    S    
C1    O8    A    
C42   C50   S    
C3    C32   S    
O8    V2    S    
O14   V4    S    
C20   C22   A    
O13   V3    S    
C64   C65   S    
C37   H25   S    
C35   C41   S    
C11   C61   S    
C22   C24   A    
C15   C17   A    
C16   C18   A    
O11   C59   A    
C62   H42   S    
O10   V2    S    
O14   C58   A    
C20   C28   A    
C25   H13   S    
O16   V4    S    
O15   V3    S    
C34   H18   S    
C19   C21   A    
O9    V2    S    
C33   C43   S    
C63   H40   S    
C44   H36   S    
O10   V1    S    
O3    V1    S    
C47   H37   S    
O11   V4    S    
C13   H11   S    
C1    C40   S    
C8    C28   A    
C8    C57   S    
C14   H12   S    
C58   O17   A    
C50   H30   S    
C9    C31   A    
C62   C63   S    
C49   H29   S    
