data_mof_unit_19752.cif
_audit_creation_date              2012-12-11T14:43:40-0500
_audit_creation_method            fapswitch 2.2
_symmetry_space_group_name_H-M    P1
_symmetry_Int_Tables_number       1
_space_group_crystal_system       triclinic
_cell_length_a                    20.811795
_cell_length_b                    7.103325
_cell_length_c                    16.396038
_cell_angle_alpha                 89.766945
_cell_angle_beta                  92.439402
_cell_angle_gamma                 90.24344
_cell_volume                      2421.63785465

loop_
_atom_site_label
_atom_site_type_symbol
_atom_type_description
_atom_site_fract_x
_atom_site_fract_y
_atom_site_fract_z
_atom_type_partial_charge
O1    O     O_R   0.564840 0.505290 0.579830 -0.537294
O2    O     O_R   0.435160 0.005290 0.420170 -0.537377
O3    O     O_R   0.556720 0.179930 0.409350 -0.537982
O4    O     O_R   0.443280 0.679930 0.590650 -0.536868
C1    C     C_R   0.570240 0.345599 0.380876 0.699832
C2    C     C_R   0.429675 0.843976 0.619124 0.699460
O5    O     O_R   0.572280 0.175810 0.578530 -0.542629
O6    O     O_R   0.427720 0.675810 0.421470 -0.542492
O7    O     O_R   0.450830 0.001920 0.590540 -0.536638
O8    O     O_R   0.549170 0.501920 0.409460 -0.535418
C3    C     C_R   0.590132 0.342758 0.604912 0.693365
C4    C     C_R   0.409850 0.842722 0.395079 0.693582
O9    O     O_3   0.460130 0.338030 0.503750 -0.372144
O10   O     O_3   0.539870 0.838030 0.496250 -0.371828
V1    V     V_3+5 0.507400 0.064560 0.499310 1.408545
V2    V     V_3+5 0.492600 0.564560 0.500690 1.410746
C5    C     C_R   0.144521 0.926796 0.167006 -0.063969
C6    C     C_R   0.855628 0.426791 0.832819 -0.065591
C7    C     C_R   0.355308 0.838985 0.333111 -0.064336
C8    C     C_R   0.644643 0.339041 0.666915 -0.066717
C9    C     C_R   0.290739 0.656459 0.232935 -0.202390
C10   C     C_R   0.708930 0.155914 0.767259 -0.201040
C11   C     C_R   0.345035 0.675710 0.285386 -0.161177
C12   C     C_R   0.654641 0.175323 0.714848 -0.161468
C13   C     C_R   0.310224 0.985406 0.325688 -0.244440
C14   C     C_R   0.690009 0.485755 0.674083 -0.243594
C15   C     C_R   0.254946 0.966026 0.273280 0.159859
C16   C     C_R   0.745277 0.466247 0.726480 0.158827
C17   C     C_R   0.244916 0.799820 0.226761 0.159755
C18   C     C_R   0.755019 0.299591 0.773210 0.158248
C19   C     C_R   0.189645 0.780461 0.174342 -0.246835
C20   C     C_R   0.810265 0.280100 0.825634 -0.245683
C21   C     C_R   0.154779 0.090027 0.214756 -0.158939
C22   C     C_R   0.845670 0.590464 0.784844 -0.159420
C23   C     C_R   0.209106 0.109345 0.267144 -0.201143
C24   C     C_R   0.791388 0.609880 0.732409 -0.200394
H1    H     H_    0.182911 0.654911 0.137528 0.124059
H2    H     H_    0.816779 0.154183 0.862600 0.125215
H3    H     H_    0.120848 0.205285 0.210912 0.126940
H4    H     H_    0.879799 0.706011 0.788570 0.127856
H5    H     H_    0.284332 0.528322 0.197802 0.121623
H6    H     H_    0.715121 0.027413 0.802539 0.121939
H7    H     H_    0.215508 0.237466 0.302286 0.121784
H8    H     H_    0.785219 0.738342 0.697097 0.121840
H9    H     H_    0.378935 0.560379 0.289289 0.126812
H10   H     H_    0.620534 0.059724 0.711113 0.128097
C25   C     C_R   0.377604 0.787829 0.834552 -0.159530
C26   C     C_R   0.619180 0.424323 0.165400 -0.159687
H11   H     H_    0.466945 0.768558 0.774771 0.104075
H12   H     H_    0.529730 0.407886 0.225270 0.102361
H13   H     H_    0.297005 0.790161 0.955061 0.125168
H14   H     H_    0.699210 0.453592 0.044798 0.125742
H15   H     H_    0.400084 0.756186 0.893844 0.112248
H16   H     H_    0.595432 0.447177 0.106087 0.112113
C27   C     C_R   0.389089 0.847072 0.690654 -0.044702
C28   C     C_R   0.610567 0.360021 0.309358 -0.043693
C29   C     C_R   0.077950 0.934054 0.732408 -0.213140
C30   C     C_R   0.922949 0.396652 0.267632 -0.212867
C31   C     C_R   0.110310 0.906323 0.661223 -0.118460
C32   C     C_R   0.889571 0.411169 0.338784 -0.118213
C33   C     C_R   0.175848 0.860411 0.663481 0.174724
C34   C     C_R   0.822489 0.431031 0.336451 0.176116
C35   C     C_R   0.212169 0.864915 0.739765 0.058553
C36   C     C_R   0.786721 0.412463 0.260186 0.058621
C37   C     C_R   0.176764 0.876241 0.812952 0.035379
C38   C     C_R   0.822350 0.415350 0.187016 0.034825
C39   C     C_R   0.281298 0.852200 0.747463 0.080521
C40   C     C_R   0.717621 0.397881 0.252490 0.080952
C41   C     C_R   0.310974 0.817002 0.825760 0.139043
C42   C     C_R   0.686581 0.421424 0.174166 0.138709
C43   C     C_R   0.274382 0.814296 0.895163 -0.202012
C44   C     C_R   0.722742 0.438517 0.104727 -0.201627
C45   C     C_R   0.208860 0.849763 0.889268 -0.179922
C46   C     C_R   0.789330 0.429023 0.110655 -0.180261
C47   C     C_R   0.322687 0.881533 0.681667 -0.228001
C48   C     C_R   0.677968 0.352046 0.318341 -0.228374
C49   C     C_R   0.415951 0.797319 0.767109 -0.165519
C50   C     C_R   0.581614 0.399432 0.232900 -0.164586
C51   C     C_R   0.109486 0.910669 0.808395 -0.078687
C52   C     C_R   0.890622 0.407822 0.191621 -0.078264
H17   H     H_    0.304923 0.933663 0.623311 0.124023
H18   H     H_    0.698010 0.306967 0.376729 0.124147
H19   H     H_    0.026803 0.962829 0.728146 0.113313
H20   H     H_    0.974981 0.388253 0.271915 0.112097
H21   H     H_    0.082848 0.909932 0.603568 0.125232
H22   H     H_    0.916941 0.418216 0.396437 0.125275
H23   H     H_    0.183247 0.853257 0.945365 0.110580
H24   H     H_    0.814894 0.435560 0.054545 0.110746
O11   O     O_R   0.950790 0.256670 0.090520 -0.534094
O12   O     O_R   0.049210 0.756670 0.909480 -0.533712
O13   O     O_R   0.927720 0.590370 0.921470 -0.542649
O14   O     O_R   0.072280 0.090370 0.078530 -0.542213
C53   C     C_R   0.910099 0.423026 0.894864 0.687698
C54   C     C_R   0.089954 0.923034 0.105094 0.687836
O15   O     O_R   0.943270 0.586180 0.090640 -0.535802
O16   O     O_R   0.056730 0.086180 0.909360 -0.536224
O17   O     O_R   0.064850 0.759970 0.079840 -0.537742
O18   O     O_R   0.935150 0.259970 0.920160 -0.537223
C55   C     C_R   0.930229 0.417156 0.118907 0.691854
C56   C     C_R   0.069869 0.918215 0.881122 0.691539
O19   O     O_3   0.039850 0.428050 0.996240 -0.370717
O20   O     O_3   0.960150 0.928050 0.003760 -0.370550
V3    V     V_3+5 0.992610 0.701540 0.000700 1.416239
V4    V     V_3+5 0.007390 0.201540 0.999300 1.417250
C57   C     C_3   0.200083 0.777570 0.585859 -0.821550
H25   H     H_    0.215177 0.891411 0.544127 0.206037
H26   H     H_    0.239396 0.675257 0.598565 0.217170
H27   H     H_    0.161327 0.695697 0.553295 0.210988
C58   C     C_3   0.794628 0.503570 0.413884 -0.824768
H28   H     H_    0.750905 0.589229 0.400967 0.217126
H29   H     H_    0.784932 0.384926 0.455950 0.206832
H30   H     H_    0.829258 0.600070 0.446167 0.211047
H31   H     H_    0.316982 0.111027 0.362447 0.123092
H32   H     H_    0.683480 0.611684 0.637127 0.124942

loop_
_geom_bond_atom_site_label_1
_geom_bond_atom_site_label_2
_ccdc_geom_bond_type
C35   C37   A    
C28   C48   A    
C15   C17   A    
C29   C51   A    
C1    C28   S    
O1    C3    A    
C2    C27   S    
O2    C4    A    
C2    O7    A    
C14   H32   S    
C28   C50   A    
C37   C51   A    
C26   H16   S    
C57   H26   S    
C21   H3    S    
H13   C43   S    
O11   C55   A    
C11   H9    S    
C36   C40   A    
C30   H20   S    
C58   H29   S    
C27   C49   A    
O15   C55   A    
C29   C31   A    
C30   C32   A    
C38   C46   A    
C37   C45   A    
C32   C34   A    
C26   C50   A    
C41   C43   A    
C25   C41   A    
C34   C36   A    
C45   H23   S    
C8    C12   A    
C29   H19   S    
C20   H2    S    
C23   H7    S    
O13   V3    S    
C22   C24   A    
C30   C52   A    
C25   H15   S    
C27   C47   A    
O5    V1    S    
O6    V2    S    
C17   C19   A    
C5    C21   A    
H12   C50   S    
O12   C56   A    
O15   V3    S    
O5    C3    A    
C57   H27   S    
C35   C39   A    
C3    C8    S    
C31   C33   A    
C51   C56   S    
C44   C46   A    
C58   H30   S    
C48   H18   S    
C43   C45   A    
C32   H22   S    
C47   H17   S    
C54   O17   A    
C15   C23   A    
C9    C17   A    
C19   H1    S    
C39   C41   A    
C36   C38   A    
O4    V2    S    
C7    C11   A    
C31   H21   S    
H14   C44   S    
C13   H31   S    
O13   C53   A    
O6    C4    A    
O14   C54   A    
O1    V2    S    
O20   V4    S    
O2    V1    S    
C6    C22   A    
O17   V3    S    
C9    H5    S    
O4    C2    A    
O19   V4    S    
C9    C11   A    
O11   V4    S    
C13   C15   A    
C5    C19   A    
C22   H4    S    
C24   H8    S    
C6    C20   A    
C25   C49   A    
C33   C57   S    
C6    C53   S    
C10   C18   A    
C33   C35   A    
C26   C42   A    
O3    C1    A    
C40   C48   A    
C38   C52   A    
C57   H25   S    
C14   C16   A    
C12   H10   S    
O16   V4    S    
O7    V1    S    
C1    O8    A    
C52   C55   S    
O8    V2    S    
C58   H28   S    
C18   C20   A    
C10   H6    S    
C34   C58   S    
C8    C14   A    
O18   V4    S    
O16   C56   A    
C4    C7    S    
C16   C18   A    
C21   C23   A    
H11   C49   S    
C10   C12   A    
O20   V3    S    
C7    C13   A    
O12   V3    S    
O14   V4    S    
C39   C47   A    
C16   C24   A    
O19   V3    S    
O9    V2    S    
C40   C42   A    
O10   V1    S    
O3    V1    S    
C42   C44   A    
C5    C54   S    
C46   H24   S    
C53   O18   A    
