data_mof_unit_53576.cif
_audit_creation_date              2012-12-11T15:06:58-0500
_audit_creation_method            fapswitch 2.2
_symmetry_space_group_name_H-M    P1
_symmetry_Int_Tables_number       1
_space_group_crystal_system       monoclinic
_cell_length_a                    19.574962
_cell_length_b                    11.362255
_cell_length_c                    18.687817
_cell_angle_alpha                 90.0
_cell_angle_beta                  91.186688
_cell_angle_gamma                 90.0
_cell_volume                      4155.57261457

loop_
_atom_site_label
_atom_site_type_symbol
_atom_type_description
_atom_site_fract_x
_atom_site_fract_y
_atom_site_fract_z
_atom_type_partial_charge
C1    C     C_R   0.760892 0.523790 0.639337 0.548378
C2    C     C_3   0.252489 0.056686 0.563398 0.064959
C3    C     C_R   0.728607 0.996401 0.143119 0.539466
C4    C     C_R   0.779680 0.144915 0.862353 0.564433
C5    C     C_R   0.220321 0.144912 0.137648 0.564437
C6    C     C_R   0.279680 0.644915 0.862353 0.564433
C7    C     C_R   0.720321 0.644912 0.137648 0.564437
C8    C     C_R   0.971005 0.352677 0.852723 0.545917
C9    C     C_R   0.028995 0.352677 0.147277 0.545919
C10   C     C_R   0.471005 0.852677 0.852723 0.545917
C11   C     C_R   0.528995 0.852677 0.147277 0.545919
C12   C     C_3   0.687214 0.132191 0.463680 -0.233309
C13   C     C_3   0.247511 0.556686 0.436602 0.064959
C14   C     C_3   0.312786 0.132191 0.536320 -0.233309
C15   C     C_3   0.187214 0.632191 0.463680 -0.233309
C16   C     C_3   0.812786 0.632191 0.536320 -0.233309
C17   C     C_3   0.691903 0.145484 0.545010 -0.234720
C18   C     C_3   0.308097 0.145484 0.454990 -0.234720
C19   C     C_3   0.191903 0.645484 0.545010 -0.234720
C20   C     C_3   0.808097 0.645484 0.454990 -0.234720
C21   C     C_3   0.756987 0.939563 0.480546 -0.222191
C22   C     C_3   0.243013 0.939563 0.519454 -0.222191
C23   C     C_3   0.256987 0.439563 0.480546 -0.222191
C24   C     C_3   0.752489 0.556686 0.563398 0.064959
C25   C     C_3   0.743013 0.439563 0.519454 -0.222191
C26   C     C_2   0.668508 0.985471 0.873102 0.534313
C27   C     C_2   0.331492 0.985470 0.126898 0.534310
C28   C     C_2   0.168508 0.485471 0.873102 0.534313
C29   C     C_2   0.831492 0.485470 0.126898 0.534311
C30   C     C_3   0.759402 0.090721 0.574221 0.061940
C31   C     C_3   0.240597 0.090721 0.425779 0.061940
C32   C     C_3   0.259402 0.590721 0.574221 0.061940
C33   C     C_3   0.740597 0.590721 0.425779 0.061940
C34   C     C_3   0.752980 0.958556 0.561742 -0.259513
C35   C     C_3   0.247020 0.958556 0.438258 -0.259514
C36   C     C_3   0.252980 0.458556 0.561742 -0.259513
C37   C     C_R   0.239108 0.523790 0.360663 0.548378
C38   C     C_3   0.747020 0.458556 0.438258 -0.259514
C39   C     C_3   0.822856 0.133834 0.531612 -0.218250
C40   C     C_3   0.177144 0.133834 0.468388 -0.218250
C41   C     C_3   0.322856 0.633834 0.531612 -0.218250
C42   C     C_3   0.677144 0.633834 0.468388 -0.218250
C43   C     C_3   0.003886 0.205998 0.459030 -0.231533
C44   C     C_3   0.996114 0.205998 0.540969 -0.231533
C45   C     C_3   0.503886 0.705998 0.459030 -0.231533
C46   C     C_3   0.496114 0.705998 0.540969 -0.231533
C47   C     C_3   0.064987 0.406076 0.475973 -0.215013
C48   C     C_R   0.260892 0.023790 0.639337 0.548378
C49   C     C_3   0.935013 0.406076 0.524027 -0.215013
C50   C     C_3   0.564987 0.906076 0.475973 -0.215013
C51   C     C_3   0.435013 0.906076 0.524027 -0.215013
C52   C     C_3   0.941694 0.390725 0.442943 -0.260756
C53   C     C_3   0.058306 0.390725 0.557057 -0.260756
C54   C     C_3   0.441694 0.890725 0.442943 -0.260756
C55   C     C_3   0.558306 0.890725 0.557057 -0.260756
C56   C     C_3   0.010910 0.333603 0.430987 0.064334
C57   C     C_3   0.989089 0.333603 0.569013 0.064334
C58   C     C_3   0.510910 0.833603 0.430987 0.064334
C59   C     C_R   0.739108 0.023790 0.360663 0.548378
C60   C     C_3   0.489090 0.833603 0.569013 0.064334
C61   C     C_3   0.811616 0.996194 0.042092 -0.246559
C62   C     C_3   0.188384 0.996195 0.957908 -0.246559
C63   C     C_3   0.311616 0.496195 0.042092 -0.246559
C64   C     C_3   0.688384 0.496195 0.957908 -0.246559
C65   C     C_R   0.773522 0.120669 0.649667 0.555100
C66   C     C_R   0.226478 0.120669 0.350333 0.555099
C67   C     C_R   0.273522 0.620669 0.649667 0.555100
C68   C     C_R   0.726478 0.620669 0.350333 0.555099
C69   C     C_3   0.814637 0.006822 0.961547 -0.236713
C70   C     C_3   0.811295 0.130528 0.450281 -0.260878
C71   C     C_3   0.185364 0.006820 0.038453 -0.236715
C72   C     C_3   0.314637 0.506822 0.961547 -0.236714
C73   C     C_3   0.685364 0.506820 0.038453 -0.236715
C74   C     C_3   0.682810 0.996746 0.012501 -0.280952
C75   C     C_3   0.317191 0.996747 0.987499 -0.280950
C76   C     C_3   0.182810 0.496746 0.012501 -0.280951
C77   C     C_3   0.817191 0.496747 0.987499 -0.280950
C78   C     C_3   0.738768 0.171607 0.063534 -0.229204
C79   C     C_3   0.261232 0.171608 0.936467 -0.229206
C80   C     C_3   0.238767 0.671607 0.063534 -0.229204
C81   C     C_3   0.188705 0.130528 0.549719 -0.260878
C82   C     C_3   0.761232 0.671608 0.936467 -0.229206
C83   C     C_3   0.739324 0.037722 0.067608 0.031621
C84   C     C_3   0.260677 0.037723 0.932392 0.031621
C85   C     C_3   0.239323 0.537722 0.067608 0.031621
C86   C     C_3   0.760677 0.537723 0.932392 0.031621
C87   C     C_3   0.762121 0.103224 0.935111 0.050009
C88   C     C_3   0.237880 0.103222 0.064889 0.050010
C89   C     C_3   0.262121 0.603224 0.935111 0.050009
C90   C     C_3   0.737880 0.603222 0.064889 0.050010
C91   C     C_3   0.688667 0.057886 0.938550 -0.045528
C92   C     C_3   0.311294 0.630528 0.450281 -0.260878
C93   C     C_3   0.311334 0.057886 0.061449 -0.045529
C94   C     C_3   0.188667 0.557886 0.938550 -0.045527
C95   C     C_3   0.811334 0.557886 0.061449 -0.045529
C96   C     C_3   0.765403 0.205199 0.989423 -0.300031
C97   C     C_3   0.234597 0.205198 0.010578 -0.300030
C98   C     C_3   0.265403 0.705198 0.989423 -0.300031
C99   C     C_3   0.734597 0.705198 0.010578 -0.300030
C100  C     C_3   0.998057 0.476363 0.040210 -0.240871
C101  C     C_3   0.001944 0.476363 0.959789 -0.240870
C102  C     C_3   0.498056 0.976363 0.040210 -0.240871
C103  C     C_3   0.688705 0.630528 0.549719 -0.260878
C104  C     C_3   0.501944 0.976363 0.959789 -0.240870
C105  C     C_3   0.065361 0.281549 0.031471 -0.226360
C106  C     C_3   0.934639 0.281548 0.968528 -0.226360
C107  C     C_3   0.565361 0.781549 0.031471 -0.226360
C108  C     C_3   0.434639 0.781548 0.968528 -0.226360
C109  C     C_3   0.943051 0.280583 0.051385 -0.266733
C110  C     C_3   0.056950 0.280584 0.948615 -0.266733
C111  C     C_3   0.443051 0.780583 0.051385 -0.266732
C112  C     C_3   0.556950 0.780584 0.948615 -0.266733
C113  C     C_R   0.968522 0.342294 0.644862 0.532432
C114  C     C_3   0.747511 0.056686 0.436602 0.064959
C115  C     C_R   0.031478 0.342294 0.355138 0.532433
C116  C     C_R   0.468522 0.842294 0.644862 0.532432
C117  C     C_R   0.531478 0.842294 0.355138 0.532433
C118  C     C_3   0.007979 0.348977 0.070093 0.071023
C119  C     C_3   0.992022 0.348977 0.929906 0.071023
C120  C     C_3   0.507978 0.848977 0.070093 0.071023
C121  C     C_3   0.492022 0.848977 0.929906 0.071023
C122  C     C_R   0.771393 0.496402 0.856881 0.539466
C123  C     C_R   0.228607 0.496401 0.143119 0.539466
C124  C     C_R   0.271393 0.996402 0.856881 0.539466
Cr1   Cr    Cr6+3 0.885690 0.492860 0.745310 1.012422
Cr2   Cr    Cr6+3 0.111880 0.178590 0.246990 1.002329
Cr3   Cr    Cr6+3 0.388120 0.678590 0.753010 1.002329
Cr4   Cr    Cr6+3 0.611880 0.678590 0.246990 1.002329
Cr5   Cr    Cr6+3 0.114310 0.492860 0.254690 1.012422
Cr6   Cr    Cr6+3 0.385690 0.992860 0.745310 1.012422
Cr7   Cr    Cr6+3 0.614310 0.992860 0.254690 1.012422
Cr8   Cr    Cr6+3 0.729880 0.332270 0.748190 1.020383
Cr9   Cr    Cr6+3 0.270120 0.332270 0.251810 1.020382
Cr10  Cr    Cr6+3 0.229880 0.832270 0.748190 1.020383
Cr11  Cr    Cr6+3 0.770120 0.832270 0.251810 1.020382
Cr12  Cr    Cr6+3 0.888120 0.178590 0.753010 1.002329
H1    H     H_    0.637958 0.096097 0.447346 0.134065
H2    H     H_    0.190127 0.909607 0.528836 0.124315
H3    H     H_    0.552244 0.009708 0.944464 0.158424
H4    H     H_    0.612511 0.820501 0.051825 0.095720
H5    H     H_    0.387489 0.820499 0.948174 0.095720
H6    H     H_    0.112511 0.320501 0.051825 0.095720
H7    H     H_    0.887489 0.320499 0.948174 0.095720
H8    H     H_    0.601744 0.818847 0.923295 0.153595
H9    H     H_    0.398256 0.818846 0.076704 0.153597
H10   H     H_    0.101744 0.318846 0.923295 0.153595
H11   H     H_    0.898256 0.318846 0.076704 0.153597
H12   H     H_    0.947186 0.188509 0.071276 0.113835
H13   H     H_    0.309873 0.409607 0.471164 0.124315
H14   H     H_    0.052815 0.188510 0.928724 0.113835
H15   H     H_    0.447186 0.688509 0.071276 0.113835
H16   H     H_    0.552815 0.688510 0.928724 0.113835
H17   H     H_    0.933609 0.188426 0.950643 0.135230
H18   H     H_    0.066392 0.188427 0.049356 0.135230
H19   H     H_    0.433609 0.688426 0.950643 0.135230
H20   H     H_    0.566392 0.688427 0.049356 0.135230
H21   H     H_    0.647564 0.102127 0.569690 0.110178
H22   H     H_    0.352436 0.102127 0.430310 0.110178
H23   H     H_    0.147564 0.602127 0.569690 0.110178
H24   H     H_    0.690127 0.409607 0.528836 0.124315
H25   H     H_    0.852436 0.602127 0.430310 0.110178
H26   H     H_    0.723050 0.869083 0.462331 0.107477
H27   H     H_    0.276950 0.869083 0.537669 0.107477
H28   H     H_    0.223050 0.369083 0.462331 0.107477
H29   H     H_    0.776950 0.369084 0.537669 0.107477
H30   H     H_    0.704295 0.924667 0.582663 0.109759
H31   H     H_    0.295705 0.924667 0.417337 0.109758
H32   H     H_    0.204295 0.424667 0.582663 0.109759
H33   H     H_    0.795705 0.424667 0.417337 0.109758
H34   H     H_    0.855827 0.089848 0.424074 0.123967
H35   H     H_    0.795025 0.910598 0.589991 0.126371
H36   H     H_    0.144173 0.089848 0.575926 0.123967
H37   H     H_    0.355827 0.589848 0.424074 0.123967
H38   H     H_    0.644173 0.589848 0.575926 0.123967
H39   H     H_    0.804861 0.220407 0.428251 0.108819
H40   H     H_    0.195138 0.220407 0.571749 0.108819
H41   H     H_    0.304861 0.720407 0.428251 0.108819
H42   H     H_    0.695139 0.720407 0.571749 0.108819
H43   H     H_    0.841468 0.219715 0.549861 0.112387
H44   H     H_    0.158532 0.219715 0.450139 0.112387
H45   H     H_    0.341468 0.719715 0.549861 0.112387
H46   H     H_    0.204975 0.910598 0.410009 0.126371
H47   H     H_    0.658532 0.719715 0.450139 0.112387
H48   H     H_    0.605914 0.968871 0.786494 0.343619
H49   H     H_    0.394084 0.968871 0.213508 0.343618
H50   H     H_    0.105914 0.468870 0.786494 0.343619
H51   H     H_    0.894084 0.468871 0.213508 0.343618
H52   H     H_    0.295025 0.410598 0.589991 0.126371
H53   H     H_    0.704975 0.410598 0.410009 0.126371
H54   H     H_    0.046244 0.151470 0.443165 0.129239
H55   H     H_    0.953756 0.151470 0.556835 0.129239
H56   H     H_    0.546244 0.651470 0.443165 0.129239
H57   H     H_    0.362042 0.096097 0.552654 0.134065
H58   H     H_    0.453756 0.651470 0.556835 0.129239
H59   H     H_    0.959141 0.162850 0.433298 0.109300
H60   H     H_    0.040859 0.162850 0.566701 0.109300
H61   H     H_    0.459141 0.662850 0.433298 0.109300
H62   H     H_    0.540859 0.662850 0.566701 0.109300
H63   H     H_    0.617141 0.890758 0.459040 0.110198
H64   H     H_    0.382859 0.890758 0.540960 0.110198
H65   H     H_    0.117141 0.390758 0.459040 0.110198
H66   H     H_    0.882859 0.390758 0.540960 0.110198
H67   H     H_    0.600114 0.835600 0.579574 0.105969
H68   H     H_    0.137958 0.596097 0.447346 0.134065
H69   H     H_    0.399886 0.835600 0.420426 0.105969
H70   H     H_    0.100114 0.335600 0.579574 0.105969
H71   H     H_    0.899886 0.335600 0.420426 0.105969
H72   H     H_    0.938582 0.477577 0.415832 0.125015
H73   H     H_    0.061418 0.477577 0.584168 0.125015
H74   H     H_    0.438582 0.977577 0.415832 0.125015
H75   H     H_    0.561418 0.977577 0.584168 0.125015
H76   H     H_    0.947019 0.499711 0.534607 0.129947
H77   H     H_    0.052981 0.499711 0.465393 0.129947
H78   H     H_    0.447019 0.999711 0.534607 0.129947
H79   H     H_    0.862042 0.596097 0.552654 0.134065
H80   H     H_    0.552981 0.999711 0.465393 0.129947
H81   H     H_    0.828595 0.908042 0.059498 0.130614
H82   H     H_    0.171405 0.908042 0.940502 0.130615
H83   H     H_    0.328595 0.408042 0.059498 0.130614
H84   H     H_    0.671405 0.408042 0.940502 0.130615
H85   H     H_    0.687884 0.220318 0.438372 0.110009
H86   H     H_    0.312115 0.220318 0.561628 0.110009
H87   H     H_    0.187884 0.720318 0.438372 0.110009
H88   H     H_    0.812116 0.720318 0.561628 0.110009
H89   H     H_    0.851589 0.054049 0.066669 0.136545
H90   H     H_    0.863450 0.068321 0.543251 0.129344
H91   H     H_    0.148411 0.054050 0.933332 0.136544
H92   H     H_    0.351589 0.554049 0.066669 0.136545
H93   H     H_    0.648411 0.554050 0.933332 0.136544
H94   H     H_    0.868312 0.028122 0.948849 0.125564
H95   H     H_    0.131689 0.028119 0.051152 0.125565
H96   H     H_    0.368312 0.528122 0.948849 0.125564
H97   H     H_    0.631689 0.528119 0.051152 0.125565
H98   H     H_    0.803337 0.920609 0.936325 0.175656
H99   H     H_    0.196664 0.920608 0.063675 0.175657
H100  H     H_    0.303337 0.420609 0.936325 0.175657
H101  H     H_    0.136549 0.068321 0.456749 0.129344
H102  H     H_    0.696664 0.420608 0.063675 0.175656
H103  H     H_    0.689314 0.905752 0.001433 0.118665
H104  H     H_    0.310687 0.905753 0.998565 0.118665
H105  H     H_    0.189314 0.405752 0.001433 0.118665
H106  H     H_    0.810687 0.405753 0.998565 0.118665
H107  H     H_    0.686361 0.207057 0.070920 0.135414
H108  H     H_    0.313639 0.207058 0.929081 0.135414
H109  H     H_    0.186361 0.707057 0.070920 0.135414
H110  H     H_    0.813639 0.707058 0.929081 0.135414
H111  H     H_    0.772524 0.207529 0.106489 0.197843
H112  H     H_    0.363450 0.568321 0.543251 0.129344
H113  H     H_    0.227476 0.207531 0.893512 0.197841
H114  H     H_    0.272524 0.707529 0.106489 0.197843
H115  H     H_    0.727476 0.707531 0.893512 0.197841
H116  H     H_    0.818397 0.223502 0.999831 0.120010
H117  H     H_    0.181603 0.223500 0.000171 0.120010
H118  H     H_    0.318397 0.723502 0.999831 0.120010
H119  H     H_    0.681603 0.723500 0.000171 0.120010
H120  H     H_    0.737655 0.279678 0.967811 0.111472
H121  H     H_    0.262344 0.279678 0.032191 0.111473
H122  H     H_    0.237655 0.779679 0.967811 0.111472
H123  H     H_    0.636549 0.568321 0.456749 0.129344
H124  H     H_    0.762344 0.779678 0.032191 0.111473
H125  H     H_    0.633051 0.013800 0.035113 0.103446
H126  H     H_    0.366949 0.013802 0.964886 0.103447
H127  H     H_    0.133051 0.513800 0.035113 0.103446
H128  H     H_    0.866949 0.513802 0.964886 0.103447
H129  H     H_    0.686965 0.237536 0.560329 0.136756
H130  H     H_    0.313035 0.237536 0.439671 0.136756
H131  H     H_    0.186965 0.737536 0.560329 0.136756
H132  H     H_    0.813035 0.737536 0.439671 0.136756
H133  H     H_    0.652957 0.134457 0.938175 0.116723
H134  H     H_    0.809873 0.909607 0.471164 0.124315
H135  H     H_    0.347043 0.134457 0.061825 0.116722
H136  H     H_    0.152957 0.634457 0.938175 0.116722
H137  H     H_    0.847043 0.634457 0.061825 0.116722
H138  H     H_    0.033169 0.544249 0.061820 0.142081
H139  H     H_    0.966831 0.544249 0.938179 0.142082
H140  H     H_    0.533169 0.044249 0.061820 0.142081
H141  H     H_    0.466831 0.044249 0.938179 0.142082
H142  H     H_    0.947757 0.509708 0.055535 0.158422
H143  H     H_    0.052244 0.509708 0.944464 0.158424
H144  H     H_    0.447757 0.009708 0.055535 0.158422
O1    O     O_R   0.957210 0.449410 0.665480 -0.531043
O2    O     O_R   0.167480 0.095300 0.164000 -0.516022
O3    O     O_R   0.332520 0.595300 0.836000 -0.516019
O4    O     O_R   0.667480 0.595300 0.164000 -0.516022
O5    O     O_R   0.946380 0.253940 0.826940 -0.523444
O6    O     O_R   0.053620 0.253940 0.173060 -0.523443
O7    O     O_R   0.446380 0.753940 0.826940 -0.523444
O8    O     O_R   0.553620 0.753940 0.173060 -0.523443
O9    O     O_3   0.834560 0.334570 0.748840 -0.302820
O10   O     O_3   0.165440 0.334570 0.251160 -0.302820
O11   O     O_3   0.334560 0.834570 0.748840 -0.302820
O12   O     O_R   0.042790 0.449410 0.334520 -0.531043
O13   O     O_3   0.665440 0.834570 0.251160 -0.302820
O14   O     O_R   0.820730 0.541240 0.668250 -0.509745
O15   O     O_R   0.179270 0.541240 0.331750 -0.509746
O16   O     O_R   0.320730 0.041240 0.668250 -0.509745
O17   O     O_R   0.679270 0.041240 0.331750 -0.509746
O18   O     O_R   0.714240 0.455060 0.663710 -0.528576
O19   O     O_R   0.285760 0.455060 0.336290 -0.528576
O20   O     O_R   0.214240 0.955060 0.663710 -0.528576
O21   O     O_R   0.785760 0.955060 0.336290 -0.528576
O22   O     O_R   0.736780 0.204870 0.675910 -0.506196
O23   O     O_R   0.457210 0.949410 0.665480 -0.531043
O24   O     O_R   0.263220 0.204870 0.324090 -0.506196
O25   O     O_R   0.236780 0.704870 0.675910 -0.506196
O26   O     O_R   0.763220 0.704870 0.324090 -0.506196
O27   O     O_R   0.833070 0.087590 0.673490 -0.522682
O28   O     O_R   0.166930 0.087590 0.326510 -0.522683
O29   O     O_R   0.333070 0.587590 0.673490 -0.522682
O30   O     O_R   0.666930 0.587590 0.326510 -0.522683
O31   O     O_R   0.946890 0.246800 0.676300 -0.513147
O32   O     O_R   0.053110 0.246800 0.323700 -0.513146
O33   O     O_R   0.446890 0.746800 0.676300 -0.513147
O34   O     O_R   0.542790 0.949410 0.334520 -0.531043
O35   O     O_R   0.553110 0.746800 0.323700 -0.513146
O36   O     O_R   0.956650 0.457120 0.827980 -0.509622
O37   O     O_R   0.043350 0.457120 0.172020 -0.509622
O38   O     O_R   0.456650 0.957120 0.827980 -0.509622
O39   O     O_R   0.543350 0.957120 0.172020 -0.509622
O40   O     O_R   0.820220 0.548390 0.818890 -0.496126
O41   O     O_R   0.179780 0.548390 0.181110 -0.496127
O42   O     O_R   0.320220 0.048390 0.818890 -0.496126
O43   O     O_R   0.679780 0.048390 0.181110 -0.496127
O44   O     O_R   0.713680 0.462770 0.826210 -0.523234
O45   O     O_R   0.736260 0.212010 0.826560 -0.498109
O46   O     O_R   0.286320 0.462770 0.173790 -0.523233
O47   O     O_R   0.213680 0.962770 0.826210 -0.523234
O48   O     O_R   0.786320 0.962770 0.173790 -0.523233
O49   O     O_2   0.702615 0.900977 0.855332 -0.566983
O50   O     O_R   0.613582 0.022010 0.829507 -0.699766
O51   O     O_2   0.297386 0.900975 0.144667 -0.566987
O52   O     O_R   0.386417 0.022010 0.170494 -0.699763
O53   O     O_2   0.202615 0.400977 0.855332 -0.566983
O54   O     O_R   0.113582 0.522009 0.829507 -0.699767
O55   O     O_2   0.797386 0.400975 0.144667 -0.566987
O56   O     O_R   0.263740 0.212010 0.173440 -0.498111
O57   O     O_R   0.886417 0.522010 0.170494 -0.699763
O58   O     O_R   0.236260 0.712010 0.826560 -0.498109
O59   O     O_R   0.763740 0.712010 0.173440 -0.498111
O60   O     O_R   0.832520 0.095300 0.836000 -0.516019

loop_
_geom_bond_atom_site_label_1
_geom_bond_atom_site_label_2
_ccdc_geom_bond_type
C105  C110  S    
C87   C91   S    
Cr6   O23   S    
C107  C112  S    
C74   C83   S    
C90   C95   S    
C4    C87   S    
C1    O14   A    
C61   H81   S    
Cr12  O9    S    
Cr10  O25   S    
C64   H93   S    
C46   H62   S    
Cr12  O5    S    
C27   O52   S    
Cr6   O16   S    
C36   H32   S    
Cr7   O13   S    
C28   C94   S    
C63   H83   S    
C89   C94   S    
C65   O27   A    
C76   C94   S    
C40   H44   S    
C5    C88   S    
C66   O28   A    
C78   C96   S    
C2    C22   S    
C88   C97   S    
C47   C53   S    
C80   C98   S    
C98   H122  S    
C23   H13   S    
C8    O36   A    
C17   C30   S    
C75   H104  S    
C19   C32   S    
H49   O52   S    
C109  C118  S    
Cr3   O29   S    
C44   H60   S    
C81   H40   S    
Cr3   O7    S    
C1    O18   A    
Cr10  O11   S    
Cr4   O8    S    
C18   H130  S    
C82   H110  S    
C67   O29   A    
C72   H100  S    
C36   H52   S    
C16   H79   S    
C15   C19   S    
C43   C44   S    
C44   C57   S    
C16   C20   S    
C54   H69   S    
C55   H67   S    
Cr10  O20   S    
C96   H120  S    
C49   H66   S    
C20   C33   S    
C3    C83   S    
Cr10  O47   S    
Cr9   O24   S    
C105  C118  S    
C16   H88   S    
C107  C120  S    
C75   C93   S    
C38   H33   S    
Cr8   O44   S    
C123  O41   A    
C46   C60   S    
C79   C97   S    
C33   C38   S    
C110  H14   S    
C28   O54   S    
C78   H107  S    
C108  C111  S    
C76   H105  S    
C19   H23   S    
C108  H19   S    
C85   C123  S    
C58   C117  S    
C2    C14   S    
C71   C88   S    
C74   H125  S    
C23   C36   S    
C115  O12   A    
C71   H95   S    
Cr8   O9    S    
C2    C81   S    
C18   C31   S    
C48   O20   A    
C76   C85   S    
Cr1   O9    S    
C34   H35   S    
C62   H91   S    
Cr6   O42   S    
C37   O19   A    
C122  O40   A    
C29   O55   D    
C42   C103  S    
C113  O31   A    
Cr8   O18   S    
C33   C42   S    
C32   C36   S    
C68   O26   A    
C73   C90   S    
Cr1   O40   S    
C79   C84   S    
C75   C84   S    
Cr5   O15   S    
C45   H61   S    
C47   H77   S    
C107  H4    S    
C49   C57   S    
C13   C23   S    
C43   H59   S    
C39   H90   S    
C3    O43   A    
Cr6   O11   S    
Cr11  O59   S    
C32   C41   S    
C71   H99   S    
C17   H21   S    
Cr2   O32   S    
C48   O16   A    
C37   O15   A    
C80   H114  S    
C9    C118  S    
C109  H11   S    
C11   C120  S    
C26   O50   S    
C46   H58   S    
C12   C114  S    
C30   C34   S    
C5    O2    A    
C43   H54   S    
C105  H6    S    
C57   C113  S    
C7    C90   S    
C103  H38   S    
C100  H138  S    
Cr5   O41   S    
C86   C122  S    
C6    O58   A    
C25   C38   S    
C93   H135  S    
C94   H136  S    
C53   H70   S    
C32   C67   S    
C51   H78   S    
Cr3   O33   S    
Cr1   O1    S    
Cr5   O10   S    
Cr2   O6    S    
C41   H112  S    
C60   C116  S    
Cr4   O4    S    
C90   C99   S    
C19   H131  S    
C23   H28   S    
C67   O25   A    
Cr11  O48   S    
C62   C84   S    
C21   H26   S    
C72   H96   S    
C110  C119  S    
C39   H43   S    
C50   H63   S    
Cr4   O35   S    
C123  O46   A    
C89   C98   S    
C24   C103  S    
Cr11  O13   S    
C112  C121  S    
Cr12  O60   S    
C27   O51   D    
C49   H76   S    
C100  C101  S    
C30   C39   S    
C30   C65   S    
C51   H64   S    
C54   H74   S    
C1    C24   S    
C122  O44   A    
C51   C60   S    
C110  H10   S    
C63   C85   S    
C33   C68   S    
C47   C56   S    
C59   O21   A    
C106  C109  S    
Cr7   O39   S    
C106  C119  S    
C52   H71   S    
C82   C99   S    
C6    O3    A    
C108  C121  S    
C68   O30   A    
C20   H132  S    
Cr1   O14   S    
C106  H7    S    
C45   C46   S    
C5    O56   A    
C29   O57   S    
C66   O24   A    
C97   H117  S    
C117  O35   A    
Cr7   O34   S    
C31   C40   S    
Cr2   O10   S    
C78   C83   S    
Cr5   O12   S    
C12   C17   S    
C21   H134  S    
C112  H16   S    
C73   H97   S    
C69   C87   S    
C3    O48   A    
Cr8   O22   S    
C55   C60   S    
C41   H45   S    
Cr1   O36   S    
C40   C81   S    
C64   C86   S    
C108  H5    S    
Cr4   O13   S    
C45   C58   S    
C50   C58   S    
C61   C83   S    
C53   C57   S    
C21   C34   S    
C25   H29   S    
C26   C91   S    
C82   C86   S    
C74   C91   S    
C104  H141  S    
Cr2   O28   S    
C80   C85   S    
C18   H22   S    
C116  O33   A    
C45   H56   S    
C50   H80   S    
C38   H53   S    
C25   H24   S    
C79   H108  S    
C9    O37   A    
C8    O5    A    
Cr12  O31   S    
C14   H57   S    
C11   O39   A    
C13   C92   S    
C65   O22   A    
C31   C35   S    
C100  C118  S    
C96   H116  S    
C102  C120  S    
C124  O42   A    
C100  H142  S    
C101  H143  S    
C102  H144  S    
C63   H92   S    
C22   H2    S    
C95   H137  S    
C104  H3    S    
C2    C48   S    
Cr9   O10   S    
C103  H42   S    
C115  O32   A    
C70   H34   S    
Cr9   O56   S    
C124  O47   A    
C59   C114  S    
Cr2   O2    S    
C4    O45   A    
C56   C115  S    
C15   H87   S    
C73   H102  S    
C63   C72   S    
C53   H73   S    
Cr7   O17   S    
C34   H30   S    
Cr7   O43   S    
C7    O4    A    
H51   O57   S    
C113  O1    A    
Cr5   O37   S    
C31   C66   S    
C22   H27   S    
C77   H128  S    
C14   C18   S    
C4    O60   A    
C10   C121  S    
C15   H68   S    
C97   H121  S    
C70   C114  S    
C35   H46   S    
C28   O53   D    
C9    O6    A    
C80   H109  S    
C62   H82   S    
C11   O8    A    
C111  H9    S    
C44   H55   S    
H50   O54   S    
Cr4   O30   S    
C47   H65   S    
C81   H36   S    
Cr3   O3    S    
C74   H103  S    
C99   H119  S    
C59   O17   A    
Cr6   O38   S    
C62   C71   S    
C17   H129  S    
Cr10  O58   S    
C70   H39   S    
C13   C37   S    
C107  H20   S    
C49   C52   S    
C105  H18   S    
C75   H126  S    
C16   C24   S    
C79   H113  S    
C42   H123  S    
Cr11  O21   S    
C117  O34   A    
C64   H84   S    
C77   H106  S    
C101  C119  S    
C82   H115  S    
C24   C25   S    
C92   H41   S    
C29   C95   S    
Cr3   O11   S    
C104  C121  S    
C116  O23   A    
C77   C95   S    
C61   H89   S    
C111  C120  S    
C7    O59   A    
C69   H98   S    
C40   H101  S    
C35   H31   S    
C64   C73   S    
C87   C96   S    
C78   H111  S    
Cr9   O19   S    
C106  H17   S    
C42   H47   S    
C102  C104  S    
Cr8   O45   S    
C76   H127  S    
C77   C86   S    
C13   C15   S    
C109  H12   S    
C98   H118  S    
C26   O49   D    
C54   C58   S    
C61   C69   S    
C88   C93   S    
C52   H72   S    
C10   O7    A    
C14   H86   S    
C21   C114  S    
C91   H133  S    
C111  H15   S    
Cr9   O46   S    
C92   H37   S    
C84   C124  S    
C6    C89   S    
C50   C55   S    
C51   C54   S    
C112  H8    S    
C22   C35   S    
C69   H94   S    
C8    C119  S    
C72   C89   S    
Cr12  O27   S    
C10   O38   A    
C99   H124  S    
C20   H25   S    
C39   C70   S    
C12   H85   S    
C27   C93   S    
C55   H75   S    
C43   C56   S    
C41   C92   S    
H48   O50   S    
Cr11  O26   S    
C12   H1    S    
C101  H139  S    
C102  H140  S    
C52   C56   S    
