data_mof_unit_8076.cif
_audit_creation_date              2012-12-11T15:55:03-0500
_audit_creation_method            fapswitch 2.2
_symmetry_space_group_name_H-M    P1
_symmetry_Int_Tables_number       1
_space_group_crystal_system       triclinic
_cell_length_a                    17.497555
_cell_length_b                    24.296597
_cell_length_c                    14.947394
_cell_angle_alpha                 90.00794
_cell_angle_beta                  125.493501
_cell_angle_gamma                 89.961639
_cell_volume                      5173.79657382

loop_
_atom_site_label
_atom_site_type_symbol
_atom_type_description
_atom_site_fract_x
_atom_site_fract_y
_atom_site_fract_z
_atom_type_partial_charge
C1    C     C_R   0.901647 0.877367 0.092723 -0.135772
C2    C     C_R   0.901461 0.122434 0.092695 -0.149266
C3    C     C_R   0.401644 0.377368 0.092721 -0.135765
C4    C     C_R   0.401462 0.622435 0.092695 -0.149269
C5    C     C_R   0.058607 0.847735 0.908907 -0.119709
C6    C     C_R   0.058781 0.152270 0.909074 -0.124926
C7    C     C_R   0.558611 0.347737 0.908906 -0.119701
C8    C     C_R   0.558777 0.652272 0.909077 -0.124915
C9    C     C_R   0.148911 0.152021 0.092140 -0.109380
C10   C     C_R   0.148429 0.847755 0.091902 -0.114805
C11   C     C_R   0.648908 0.652022 0.092142 -0.109394
C12   C     C_R   0.648431 0.347756 0.091901 -0.114811
C13   C     C_R   0.324921 0.999722 0.285445 -0.030998
C14   C     C_R   0.824921 0.499722 0.285452 -0.031002
C15   C     C_R   0.051199 0.000004 0.726728 0.017889
C16   C     C_R   0.551203 0.500020 0.726733 0.017901
C17   C     C_R   0.119588 0.816333 0.000809 -0.014033
C18   C     C_R   0.120123 0.183477 0.001131 -0.013735
C19   C     C_R   0.619592 0.316335 0.000807 -0.014035
C20   C     C_R   0.620119 0.683479 0.001134 -0.013736
C21   C     C_3   0.969027 0.999558 0.431003 -0.415524
C22   C     C_3   0.123878 0.948528 0.542527 -0.392316
C23   C     C_3   0.622041 0.552071 0.541222 -0.378713
C24   C     C_3   0.469019 0.499344 0.431005 -0.415530
C25   C     C_3   0.964263 0.999888 0.529273 -0.385420
C26   C     C_3   0.118935 0.948444 0.642030 -0.396627
C27   C     C_3   0.618203 0.551818 0.641485 -0.406969
C28   C     C_3   0.464258 0.499744 0.529277 -0.385460
C29   C     C_3   0.122406 0.051935 0.541490 -0.378241
C30   C     C_3   0.624206 0.448667 0.542762 -0.392027
C31   C     C_3   0.072416 0.999998 0.469889 0.366650
C32   C     C_3   0.572400 0.500015 0.469879 0.366746
C33   C     C_3   0.064414 0.000014 0.638092 0.377312
C34   C     C_3   0.564410 0.500039 0.638090 0.377293
C35   C     C_R   0.809002 0.122184 0.908487 -0.126693
C36   C     C_R   0.809257 0.877419 0.908429 -0.143346
C37   C     C_R   0.309002 0.622185 0.908488 -0.126690
C38   C     C_R   0.309256 0.377420 0.908427 -0.143346
C39   C     C_3   0.118461 0.051706 0.641685 -0.407134
C40   C     C_3   0.619175 0.448554 0.642209 -0.396681
C41   C     C_3   0.651421 0.178064 0.900849 -0.396989
C42   C     C_3   0.651170 0.823083 0.904530 -0.383898
C43   C     C_3   0.151421 0.678063 0.900851 -0.396987
C44   C     C_3   0.151171 0.323075 0.904506 -0.383890
C45   C     C_3   0.098033 0.727519 0.904180 -0.409840
C46   C     C_3   0.098496 0.272465 0.905213 -0.410651
C47   C     C_3   0.598035 0.227521 0.904178 -0.409839
C48   C     C_3   0.598487 0.772480 0.905249 -0.410651
C49   C     C_3   0.300613 0.733590 0.994861 -0.495702
C50   C     C_3   0.298008 0.265731 0.988599 -0.512455
C51   C     C_3   0.800615 0.233590 0.994861 -0.495700
C52   C     C_3   0.797993 0.765729 0.988577 -0.512464
C53   C     C_3   0.761449 0.181561 0.110555 -0.109213
C54   C     C_3   0.766675 0.816205 0.112588 -0.110668
C55   C     C_3   0.261449 0.681560 0.110556 -0.109204
C56   C     C_3   0.266649 0.316215 0.112569 -0.110696
C57   C     C_3   0.755864 0.179936 0.001861 0.330384
C58   C     C_3   0.756773 0.819295 0.001778 0.341714
C59   C     C_3   0.255863 0.679936 0.001862 0.330380
C60   C     C_3   0.256770 0.319297 0.001771 0.341707
C61   C     C_3   0.167203 0.766060 0.002233 0.264913
C62   C     C_3   0.167847 0.233593 0.002507 0.274902
C63   C     C_3   0.667205 0.266061 0.002231 0.264912
C64   C     C_3   0.667845 0.733593 0.002511 0.274920
C65   C     C_3   0.246800 0.784241 0.990736 -0.190680
C66   C     C_3   0.246432 0.215127 0.989307 -0.186756
C67   C     C_3   0.746803 0.284241 0.990735 -0.190682
C68   C     C_3   0.746400 0.715128 0.989257 -0.186772
C69   C     C_3   0.207289 0.731996 0.109026 -0.403035
C70   C     C_3   0.209082 0.267411 0.109809 -0.437328
C71   C     C_3   0.707290 0.231997 0.109024 -0.403031
C72   C     C_3   0.709121 0.767397 0.109838 -0.437356
C73   C     C_3   0.473345 0.946404 0.372270 -0.395971
C74   C     C_3   0.475839 0.048137 0.362926 -0.352100
C75   C     C_3   0.973344 0.446405 0.372272 -0.395981
C76   C     C_3   0.975836 0.548139 0.362934 -0.352158
C77   C     C_R   0.746721 0.954137 0.694990 -0.142905
C78   C     C_R   0.746355 0.045668 0.694676 -0.151030
C79   C     C_R   0.246721 0.454137 0.694990 -0.142900
C80   C     C_R   0.246355 0.545668 0.694677 -0.151035
C81   C     C_3   0.576817 0.945531 0.469851 -0.393275
C82   C     C_3   0.580264 0.048810 0.458723 -0.398691
C83   C     C_3   0.076816 0.445531 0.469855 -0.393276
C84   C     C_3   0.080263 0.548809 0.458725 -0.398669
C85   C     C_3   0.437129 0.002430 0.490885 -0.162494
C86   C     C_3   0.937129 0.502426 0.490892 -0.162503
C87   C     C_3   0.425222 0.999452 0.376572 0.213795
C88   C     C_3   0.925221 0.499451 0.376578 0.213832
C89   C     C_3   0.602523 0.999713 0.536558 0.381812
C90   C     C_3   0.102522 0.499714 0.536561 0.381811
C91   C     C_3   0.543951 0.005173 0.583668 -0.480699
C92   C     C_3   0.043950 0.505176 0.583672 -0.480698
C93   C     C_R   0.051025 0.045734 0.305482 -0.131386
C94   C     C_R   0.050957 0.954249 0.305456 -0.125953
C95   C     C_R   0.551027 0.545739 0.305475 -0.131439
C96   C     C_R   0.550940 0.454253 0.305455 -0.125906
C97   C     C_R   0.812445 0.864456 0.001062 0.026525
C98   C     C_R   0.811949 0.134954 0.001068 -0.001712
C99   C     C_R   0.312441 0.364458 0.001058 0.026532
C100  C     C_R   0.311950 0.634954 0.001068 -0.001710
C101  C     C_R   0.700628 0.999817 0.631581 -0.000053
C102  C     C_R   0.200628 0.499818 0.631582 -0.000053
C103  C     C_R   0.068679 0.999988 0.369239 0.074944
C104  C     C_R   0.568661 0.499996 0.369230 0.074900
C105  C     C_R   0.268129 0.953537 0.252479 -0.021387
C106  C     C_R   0.268625 0.046175 0.254085 -0.062496
C107  C     C_R   0.768129 0.453537 0.252483 -0.021346
C108  C     C_R   0.768625 0.546175 0.254090 -0.062573
C109  C     C_R   0.020770 0.046139 0.752717 -0.120424
C110  C     C_R   0.020818 0.953863 0.752712 -0.121890
C111  C     C_R   0.520765 0.546147 0.752724 -0.120381
C112  C     C_R   0.520832 0.453872 0.752717 -0.121914
H1    H     H_    0.930575 0.870381 0.178026 0.093768
H2    H     H_    0.930467 0.129681 0.177937 0.091835
H3    H     H_    0.430571 0.370379 0.178022 0.093767
H4    H     H_    0.430468 0.629681 0.177938 0.091839
H5    H     H_    0.932283 0.962321 0.380217 0.157839
H6    H     H_    0.090919 0.909939 0.495671 0.143154
H7    H     H_    0.586983 0.590212 0.493596 0.144570
H8    H     H_    0.430712 0.535867 0.378430 0.157887
H9    H     H_    0.924394 0.963056 0.525039 0.153026
H10   H     H_    0.083732 0.909841 0.639276 0.147148
H11   H     H_    0.583053 0.590335 0.639358 0.149329
H12   H     H_    0.424257 0.536710 0.524325 0.155888
H13   H     H_    0.924398 0.036890 0.524475 0.155831
H14   H     H_    0.191026 0.948103 0.719679 0.175423
H15   H     H_    0.690590 0.552163 0.718646 0.176895
H16   H     H_    0.424531 0.462876 0.525208 0.152980
H17   H     H_    0.087682 0.090165 0.494033 0.144556
H18   H     H_    0.196712 0.053010 0.569164 0.206598
H19   H     H_    0.698786 0.448776 0.571378 0.188778
H20   H     H_    0.591573 0.409996 0.496075 0.143069
H21   H     H_    0.083452 0.090275 0.639628 0.149399
H22   H     H_    0.190823 0.051948 0.718894 0.176883
H23   H     H_    0.691244 0.448311 0.719895 0.175436
H24   H     H_    0.584110 0.409902 0.639522 0.147214
H25   H     H_    0.646037 0.180571 0.823152 0.160307
H26   H     H_    0.642103 0.823953 0.824573 0.163762
H27   H     H_    0.146035 0.680571 0.823153 0.160305
H28   H     H_    0.142117 0.323947 0.824557 0.163756
H29   H     H_    0.617530 0.138791 0.897737 0.156766
H30   H     H_    0.619366 0.861599 0.909125 0.163726
H31   H     H_    0.117531 0.638790 0.897739 0.156768
H32   H     H_    0.119351 0.361587 0.909089 0.163733
H33   H     H_    0.542030 0.212741 0.912105 0.168524
H34   H     H_    0.541346 0.785990 0.912214 0.168459
H35   H     H_    0.042028 0.712739 0.912107 0.168526
H36   H     H_    0.041324 0.285968 0.912128 0.168458
H37   H     H_    0.062913 0.749433 0.824367 0.152124
H38   H     H_    0.065022 0.251070 0.825065 0.156158
H39   H     H_    0.562915 0.249435 0.824365 0.152124
H40   H     H_    0.564972 0.751093 0.825086 0.156157
H41   H     H_    0.299811 0.733416 0.919760 0.159191
H42   H     H_    0.290947 0.266428 0.909563 0.160921
H43   H     H_    0.799814 0.233415 0.919760 0.159190
H44   H     H_    0.790934 0.766435 0.909542 0.160916
H45   H     H_    0.752601 0.129672 0.823608 0.094816
H46   H     H_    0.753103 0.869561 0.823590 0.099657
H47   H     H_    0.252601 0.629673 0.823609 0.094813
H48   H     H_    0.253104 0.369563 0.823587 0.099657
H49   H     H_    0.212277 0.803146 0.907674 0.114014
H50   H     H_    0.211275 0.194946 0.907293 0.112481
H51   H     H_    0.712281 0.303146 0.907673 0.114013
H52   H     H_    0.711212 0.694967 0.907219 0.112480
H53   H     H_    0.835682 0.187443 0.181823 0.143594
H54   H     H_    0.841275 0.807444 0.180266 0.149497
H55   H     H_    0.335681 0.687442 0.181824 0.143594
H56   H     H_    0.341245 0.307453 0.180260 0.149551
H57   H     H_    0.648756 0.219283 0.114059 0.157840
H58   H     H_    0.650981 0.781659 0.114364 0.154921
H59   H     H_    0.148755 0.719281 0.114061 0.157839
H60   H     H_    0.150919 0.281680 0.114285 0.154931
H61   H     H_    0.255857 0.756607 0.183890 0.182585
H62   H     H_    0.256037 0.242362 0.184574 0.183565
H63   H     H_    0.755859 0.256608 0.183888 0.182584
H64   H     H_    0.756096 0.742337 0.184582 0.183586
H65   H     H_    0.375977 0.735603 0.065854 0.182723
H66   H     H_    0.374787 0.263297 0.054659 0.182227
H67   H     H_    0.875980 0.235602 0.065854 0.182724
H68   H     H_    0.874772 0.763287 0.054638 0.182240
H69   H     H_    0.440417 0.908202 0.375378 0.171281
H70   H     H_    0.444777 0.088574 0.358292 0.190518
H71   H     H_    0.940416 0.408202 0.375375 0.171265
H72   H     H_    0.944777 0.588576 0.358309 0.190549
H73   H     H_    0.467500 0.944979 0.294047 0.178440
H74   H     H_    0.468647 0.043749 0.284192 0.173705
H75   H     H_    0.967502 0.444983 0.294050 0.178447
H76   H     H_    0.968639 0.543754 0.284197 0.173665
H77   H     H_    0.621793 0.940168 0.440156 0.148809
H78   H     H_    0.623962 0.046296 0.426836 0.150849
H79   H     H_    0.121793 0.440166 0.440163 0.148810
H80   H     H_    0.123957 0.546293 0.426832 0.150849
H81   H     H_    0.734768 0.911551 0.669638 0.088876
H82   H     H_    0.732838 0.088229 0.669072 0.091125
H83   H     H_    0.234768 0.411551 0.669637 0.088876
H84   H     H_    0.232837 0.588230 0.669073 0.091123
H85   H     H_    0.587868 0.909331 0.521574 0.183454
H86   H     H_    0.595823 0.088726 0.502364 0.177279
H87   H     H_    0.087864 0.409332 0.521578 0.183465
H88   H     H_    0.095827 0.588726 0.502366 0.177259
H89   H     H_    0.566284 0.973383 0.648053 0.183516
H90   H     H_    0.563283 0.044521 0.630425 0.173790
H91   H     H_    0.066289 0.473390 0.648066 0.183518
H92   H     H_    0.063278 0.544527 0.630418 0.173792
H93   H     H_    0.064503 0.088239 0.331334 0.093016
H94   H     H_    0.064350 0.911733 0.331288 0.084299
H95   H     H_    0.564544 0.588243 0.331327 0.093063
H96   H     H_    0.564301 0.411738 0.331293 0.084264
H97   H     H_    0.288185 0.910791 0.268272 0.090153
H98   H     H_    0.289681 0.088758 0.271654 0.104379
H99   H     H_    0.788185 0.410791 0.268277 0.090147
H100  H     H_    0.789680 0.588758 0.271660 0.104398
H101  H     H_    0.026206 0.088727 0.737043 0.089714
H102  H     H_    0.026321 0.911287 0.736962 0.088983
H103  H     H_    0.526205 0.588740 0.737084 0.089723
H104  H     H_    0.526341 0.411300 0.736945 0.088984
H105  H     H_    0.017292 0.834704 0.824122 0.078699
H106  H     H_    0.017542 0.165487 0.824369 0.081464
H107  H     H_    0.517300 0.334709 0.824118 0.078703
H108  H     H_    0.517536 0.665493 0.824374 0.081450
H109  H     H_    0.190590 0.164481 0.177237 0.090976
H110  H     H_    0.189898 0.835053 0.176888 0.092913
H111  H     H_    0.690584 0.664481 0.177239 0.090977
H112  H     H_    0.689899 0.335053 0.176886 0.092915
H113  H     H_    0.930991 0.036199 0.378688 0.157864
H114  H     H_    0.198439 0.948440 0.571071 0.188514
H115  H     H_    0.696311 0.553352 0.568798 0.206449
H116  H     H_    0.432555 0.461990 0.380497 0.157823
N1    N     N_R   0.950530 0.896220 0.057200 -0.042830
N2    N     N_R   0.950530 0.103780 0.057200 -0.039029
N3    N     N_R   0.450530 0.396220 0.057200 -0.042832
N4    N     N_R   0.450530 0.603780 0.057200 -0.039029
N5    N     N_R   0.893330 0.103780 0.942800 -0.040692
N6    N     N_R   0.893330 0.896220 0.942800 -0.040968
N7    N     N_R   0.393330 0.603780 0.942800 -0.040691
N8    N     N_R   0.393330 0.396220 0.942800 -0.040971
N9    N     N_R   0.818150 0.971400 0.792440 -0.034597
N10   N     N_R   0.818150 0.028600 0.792440 -0.034774
N11   N     N_R   0.318150 0.471400 0.792440 -0.034598
N12   N     N_R   0.318150 0.528600 0.792440 -0.034774
N13   N     N_R   0.025710 0.028600 0.207560 -0.041555
N14   N     N_R   0.025710 0.971400 0.207560 -0.040033
N15   N     N_R   0.525710 0.528600 0.207560 -0.041556
N16   N     N_R   0.525710 0.471400 0.207560 -0.040023
N17   N     N_R   0.181850 0.971400 0.207560 -0.033501
N18   N     N_R   0.181850 0.028600 0.207560 -0.036975
N19   N     N_R   0.681850 0.471400 0.207560 -0.033498
N20   N     N_R   0.681850 0.528600 0.207560 -0.036976
N21   N     N_R   0.974290 0.028600 0.792440 -0.040681
N22   N     N_R   0.974290 0.971400 0.792440 -0.040949
N23   N     N_R   0.474290 0.528600 0.792440 -0.040689
N24   N     N_R   0.474290 0.471400 0.792440 -0.040948
N25   N     N_R   0.049470 0.896220 0.942800 -0.031199
N26   N     N_R   0.049470 0.103780 0.942800 -0.031150
N27   N     N_R   0.549470 0.396220 0.942800 -0.031198
N28   N     N_R   0.549470 0.603780 0.942800 -0.031148
N29   N     N_R   0.106670 0.103780 0.057200 -0.036168
N30   N     N_R   0.106670 0.896220 0.057200 -0.037346
N31   N     N_R   0.606670 0.603780 0.057200 -0.036164
N32   N     N_R   0.606670 0.396220 0.057200 -0.037348
Ni1   Ni    Ni4+2 0.065600 0.934400 0.131190 0.230511
Ni2   Ni    Ni4+2 0.065600 0.065600 0.131190 0.233084
Ni3   Ni    Ni4+2 0.565600 0.434400 0.131190 0.230527
Ni4   Ni    Ni4+2 0.565600 0.565600 0.131190 0.233067
Ni5   Ni    Ni4+2 0.934400 0.065600 0.868810 0.209624
Ni6   Ni    Ni4+2 0.934400 0.934400 0.868810 0.208715
Ni7   Ni    Ni4+2 0.434400 0.565600 0.868810 0.209626
Ni8   Ni    Ni4+2 0.434400 0.434400 0.868810 0.208717
N33   N     N_3   0.727350 0.130959 0.130252 -0.220144
H117  H     H_    0.764965 0.097096 0.131869 0.104289
H118  H     H_    0.656447 0.124700 0.067564 0.127858
N34   N     N_3   0.740444 0.868322 0.137817 -0.223597
H119  H     H_    0.759720 0.866245 0.218363 0.101847
H120  H     H_    0.667631 0.873512 0.086612 0.125961
N35   N     N_3   0.227350 0.630958 0.130252 -0.220146
H121  H     H_    0.264962 0.597094 0.131863 0.104284
H122  H     H_    0.156446 0.624700 0.067567 0.127859
N36   N     N_3   0.240414 0.368336 0.137780 -0.223595
H123  H     H_    0.259675 0.366263 0.218320 0.101858
H124  H     H_    0.167602 0.373529 0.086559 0.125959
C113  C     C_2   0.314021 0.826876 0.074147 1.001656
O1    O     O_2   0.314959 0.873383 0.043495 -0.651870
O2    O     O_R   0.375583 0.812968 0.185241 -0.833841
H125  H     H_    0.417864 0.844635 0.231681 0.310913
C114  C     C_2   0.315571 0.173718 0.074589 1.003987
O3    O     O_2   0.316478 0.126554 0.046605 -0.652150
O4    O     O_R   0.379096 0.189518 0.184255 -0.832305
H126  H     H_    0.422923 0.158585 0.231940 0.312391
C115  C     C_2   0.814025 0.326876 0.074146 1.001660
O5    O     O_2   0.814964 0.373382 0.043494 -0.651867
O6    O     O_R   0.875586 0.312968 0.185240 -0.833841
H127  H     H_    0.917867 0.344635 0.231680 0.310915
C116  C     C_2   0.815527 0.673696 0.074484 1.004017
O7    O     O_2   0.816399 0.626539 0.046443 -0.652135
O8    O     O_R   0.879080 0.689465 0.184164 -0.832299
H128  H     H_    0.922894 0.658520 0.231806 0.312386
C117  C     C_2   0.394756 0.950429 0.506412 0.971400
O9    O     O_2   0.442867 0.909304 0.551106 -0.675116
O10   O     O_R   0.299614 0.948652 0.465193 -0.780289
H129  H     H_    0.280245 0.911926 0.478375 0.307146
C118  C     C_2   0.392284 0.054706 0.500896 0.953243
O11   O     O_2   0.326871 0.051804 0.509273 -0.633102
O12   O     O_R   0.428370 0.106630 0.504058 -0.834770
H130  H     H_    0.393566 0.137698 0.511270 0.317779
C119  C     C_2   0.894765 0.450421 0.506421 0.971404
O13   O     O_2   0.942888 0.409300 0.551130 -0.675114
O14   O     O_R   0.799621 0.448635 0.465191 -0.780316
H131  H     H_    0.780261 0.411909 0.478385 0.307165
C120  C     C_2   0.892274 0.554697 0.500905 0.953249
O15   O     O_2   0.826872 0.551786 0.509299 -0.633077
O16   O     O_R   0.928342 0.606624 0.504053 -0.834771
H132  H     H_    0.893533 0.637688 0.511270 0.317773

loop_
_geom_bond_atom_site_label_1
_geom_bond_atom_site_label_2
_ccdc_geom_bond_type
C85   C118  S    
C55   C59   S    
C15   C109  A    
C77   C101  A    
O6    H127  S    
C42   C58   S    
N2    Ni2   S    
C118  O11   D    
C109  N21   A    
C46   C62   S    
C4    N4    A    
C49   H41   S    
C50   H66   S    
C111  H103  S    
C82   H86   S    
C86   C88   S    
C96   H96   S    
N27   Ni8   S    
C30   H19   S    
C106  H98   S    
N28   N31   A    
C62   C70   S    
C26   H14   S    
N1    N6    A    
C77   H81   S    
C96   N16   A    
C21   H5    S    
C17   C61   S    
N25   N30   A    
C5    H105  S    
N35   H121  S    
C19   C63   S    
N34   H119  S    
C32   C104  S    
C79   C102  A    
C36   C97   A    
C51   C57   S    
C76   H76   S    
C78   N10   A    
N17   N18   A    
C78   C101  A    
C1    H1    S    
C73   C81   S    
C44   C46   S    
C49   H65   S    
C68   H52   S    
C80   H84   S    
C40   H23   S    
C11   C20   A    
C24   H8    S    
C11   H111  S    
C8    N28   A    
C47   C63   S    
C11   N31   A    
C24   C32   S    
C73   H69   S    
C90   C92   S    
O12   H130  S    
N16   Ni3   S    
C81   H77   S    
C92   H91   S    
C52   C58   S    
C14   C107  A    
C63   C71   S    
C7    C19   A    
N33   H118  S    
C53   C71   S    
N23   Ni7   S    
C22   H6    S    
C67   C115  S    
C89   C101  S    
C13   C106  A    
C108  N20   A    
C14   C88   S    
C114  O4    S    
C81   H85   S    
C2    H2    S    
N11   Ni8   S    
C10   H110  S    
C61   C65   S    
C107  H99   S    
C65   H49   S    
C25   H9    S    
N19   Ni3   S    
C16   C111  A    
C72   H58   S    
N20   Ni4   S    
C39   H22   S    
C94   H94   S    
N17   Ni1   S    
C93   C103  A    
C21   C31   S    
C51   H43   S    
N21   N22   A    
C82   C89   S    
C64   C68   S    
C110  H102  S    
C23   H7    S    
C36   N6    A    
C79   H83   S    
N13   N14   A    
N21   Ni5   S    
C90   C102  S    
C25   H13   S    
C16   C34   S    
C29   H17   S    
C119  O14   S    
C54   N34   S    
C74   C87   S    
C89   C91   S    
C43   C59   S    
N9    N10   A    
C59   C100  S    
C117  O10   S    
C29   C39   S    
C55   C69   S    
C84   C90   S    
C51   H67   S    
C108  H100  S    
C37   N7    A    
C120  O16   S    
N7    Ni7   S    
C46   H36   S    
C62   C66   S    
C3    N3    A    
C18   C62   S    
C42   C48   S    
N26   N29   A    
C80   C102  A    
C116  O7    D    
C43   C45   S    
C26   C33   S    
C68   C116  S    
C13   C87   S    
C115  O5    D    
C41   C47   S    
C51   C67   S    
C70   H62   S    
C105  N17   A    
N3    N8    A    
O14   H131  S    
C21   C25   S    
N27   N32   A    
N4    Ni4   S    
C45   H35   S    
C24   C28   S    
N18   Ni2   S    
C73   H73   S    
C28   H12   S    
C74   H70   S    
N1    Ni1   S    
N25   Ni6   S    
C113  O2    S    
C56   C70   S    
C49   C59   S    
C50   C60   S    
C37   H47   S    
C38   H48   S    
C93   N13   A    
C30   H20   S    
C112  H104  S    
C91   H90   S    
C2    N2    A    
N5    Ni5   S    
C67   H51   S    
C9    C18   A    
N34   H120  S    
O2    H125  S    
N36   H123  S    
C37   C100  A    
C25   C33   S    
C86   C120  S    
C47   H33   S    
C9    N29   A    
C42   H26   S    
C43   H31   S    
N11   N12   A    
C66   C114  S    
C55   H55   S    
C76   C84   S    
N23   N24   A    
C110  N22   A    
C40   H24   S    
C69   H61   S    
C83   H79   S    
C74   C82   S    
C38   N8    A    
C48   C64   S    
C5    C17   A    
N15   N16   A    
C105  H97   S    
C66   H50   S    
C78   H82   S    
C70   H60   S    
C12   H112  S    
N3    Ni3   S    
C6    H106  S    
C27   H15   S    
N24   Ni8   S    
C73   C87   S    
C71   H57   S    
C35   N5    A    
C35   C98   A    
C41   H25   S    
C92   H92   S    
C81   C89   S    
C14   C108  A    
C28   C34   S    
C44   H28   S    
N33   H117  S    
C77   N9    A    
C15   C110  A    
C54   H54   S    
N32   Ni3   S    
C118  O12   S    
C95   H95   S    
N29   Ni2   S    
N22   Ni6   S    
C13   C105  A    
N31   Ni4   S    
O8    H128  S    
C53   C57   S    
C56   C60   S    
N9    Ni6   S    
O10   H129  S    
C114  O3    D    
O4    H126  S    
C8    C20   A    
C22   H114  S    
C53   H53   S    
N28   Ni7   S    
C47   H39   S    
C94   C103  A    
N13   Ni2   S    
C48   H40   S    
C85   C117  S    
C16   C112  A    
C39   H21   S    
C7    N27   A    
C4    H4    S    
C75   H75   S    
C38   C99   A    
C55   N35   S    
C23   C32   S    
C41   C57   S    
C3    H3    S    
C75   C83   S    
C44   C60   S    
C57   C98   S    
C12   C19   A    
C45   C61   S    
C71   H63   S    
C72   H64   S    
C9    H109  S    
C116  O8    S    
C119  O13   D    
C22   C26   S    
N8    Ni8   S    
C65   C113  S    
C26   H10   S    
C111  N23   A    
C28   H16   S    
C74   H74   S    
O16   H132  S    
N26   Ni5   S    
C117  O9    D    
C79   N11   A    
C60   C99   S    
C93   H93   S    
C35   H45   S    
C85   C91   S    
C120  O15   D    
C84   H88   S    
C33   C39   S    
C49   C65   S    
C34   C40   S    
C107  N19   A    
N35   H122  S    
C109  H101  S    
N6    Ni6   S    
C10   C17   A    
C5    N25   A    
C6    N26   A    
N2    N5    A    
C75   H71   S    
C86   C119  S    
C48   H34   S    
C42   H30   S    
C10   N30   A    
C43   H27   S    
C23   C27   S    
C76   C88   S    
C52   C68   S    
C36   H46   S    
C7    H107  S    
C82   H78   S    
N12   Ni7   S    
C58   C97   S    
C112  N24   A    
C85   C87   S    
C27   C34   S    
C6    C18   A    
C63   C67   S    
C22   C31   S    
C56   N36   S    
C1    C97   A    
C27   H11   S    
C113  O1    D    
N4    N7    A    
C31   C103  S    
C20   C64   S    
C52   H68   S    
C41   H29   S    
C8    H108  S    
C3    C99   A    
C29   H18   S    
C44   H32   S    
C56   H56   S    
C30   C40   S    
C106  N18   A    
C50   C66   S    
C91   H89   S    
C46   H38   S    
C53   N33   S    
C4    C100  A    
N36   H124  S    
N30   Ni1   S    
N15   Ni4   S    
C83   H87   S    
C24   H116  S    
C95   C104  A    
C54   C58   S    
C61   C69   S    
C83   C90   S    
N10   Ni5   S    
C23   H115  S    
N19   N20   A    
C52   H44   S    
C21   H113  S    
C80   N12   A    
C96   C104  A    
C94   N14   A    
C29   C31   S    
C86   C92   S    
C30   C32   S    
C50   H42   S    
C115  O6    S    
N14   Ni1   S    
C84   H80   S    
C45   H37   S    
C64   C72   S    
C69   H59   S    
C1    N1    A    
C75   C88   S    
C54   C72   S    
C2    C98   A    
C12   N32   A    
C76   H72   S    
C15   C33   S    
C95   N15   A    
