data_mof_unit_64235.cif
_audit_creation_date              2013-03-05T16:10:52-0500
_audit_creation_method            fapswitch 2.2
_symmetry_space_group_name_H-M    P1
_symmetry_Int_Tables_number       1
_space_group_crystal_system       triclinic
_cell_length_a                    37.164205
_cell_length_b                    30.386966
_cell_length_c                    21.591635
_cell_angle_alpha                 90.000082
_cell_angle_beta                  54.776782
_cell_angle_gamma                 90.0
_cell_volume                      19919.2320182

loop_
_atom_site_label
_atom_site_type_symbol
_atom_site_description
_atom_site_fract_x
_atom_site_fract_y
_atom_site_fract_z
_atom_type_partial_charge
O1    O     O_R   0.935720 0.537180 0.564270 -0.563513
O2    O     O_R   0.064280 0.537180 0.435730 -0.563513
O3    O     O_R   0.435720 0.037180 0.564270 -0.563507
O4    O     O_R   0.564280 0.037180 0.435730 -0.563506
O5    O     O_R   0.935680 0.462770 0.564310 -0.583137
O6    O     O_R   0.064320 0.462770 0.435690 -0.583138
O7    O     O_R   0.435680 0.962770 0.564310 -0.583141
O8    O     O_R   0.564320 0.962770 0.435690 -0.583139
C1    C     C_R   0.914868 0.499981 0.584644 0.818256
C2    C     C_R   0.085132 0.499981 0.415355 0.818255
C3    C     C_R   0.414868 0.999981 0.584644 0.818255
C4    C     C_R   0.585132 0.999981 0.415355 0.818256
O9    O     O_R   0.999990 0.537180 0.408860 -0.544072
O10   O     O_R   0.000010 0.537180 0.591140 -0.544071
O11   O     O_R   0.499990 0.037180 0.408860 -0.544049
O12   O     O_R   0.500010 0.037180 0.591140 -0.544065
O13   O     O_R   0.999950 0.462770 0.408890 -0.556811
O14   O     O_R   0.000050 0.462770 0.591110 -0.556811
O15   O     O_R   0.499950 0.962770 0.408890 -0.556819
O16   O     O_R   0.500050 0.962770 0.591110 -0.556812
C5    C     C_R   0.000994 0.500083 0.378835 0.814183
C6    C     C_R   0.999006 0.500083 0.621165 0.814181
C7    C     C_R   0.500994 0.000083 0.378836 0.814180
C8    C     C_R   0.499006 0.000083 0.621165 0.814182
Cu1   Cu    Cu3+1 0.000000 0.544030 0.500000 1.127909
Cu2   Cu    Cu3+1 0.500000 0.044030 0.500000 1.127981
Cu3   Cu    Cu3+1 0.000000 0.455920 0.500000 1.085559
Cu4   Cu    Cu3+1 0.500000 0.955920 0.500000 1.085564
C9    C     C_3   0.997214 0.548171 0.285661 0.165416
C10   C     C_3   0.002787 0.548171 0.714338 0.165417
C11   C     C_3   0.497207 0.048170 0.285669 0.165481
C12   C     C_3   0.502782 0.048171 0.714342 0.165482
H1    H     H_    0.965036 0.560914 0.334967 0.118220
H2    H     H_    0.034965 0.560914 0.665032 0.118218
H3    H     H_    0.465027 0.060909 0.334976 0.118274
H4    H     H_    0.534960 0.060917 0.665038 0.118285
C13   C     C_3   0.993498 0.546224 0.217863 -0.436704
C14   C     C_3   0.006503 0.546224 0.782135 -0.436704
C15   C     C_3   0.493491 0.046223 0.217871 -0.436661
C16   C     C_3   0.506498 0.046225 0.782140 -0.436662
H5    H     H_    0.960161 0.557643 0.236598 0.166956
H6    H     H_    0.039840 0.557642 0.763401 0.166957
H7    H     H_    0.460152 0.057636 0.236608 0.167105
H8    H     H_    0.539835 0.057646 0.763407 0.167101
H9    H     H_    0.071887 0.505757 0.126573 0.217218
H10   H     H_    0.928113 0.505759 0.873427 0.217218
H11   H     H_    0.571885 0.005770 0.126575 0.217177
H12   H     H_    0.428112 0.005753 0.873429 0.217180
C17   C     C_3   0.047030 0.477547 0.238797 0.547997
C18   C     C_3   0.952969 0.477548 0.761203 0.547996
C19   C     C_3   0.547033 0.977554 0.238794 0.548021
C20   C     C_3   0.452971 0.977545 0.761202 0.548022
C21   C     C_3   0.962798 0.473238 0.323710 -0.467742
C22   C     C_3   0.037201 0.473238 0.676291 -0.467742
C23   C     C_3   0.462803 0.973233 0.323705 -0.467757
C24   C     C_3   0.537203 0.973241 0.676288 -0.467764
C25   C     C_3   0.003254 0.500182 0.307424 -0.139883
C26   C     C_3   0.996746 0.500183 0.692576 -0.139882
C27   C     C_3   0.503254 0.000183 0.307424 -0.139915
C28   C     C_3   0.496745 0.000183 0.692577 -0.139912
H13   H     H_    0.961426 0.439829 0.345902 0.245026
H14   H     H_    0.038573 0.439828 0.654099 0.245026
H15   H     H_    0.461435 0.939823 0.345891 0.245029
H16   H     H_    0.538578 0.939832 0.654094 0.245025
H17   H     H_    0.931697 0.489825 0.368864 0.157590
H18   H     H_    0.068303 0.489823 0.631136 0.157589
H19   H     H_    0.431699 0.989814 0.368862 0.157612
H20   H     H_    0.568303 0.989829 0.631135 0.157611
C29   C     C_3   0.000853 0.498621 0.187972 -0.010894
C30   C     C_3   0.999146 0.498621 0.812028 -0.010894
C31   C     C_3   0.500854 0.998622 0.187971 -0.010921
C32   C     C_3   0.499147 0.998622 0.812028 -0.010918
C33   C     C_3   0.046247 0.481926 0.167359 -0.394891
C34   C     C_3   0.953752 0.481927 0.832641 -0.394891
C35   C     C_3   0.546250 0.981934 0.167357 -0.394885
C36   C     C_3   0.453754 0.981923 0.832640 -0.394898
C37   C     C_3   0.963791 0.469253 0.251560 -0.357412
C38   C     C_3   0.036208 0.469253 0.748440 -0.357415
C39   C     C_3   0.463796 0.969248 0.251555 -0.357421
C40   C     C_3   0.536210 0.969256 0.748437 -0.357405
H21   H     H_    0.931138 0.479338 0.265348 0.190387
H22   H     H_    0.068861 0.479336 0.734652 0.190388
H23   H     H_    0.431142 0.979327 0.265344 0.190411
H24   H     H_    0.568863 0.979343 0.734650 0.190411
H25   H     H_    0.969093 0.434441 0.232313 0.212647
H26   H     H_    0.030905 0.434440 0.767688 0.212647
H27   H     H_    0.469104 0.934437 0.232301 0.212646
H28   H     H_    0.530911 0.934443 0.767682 0.212646
C41   C     C_R   0.797450 0.463091 0.723615 -0.150835
C42   C     C_R   0.202549 0.463091 0.276385 -0.150837
C43   C     C_R   0.297451 0.963090 0.723613 -0.150828
C44   C     C_R   0.702550 0.963089 0.276387 -0.150828
C45   C     C_R   0.843342 0.462815 0.676785 -0.100462
C46   C     C_R   0.156658 0.462815 0.323215 -0.100461
C47   C     C_R   0.343342 0.962814 0.676782 -0.100460
C48   C     C_R   0.656658 0.962814 0.323218 -0.100468
H29   H     H_    0.860661 0.433674 0.675129 0.184897
H30   H     H_    0.139339 0.433674 0.324870 0.184897
H31   H     H_    0.360661 0.933673 0.675125 0.184904
H32   H     H_    0.639339 0.933672 0.324876 0.184907
C49   C     C_R   0.866538 0.500050 0.633350 -0.016823
C50   C     C_R   0.133462 0.500049 0.366650 -0.016823
C51   C     C_R   0.366538 0.000049 0.633350 -0.016840
C52   C     C_R   0.633462 0.000049 0.366650 -0.016842
C53   C     C_R   0.843206 0.537479 0.637179 -0.158787
C54   C     C_R   0.156794 0.537479 0.362821 -0.158789
C55   C     C_R   0.343205 0.037480 0.637182 -0.158771
C56   C     C_R   0.656794 0.037480 0.362817 -0.158766
C57   C     C_R   0.797316 0.537488 0.683118 -0.136602
C58   C     C_R   0.202684 0.537488 0.316882 -0.136602
C59   C     C_R   0.297316 0.037489 0.683121 -0.136601
C60   C     C_R   0.702684 0.037489 0.316877 -0.136600
C61   C     C_R   0.774181 0.500341 0.726727 0.088355
C62   C     C_R   0.225819 0.500340 0.273273 0.088356
C63   C     C_R   0.274181 0.000340 0.726727 0.088333
C64   C     C_R   0.725819 0.000340 0.273272 0.088333
C65   C     C_R   0.702465 0.513309 0.745219 -0.159504
C66   C     C_R   0.297535 0.513309 0.254782 -0.159504
C67   C     C_R   0.202465 0.013312 0.745220 -0.159513
C68   C     C_R   0.797535 0.013312 0.254779 -0.159513
H33   H     H_    0.719802 0.523186 0.686419 0.137393
H34   H     H_    0.280198 0.523186 0.313582 0.137392
H35   H     H_    0.219802 0.023191 0.686422 0.137407
H36   H     H_    0.780198 0.023192 0.313578 0.137407
C69   C     C_R   0.656578 0.512893 0.790735 -0.147255
C70   C     C_R   0.343422 0.512892 0.209265 -0.147256
C71   C     C_R   0.156577 0.012895 0.790737 -0.147264
C72   C     C_R   0.843422 0.012896 0.209263 -0.147264
H37   H     H_    0.639281 0.522910 0.766365 0.160334
H38   H     H_    0.360719 0.522910 0.233635 0.160334
H39   H     H_    0.139280 0.022915 0.766368 0.160332
H40   H     H_    0.860719 0.022916 0.233631 0.160332
C73   C     C_R   0.633381 0.500122 0.867064 -0.012807
C74   C     C_R   0.366619 0.500122 0.132936 -0.012808
C75   C     C_R   0.133381 0.000122 0.867064 -0.012815
C76   C     C_R   0.866619 0.000122 0.132936 -0.012816
C77   C     C_R   0.656787 0.487560 0.897055 -0.143521
C78   C     C_R   0.343213 0.487560 0.102945 -0.143522
C79   C     C_R   0.156786 0.987556 0.897054 -0.143481
C80   C     C_R   0.843214 0.987556 0.102946 -0.143482
C81   C     C_R   0.702693 0.487363 0.851183 -0.132112
C82   C     C_R   0.297307 0.487362 0.148816 -0.132113
C83   C     C_R   0.202693 0.987359 0.851182 -0.132067
C84   C     C_R   0.797307 0.987358 0.148817 -0.132067
H41   H     H_    0.720216 0.477540 0.875247 0.157332
H42   H     H_    0.279784 0.477539 0.124753 0.157331
H43   H     H_    0.220216 0.977533 0.875245 0.157356
H44   H     H_    0.779784 0.977532 0.124755 0.157356
C85   C     C_R   0.725782 0.500367 0.775081 0.091913
C86   C     C_R   0.274218 0.500367 0.224919 0.091914
C87   C     C_R   0.225782 0.000366 0.775082 0.091886
C88   C     C_R   0.774218 0.000366 0.224918 0.091886
O17   O     O_R   0.962770 0.564220 0.037230 -0.582226
O18   O     O_R   0.037230 0.564220 0.962770 -0.582226
O19   O     O_R   0.462770 0.064220 0.037230 -0.582148
O20   O     O_R   0.537230 0.064220 0.962770 -0.582147
C89   C     C_R   1.000000 0.585086 0.000000 0.800612
C90   C     C_R   0.500000 0.085084 0.000000 0.800516
O21   O     O_R   0.962780 0.499950 0.128370 -0.589646
O22   O     O_R   0.037220 0.499950 0.871630 -0.589645
O23   O     O_R   0.462780 0.999950 0.128370 -0.589572
O24   O     O_R   0.537220 0.999950 0.871630 -0.589572
O25   O     O_R   0.037180 0.500000 0.053970 -0.582511
O26   O     O_R   0.962820 0.500000 0.946030 -0.582511
O27   O     O_R   0.537180 0.000000 0.053970 -0.582599
O28   O     O_R   0.462820 0.000000 0.946030 -0.582598
C91   C     C_R   0.000137 0.498311 0.119891 0.807175
C92   C     C_R   0.999863 0.498311 0.880109 0.807175
C93   C     C_R   0.500138 0.998312 0.119891 0.807145
C94   C     C_R   0.499863 0.998311 0.880109 0.807145
Cu5   Cu    Cu3+1 0.955920 0.499940 0.044070 0.982443
Cu6   Cu    Cu3+1 0.044080 0.499940 0.955930 0.982443
Cu7   Cu    Cu3+1 0.455920 0.999940 0.044070 0.982474
Cu8   Cu    Cu3+1 0.544080 0.999940 0.955930 0.982475
O29   O     O_R   0.962780 0.435670 0.037210 -0.588746
O30   O     O_R   0.037220 0.435670 0.962790 -0.588746
O31   O     O_R   0.462780 0.935670 0.037210 -0.588746
O32   O     O_R   0.537220 0.935670 0.962790 -0.588744
C95   C     C_R   0.000000 0.414807 1.000000 0.783100
C96   C     C_R   0.500000 0.914807 0.000000 0.783100
O33   O     O_R   0.499930 0.435710 0.947300 -0.590594
O34   O     O_R   0.500070 0.435710 0.052700 -0.590593
O35   O     O_R   0.999930 0.935710 0.947300 -0.590518
O36   O     O_R   0.000070 0.935710 0.052700 -0.590518
C97   C     C_R   0.500000 0.414912 1.000000 0.813259
C98   C     C_R   0.000000 0.914916 1.000000 0.813182
O37   O     O_R   0.564240 0.499990 0.883000 -0.598084
O38   O     O_R   0.435760 0.499990 0.117000 -0.598084
O39   O     O_R   0.064240 0.999990 0.883000 -0.598063
O40   O     O_R   0.935760 0.999990 0.117000 -0.598062
O41   O     O_R   0.564250 0.499990 0.988510 -0.562615
O42   O     O_R   0.435750 0.499990 0.011490 -0.562615
O43   O     O_R   0.064250 0.999990 0.988510 -0.562660
O44   O     O_R   0.935750 0.999990 0.011490 -0.562660
C99   C     C_R   0.585004 0.499946 0.915131 0.816194
C100  C     C_R   0.414996 0.499946 0.084868 0.816195
C101  C     C_R   0.085004 0.999946 0.915132 0.816177
C102  C     C_R   0.914996 0.999946 0.084868 0.816178
Cu9   Cu    Cu3+1 0.499970 0.499990 0.937550 1.040370
Cu10  Cu    Cu3+1 0.500030 0.499990 0.062450 1.040368
Cu11  Cu    Cu3+1 0.999970 0.999990 0.937550 1.040342
Cu12  Cu    Cu3+1 0.000030 0.999990 0.062450 1.040342
O45   O     O_R   0.500010 0.564260 0.947230 -0.551729
O46   O     O_R   0.499990 0.564260 0.052770 -0.551730
O47   O     O_R   0.000010 0.064260 0.947230 -0.551731
O48   O     O_R   0.999990 0.064260 0.052770 -0.551731
C103  C     C_R   0.500000 0.584862 0.000000 0.925049
C104  C     C_R   0.000000 0.084862 0.000000 0.925059
C105  C     C_R   0.960611 0.702635 0.029742 -0.050375
C106  C     C_R   0.039388 0.702635 0.970258 -0.050375
C107  C     C_R   0.460718 0.202622 0.028757 -0.050241
C108  C     C_R   0.539281 0.202622 0.971243 -0.050239
C109  C     C_R   0.960559 0.656787 0.029986 -0.159155
C110  C     C_R   0.039441 0.656787 0.970014 -0.159156
C111  C     C_R   0.460662 0.156774 0.029021 -0.159139
C112  C     C_R   0.539337 0.156774 0.970980 -0.159140
C113  C     C_R   1.000000 0.633466 1.000000 -0.051952
C114  C     C_R   0.500000 0.133458 0.000000 -0.051886
C115  C     C_R   1.000000 0.725634 1.000000 0.195657
C116  C     C_R   0.500000 0.225620 1.000000 0.195795
C117  C     C_R   0.506197 0.297197 0.050045 0.310354
C118  C     C_R   0.493804 0.297197 0.949949 0.310345
C119  C     C_R   0.006981 0.797215 0.049078 0.310442
C120  C     C_R   0.993018 0.797215 0.950922 0.310442
C121  C     C_R   0.506531 0.343236 0.048786 -0.226079
C122  C     C_R   0.493470 0.343236 0.951211 -0.226084
C123  C     C_R   0.007293 0.843253 0.047837 -0.226089
C124  C     C_R   0.992707 0.843253 0.952162 -0.226089
H45   H     H_    0.511288 0.360979 0.087053 0.204887
H46   H     H_    0.488714 0.360981 0.912943 0.204899
H47   H     H_    0.012662 0.861003 0.085348 0.204641
H48   H     H_    0.987338 0.861003 0.914652 0.204641
C125  C     C_R   0.500000 0.366449 0.999999 -0.153028
C126  C     C_R   1.000000 0.866461 1.000000 -0.152800
C127  C     C_R   0.500000 0.273930 0.999998 -0.174892
C128  C     C_R   1.000000 0.773946 0.000000 -0.174888
C129  C     C_R   0.039871 0.297308 0.957597 -0.140276
C130  C     C_R   0.960129 0.297308 0.042403 -0.140275
C131  C     C_R   0.539871 0.797308 0.957598 -0.140272
C132  C     C_R   0.460129 0.797308 0.042403 -0.140274
C133  C     C_R   0.039885 0.343134 0.957615 -0.166491
C134  C     C_R   0.960115 0.343134 0.042385 -0.166490
C135  C     C_R   0.539885 0.843134 0.957615 -0.166486
C136  C     C_R   0.460115 0.843134 0.042385 -0.166489
H49   H     H_    0.071126 0.360246 0.924195 0.164675
H50   H     H_    0.928874 0.360246 0.075805 0.164675
H51   H     H_    0.571126 0.860246 0.924195 0.164676
H52   H     H_    0.428874 0.860246 0.075805 0.164676
C137  C     C_R   0.000000 0.366444 0.000000 -0.037134
C138  C     C_R   0.500000 0.866444 0.000000 -0.037136
C139  C     C_R   0.000000 0.274050 0.000000 0.145542
C140  C     C_R   0.500000 0.774050 0.000000 0.145542
C141  C     C_R   0.470062 0.702456 0.992763 -0.202819
C142  C     C_R   0.529938 0.702455 0.007237 -0.202820
C143  C     C_R   0.970062 0.202455 0.992763 -0.202821
C144  C     C_R   0.029938 0.202455 0.007237 -0.202822
H53   H     H_    0.446814 0.720316 0.987253 0.185304
H54   H     H_    0.553186 0.720315 0.012747 0.185303
H55   H     H_    0.946814 0.220316 0.987253 0.185296
H56   H     H_    0.053186 0.220315 0.012747 0.185296
C145  C     C_R   0.469161 0.656463 0.993918 0.295480
C146  C     C_R   0.530839 0.656463 0.006082 0.295481
C147  C     C_R   0.969161 0.156463 0.993918 0.295487
C148  C     C_R   0.030839 0.156463 0.006082 0.295488
C149  C     C_R   0.500000 0.633121 0.000000 -0.271635
C150  C     C_R   1.000000 0.133121 0.000000 -0.271636
C151  C     C_R   0.500000 0.725584 0.000000 -0.033114
C152  C     C_R   0.000000 0.225584 0.000000 -0.033108
N1    N     N_R   0.031361 0.579792 0.270947 0.177200
O49   O     O_R   0.020924 0.611497 0.319078 -0.296615
O50   O     O_R   0.068715 0.582342 0.204441 -0.293550
N2    N     N_R   0.968640 0.579793 0.729052 0.177200
O51   O     O_R   0.979079 0.611498 0.680920 -0.296616
O52   O     O_R   0.931287 0.582343 0.795557 -0.293549
N3    N     N_R   0.531349 0.079796 0.270958 0.177177
O53   O     O_R   0.520907 0.111500 0.319094 -0.296581
O54   O     O_R   0.568702 0.082351 0.204453 -0.293822
N4    N     N_R   0.468633 0.079790 0.729058 0.177173
O55   O     O_R   0.479069 0.111496 0.680928 -0.296579
O56   O     O_R   0.431280 0.082338 0.795565 -0.293823
N5    N     N_R   0.048534 0.430526 0.255440 0.125282
O57   O     O_R   0.071351 0.418348 0.280911 -0.300663
O58   O     O_R   0.029305 0.400190 0.241610 -0.380089
N6    N     N_R   0.951464 0.430528 0.744561 0.125282
O59   O     O_R   0.928648 0.418349 0.719089 -0.300665
O60   O     O_R   0.970692 0.400191 0.758392 -0.380089
N7    N     N_R   0.548543 0.930533 0.255431 0.125287
O61   O     O_R   0.571357 0.918358 0.280910 -0.300655
O62   O     O_R   0.529322 0.900195 0.241588 -0.380079
N8    N     N_R   0.451469 0.930524 0.744556 0.125287
O63   O     O_R   0.428652 0.918344 0.719088 -0.300636
O64   O     O_R   0.470702 0.900189 0.758381 -0.380081
H57   H     H_    0.055058 0.450251 0.135966 0.198853
H58   H     H_    0.944941 0.450253 0.864034 0.198854
H59   H     H_    0.555066 0.950261 0.135958 0.198870
H60   H     H_    0.444945 0.950248 0.864030 0.198861
H61   H     H_    0.780074 0.434042 0.756637 0.145886
H62   H     H_    0.219926 0.434042 0.243363 0.145885
H63   H     H_    0.280074 0.934041 0.756632 0.145923
H64   H     H_    0.719926 0.934040 0.243369 0.145923
H65   H     H_    0.860410 0.566558 0.604092 0.162126
H66   H     H_    0.139589 0.566558 0.395908 0.162126
H67   H     H_    0.360410 0.066560 0.604098 0.162158
H68   H     H_    0.639590 0.066560 0.395900 0.162157
H69   H     H_    0.779842 0.566634 0.685269 0.148180
H70   H     H_    0.220158 0.566633 0.314731 0.148180
H71   H     H_    0.279842 0.066635 0.685275 0.148199
H72   H     H_    0.720158 0.066635 0.314723 0.148198
H73   H     H_    0.639641 0.477476 0.955710 0.164898
H74   H     H_    0.360359 0.477476 0.044290 0.164898
H75   H     H_    0.139641 0.977470 0.955707 0.164920
H76   H     H_    0.860360 0.977469 0.044292 0.164920
H77   H     H_    0.930017 0.720248 0.052880 0.142705
H78   H     H_    0.069982 0.720248 0.947119 0.142705
H79   H     H_    0.430209 0.220237 0.051123 0.142708
H80   H     H_    0.569790 0.220237 0.948877 0.142715
H81   H     H_    0.929726 0.639651 0.053244 0.165109
H82   H     H_    0.070274 0.639651 0.946756 0.165110
H83   H     H_    0.429917 0.139632 0.051500 0.165080
H84   H     H_    0.570082 0.139632 0.948500 0.165081
N9    N     N_R   0.511585 0.274809 0.103054 0.132618
O65   O     O_R   0.489134 0.239415 0.137774 -0.332632
O66   O     O_R   0.534999 0.292640 0.123629 -0.322542
N10   N     N_R   0.488421 0.274810 0.896934 0.132627
O67   O     O_R   0.510860 0.239406 0.862237 -0.332639
O68   O     O_R   0.465030 0.292652 0.876321 -0.322546
N11   N     N_R   0.013197 0.774827 0.101094 0.132548
O69   O     O_R   0.990876 0.739472 0.136350 -0.332250
O70   O     O_R   0.037298 0.792618 0.120273 -0.322674
N12   N     N_R   0.986802 0.774827 0.898907 0.132548
O71   O     O_R   0.009124 0.739472 0.863649 -0.332250
O72   O     O_R   0.962700 0.792617 0.879729 -0.322674
H85   H     H_    0.071002 0.280029 0.923715 0.145343
H86   H     H_    0.928998 0.280030 0.076285 0.145343
H87   H     H_    0.571002 0.780029 0.923715 0.145344
H88   H     H_    0.428998 0.780030 0.076285 0.145343
N13   N     N_R   0.435820 0.634194 0.991526 0.138465
O73   O     O_R   0.413735 0.601793 0.037688 -0.368627
O74   O     O_R   0.422768 0.650481 0.951846 -0.320018
N14   N     N_R   0.564180 0.634193 0.008474 0.138465
O75   O     O_R   0.586265 0.601793 0.962312 -0.368628
O76   O     O_R   0.577232 0.650481 0.048154 -0.320019
N15   N     N_R   0.935820 0.134194 0.991526 0.138462
O77   O     O_R   0.913735 0.101793 0.037688 -0.368629
O78   O     O_R   0.922768 0.150481 0.951846 -0.320049
N16   N     N_R   0.064180 0.134193 0.008474 0.138462
O79   O     O_R   0.086265 0.101793 0.962312 -0.368630
O80   O     O_R   0.077232 0.150481 0.048154 -0.320050
H89   H     H_    0.017287 0.568780 0.171281 0.213000
H90   H     H_    0.982714 0.568780 0.828717 0.212999
H91   H     H_    0.517276 0.068783 0.171293 0.212873
H92   H     H_    0.482708 0.068779 0.828724 0.212879
N17   N     N_R   0.087813 0.498521 0.221591 0.141111
O81   O     O_R   0.125331 0.488079 0.159053 -0.308793
O82   O     O_R   0.088798 0.518588 0.273783 -0.330819
N18   N     N_R   0.912187 0.498523 0.778408 0.141112
O83   O     O_R   0.874668 0.488083 0.840947 -0.308793
O84   O     O_R   0.911203 0.518591 0.726217 -0.330817
N19   N     N_R   0.587812 0.998533 0.221593 0.141110
O85   O     O_R   0.625332 0.988096 0.159053 -0.308812
O86   O     O_R   0.588794 0.018601 0.273786 -0.330818
N20   N     N_R   0.412187 0.998516 0.778409 0.141113
O87   O     O_R   0.374669 0.988073 0.840947 -0.308812
O88   O     O_R   0.411201 0.018583 0.726219 -0.330833

loop_
_geom_bond_atom_site_label_1
_geom_bond_atom_site_label_2
_geom_bond_distance
_ccdc_geom_bond_type
C97   C125  1.472644 S    
C73   C77   1.404092 A    
C23   C27   1.563538 S    
C82   H42   1.083266 S    
C52   C56   1.403449 A    
C76   C80   1.404092 A    
C39   H27   1.111804 S    
N13   O73   1.301079 A    
C13   H89   1.112325 S    
C141  C151  1.398874 A    
C75   C79   1.404093 A    
C107  C116  1.399806 A    
C15   H91   1.112321 S    
C122  C125  1.400365 A    
C133  H49   1.082908 S    
N6    O59   1.302463 A    
C4    C52   1.467356 S    
C13   C29   1.542776 S    
C47   H31   1.083100 S    
C143  C152  1.398873 A    
C141  C145  1.397839 A    
C117  C121  1.399148 A    
C132  C136  1.392507 A    
C10   C14   1.548767 S    
C11   C27   1.587210 S    
O30   C95   1.295692 A    
N10   O67   1.301306 A    
C30   C34   1.560580 S    
N7    O62   1.302221 A    
O4    C4    1.295594 A    
C76   C102  1.468720 S    
C81   H41   1.083265 S    
C83   C87   1.402151 A    
C144  C152  1.398874 A    
Cu9   Cu10  2.698084 S    
C135  C138  1.404137 A    
O19   C90   1.295971 A    
C49   C53   1.403448 A    
C120  C124  1.399116 A    
N17   O82   1.300261 A    
O27   C93   1.289744 A    
C41   C61   1.402344 A    
N12   O71   1.301312 A    
C41   H61   1.083236 S    
O35   Cu11  1.964495 S    
O26   C92   1.289744 A    
C133  C137  1.404138 A    
N14   O75   1.301080 A    
C45   C49   1.403664 A    
C108  C116  1.399807 A    
O44   Cu11  1.962075 S    
O13   C5    1.295806 A    
O7    Cu4   1.963833 S    
O34   C97   1.302918 A    
C105  C115  1.399747 A    
O15   C7    1.295809 A    
C6    C26   1.495025 S    
C61   C85   1.469417 S    
C38   H22   1.112855 S    
C140  C151  1.472726 S    
O4    Cu2   1.962622 S    
C90   C114  1.469954 S    
O22   Cu6   1.978213 S    
O9    C5    1.290157 A    
C79   C83   1.393746 A    
C130  H86   1.083086 S    
C53   H65   1.083096 S    
O25   Cu6   1.980056 S    
C44   C64   1.402342 A    
Cu5   Cu6   2.676555 S    
C55   H67   1.083092 S    
C56   H68   1.083094 S    
C34   H58   1.112223 S    
C103  C149  1.466429 S    
C143  C147  1.397839 A    
C83   H43   1.083264 S    
N1    O50   1.302174 A    
O8    Cu4   1.963833 S    
C17   C33   1.565098 S    
O35   C98   1.302857 A    
C62   C86   1.469417 S    
C51   C55   1.403450 A    
O39   C101  1.301681 A    
C48   C52   1.403663 A    
O33   C97   1.302916 A    
C134  C137  1.404139 A    
O3    Cu2   1.962629 S    
C71   C75   1.403913 A    
C75   C101  1.468720 S    
C15   H7    1.113951 S    
C120  N12   1.441104 S    
C67   H35   1.083275 S    
C3    C51   1.467356 S    
C9    N1    1.472961 S    
O20   C90   1.295972 A    
C20   N20   1.480491 S    
C40   H28   1.111811 S    
C122  H46   1.083129 S    
Cu5   O29   1.964041 S    
C16   H92   1.112326 S    
O21   C91   1.292418 A    
O22   C92   1.292418 A    
C71   H39   1.083026 S    
O3    C3    1.295594 A    
C69   H37   1.083026 S    
C70   C74   1.403916 A    
N9    O65   1.301307 A    
C63   C87   1.469417 S    
N19   O85   1.302435 A    
C70   H38   1.083024 S    
C65   C85   1.402081 A    
C123  H47   1.083097 S    
C9    H1    1.115724 S    
H12   C36   1.113540 S    
C29   C37   1.548285 S    
C31   C39   1.548276 S    
C7    C27   1.495029 S    
C12   H4    1.115724 S    
C112  C114  1.405415 A    
C18   C34   1.565098 S    
C119  C123  1.399114 A    
N20   O87   1.302437 A    
O38   Cu10  1.961434 S    
C57   H69   1.083261 S    
C44   C48   1.393567 A    
C17   C25   1.592082 S    
C66   H34   1.083275 S    
C20   C28   1.592082 S    
O5    Cu3   1.963833 S    
C21   H13   1.111152 S    
O36   C98   1.302855 A    
C23   H15   1.111146 S    
C24   H16   1.111152 S    
C21   H17   1.113843 S    
C58   C62   1.402200 A    
Cu10  O46   1.964212 S    
O23   C93   1.292420 A    
C42   H62   1.083235 S    
C42   C62   1.402343 A    
C37   H25   1.111812 S    
C47   C51   1.403663 A    
C10   H2    1.115727 S    
O13   Cu3   1.979264 S    
C10   N2    1.472958 S    
O41   Cu10  1.962075 S    
C111  C114  1.405414 A    
N11   O70   1.301497 A    
O40   Cu12  1.961434 S    
O27   Cu8   1.980056 S    
C24   H20   1.113843 S    
C106  C115  1.399746 A    
C18   N6    1.482213 S    
O5    C1    1.295317 A    
N16   O80   1.301385 A    
O8    C4    1.295317 A    
N18   O84   1.300260 A    
O15   Cu4   1.979264 S    
C46   C50   1.403664 A    
C106  H78   1.083306 S    
O28   C94   1.289744 A    
N15   O78   1.301386 A    
C148  N16   1.438669 S    
O33   Cu9   1.964495 S    
C45   H29   1.083098 S    
C60   C64   1.402200 A    
C53   C57   1.393223 A    
C15   C31   1.542766 S    
C16   C32   1.542776 S    
C131  C140  1.403022 A    
O14   C6    1.295808 A    
C55   C59   1.393223 A    
C20   C36   1.565099 S    
C131  C135  1.392507 A    
O1    Cu1   1.962629 S    
C22   H18   1.113843 S    
N5    O58   1.302234 A    
C24   C40   1.541598 S    
C129  C133  1.392507 A    
O10   C6    1.290155 A    
N6    O60   1.302236 A    
C54   H66   1.083095 S    
H11   C35   1.113533 S    
C32   C40   1.548286 S    
O44   C102  1.302100 A    
C104  C150  1.466429 S    
C144  H56   1.083376 S    
C2    C50   1.467353 S    
C17   N5    1.482214 S    
C41   C45   1.393567 A    
O41   C99   1.302104 A    
C119  C128  1.416820 A    
C43   C47   1.393567 A    
C141  H53   1.083378 S    
C16   H8    1.113959 S    
C24   C28   1.563546 S    
C142  C146  1.397839 A    
N2    O52   1.302176 A    
Cu11  O47   1.964211 S    
N4    O55   1.301404 A    
C65   C69   1.393199 A    
Cu6   O30   1.964041 S    
C131  H87   1.083084 S    
C98   C126  1.472394 S    
C67   C71   1.393199 A    
C14   C30   1.542779 S    
C116  C127  1.467994 S    
N3    O53   1.301402 A    
C64   C88   1.469417 S    
C40   H24   1.112858 S    
C11   N3    1.472952 S    
C14   H90   1.112324 S    
C146  C149  1.416884 A    
N17   O81   1.302438 A    
O20   Cu8   1.964314 S    
C134  H50   1.082909 S    
O21   Cu5   1.978213 S    
O42   C100  1.302102 A    
C19   N7    1.482221 S    
C146  N14   1.438669 S    
N14   O76   1.301385 A    
C72   C76   1.403915 A    
C22   C26   1.563547 S    
O48   C104  1.299869 A    
C46   H30   1.083099 S    
N8    O63   1.302461 A    
C66   C86   1.402081 A    
C35   H59   1.112219 S    
C31   C93   1.485501 S    
C29   C33   1.560580 S    
Cu8   O32   1.964041 S    
C18   N18   1.480489 S    
C32   C36   1.560579 S    
N1    O49   1.301404 A    
C117  C127  1.416928 A    
Cu9   O45   1.964211 S    
N13   O74   1.301386 A    
C42   C46   1.393567 A    
O12   Cu2   1.979053 S    
C118  C127  1.416938 A    
C142  C151  1.398871 A    
C58   H70   1.083263 S    
C18   C26   1.592081 S    
O1    C1    1.295594 A    
O18   C89   1.296014 A    
C119  N11   1.441105 S    
C78   C82   1.393746 A    
C21   C25   1.563545 S    
C22   H14   1.111149 S    
C121  H45   1.083130 S    
O43   Cu12  1.962075 S    
C56   C60   1.393223 A    
O37   Cu9   1.961434 S    
C59   H71   1.083261 S    
C29   C91   1.485503 S    
C145  C149  1.416881 A    
C30   C92   1.485504 S    
O23   Cu7   1.978213 S    
N7    O61   1.302458 A    
O24   C94   1.292418 A    
O46   C103  1.299869 A    
C43   H63   1.083237 S    
C73   C99   1.468723 S    
C89   C113  1.470118 S    
O34   Cu10  1.964495 S    
C129  H85   1.083084 S    
C118  N10   1.441283 S    
C9    C25   1.587217 S    
C132  C140  1.403022 A    
C135  H51   1.082908 S    
C11   H3    1.115721 S    
C12   C28   1.587219 S    
C109  H81   1.082865 S    
C124  H48   1.083095 S    
C12   N4    1.472961 S    
O40   C102  1.301683 A    
C111  H83   1.082934 S    
C112  H84   1.082936 S    
C123  C126  1.400220 A    
C77   C81   1.393746 A    
O28   Cu7   1.980056 S    
C80   C84   1.393746 A    
C20   N8    1.482213 S    
O6    C2    1.295317 A    
O32   C96   1.295692 A    
C68   C72   1.393199 A    
C14   H6    1.113958 S    
O16   Cu4   1.979259 S    
C121  C125  1.400366 A    
C82   C86   1.402150 A    
C120  C128  1.416819 A    
N11   O69   1.301310 A    
C39   H23   1.112854 S    
C107  H79   1.083370 S    
C80   H76   1.083021 S    
N20   O88   1.300257 A    
C78   H74   1.083021 S    
C43   C63   1.402344 A    
O2    Cu1   1.962622 S    
O10   Cu1   1.979053 S    
O17   C89   1.296012 A    
C105  C109  1.393201 A    
C77   H73   1.083020 S    
C136  H52   1.082909 S    
C148  C150  1.416883 A    
C9    C13   1.548767 S    
C118  C122  1.399154 A    
C139  C152  1.472726 S    
C84   C88   1.402148 A    
C22   C38   1.541602 S    
C147  C150  1.416884 A    
C107  C111  1.393205 A    
N15   O77   1.301080 A    
C130  C139  1.403020 A    
C30   C38   1.548285 S    
C79   H75   1.083020 S    
Cu11  Cu12  2.698084 S    
C21   C37   1.541600 S    
C84   H44   1.083266 S    
C81   C85   1.402148 A    
Cu7   Cu8   2.676555 S    
O7    C3    1.295317 A    
C136  C138  1.404137 A    
C44   H64   1.083237 S    
C33   H57   1.112225 S    
N3    O54   1.302171 A    
C19   C35   1.565095 S    
C36   H60   1.112225 S    
C95   C137  1.469626 S    
C142  H54   1.083379 S    
C48   H32   1.083098 S    
C23   C39   1.541600 S    
H9    C33   1.113541 S    
O42   Cu9   1.962075 S    
C65   H33   1.083273 S    
C147  N15   1.438670 S    
C108  C112  1.393202 A    
N9    O66   1.301560 A    
C37   H21   1.112859 S    
C124  C126  1.400219 A    
C60   H72   1.083263 S    
O19   Cu7   1.964314 S    
O11   C7    1.290154 A    
O12   C8    1.290156 A    
C13   H5    1.113958 S    
O9    Cu1   1.979054 S    
C96   C138  1.469626 S    
C72   H40   1.083024 S    
C105  H77   1.083307 S    
C67   C87   1.402081 A    
C143  H55   1.083378 S    
C68   C88   1.402083 A    
O36   Cu12  1.964495 S    
C17   N17   1.480486 S    
O16   C8    1.295808 A    
C132  H88   1.083084 S    
C109  C113  1.405408 A    
O11   Cu2   1.979054 S    
O29   C95   1.295691 A    
O39   Cu11  1.961434 S    
N5    O57   1.302463 A    
C106  C110  1.393201 A    
O45   C103  1.299871 A    
C32   C94   1.485501 S    
O25   C91   1.289747 A    
C5    C25   1.495029 S    
C145  N13   1.438670 S    
O6    Cu3   1.963833 S    
Cu7   O31   1.964041 S    
C8    C28   1.495025 S    
O31   C96   1.295691 A    
O17   Cu5   1.964314 S    
N12   O72   1.301495 A    
O18   Cu6   1.964314 S    
N19   O86   1.300255 A    
N10   O68   1.301557 A    
N4    O56   1.302175 A    
C108  H80   1.083375 S    
C19   C27   1.592071 S    
N2    O51   1.301405 A    
C19   N19   1.480479 S    
O2    C2    1.295594 A    
H10   C34   1.113541 S    
C54   C58   1.393223 A    
O47   C104  1.299871 A    
C69   C73   1.403915 A    
O37   C99   1.301679 A    
C115  C128  1.468052 S    
C117  N9    1.441270 S    
O14   Cu3   1.979259 S    
C110  C113  1.405409 A    
C74   C78   1.404094 A    
C23   H19   1.113840 S    
O24   Cu8   1.978213 S    
C57   C61   1.402200 A    
Cu1   Cu3   2.677393 S    
C130  C134  1.392504 A    
Cu2   Cu4   2.677393 S    
C144  C148  1.397839 A    
C31   C35   1.560575 S    
C38   H26   1.111813 S    
N16   O79   1.301079 A    
O43   C101  1.302102 A    
C10   C26   1.587215 S    
N18   O83   1.302437 A    
C11   C15   1.548766 S    
C50   C54   1.403452 A    
N8    O64   1.302231 A    
C12   C16   1.548769 S    
C110  H82   1.082863 S    
O38   C100  1.301681 A    
C1    C49   1.467353 S    
Cu12  O48   1.964212 S    
C129  C139  1.403022 A    
O26   Cu5   1.980056 S    
C59   C63   1.402200 A    
C74   C100  1.468723 S    
C66   C70   1.393199 A    
C68   H36   1.083275 S    
