data_mof_unit_31441.cif
_audit_creation_date              2013-03-05T15:46:36-0500
_audit_creation_method            fapswitch 2.2
_symmetry_space_group_name_H-M    P1
_symmetry_Int_Tables_number       1
_space_group_crystal_system       triclinic
_cell_length_a                    17.486502
_cell_length_b                    24.51859
_cell_length_c                    15.105997
_cell_angle_alpha                 90.310963
_cell_angle_beta                  126.361656
_cell_angle_gamma                 89.702067
_cell_volume                      5215.46248927

loop_
_atom_site_label
_atom_site_type_symbol
_atom_site_description
_atom_site_fract_x
_atom_site_fract_y
_atom_site_fract_z
_atom_type_partial_charge
C1    C     C_R   0.332296 0.356097 0.907909 0.246796
C2    C     C_R   0.675045 0.360399 0.093183 0.291794
C3    C     C_R   0.831105 0.856804 0.906976 0.331554
C4    C     C_R   0.161181 0.852890 0.091820 0.230713
N1    N     N_R   0.394180 0.396910 0.943210 -0.086281
N2    N     N_R   0.605820 0.396910 0.056790 -0.082430
N3    N     N_R   0.894180 0.896910 0.943210 -0.091295
N4    N     N_R   0.105820 0.896910 0.056790 -0.087494
C5    C     C_R   0.443997 0.651229 0.092032 -0.115269
C6    C     C_R   0.592832 0.632221 0.911744 -0.092941
C7    C     C_R   0.943890 0.151502 0.091259 -0.111775
C8    C     C_R   0.055115 0.151361 0.908479 -0.087771
H1    H     H_    0.488160 0.663623 0.177306 0.097470
H2    H     H_    0.561008 0.648050 0.830382 0.118514
H3    H     H_    0.989498 0.164575 0.176062 0.099617
H4    H     H_    0.009328 0.164119 0.823649 0.085800
N5    N     N_R   0.450950 0.603070 0.056740 -0.045117
N6    N     N_R   0.549050 0.603070 0.943260 -0.050336
N7    N     N_R   0.950950 0.103070 0.056740 -0.046351
N8    N     N_R   0.049050 0.103070 0.943260 -0.043888
C9    C     C_R   0.537912 0.455049 0.296837 -0.128513
C10   C     C_R   0.509121 0.453996 0.741395 -0.136339
C11   C     C_R   0.045099 0.955841 0.301405 -0.094468
C12   C     C_R   0.018442 0.954219 0.751698 -0.137493
H5    H     H_    0.552054 0.413963 0.327474 0.171867
H6    H     H_    0.513039 0.412528 0.721437 0.156202
H7    H     H_    0.066606 0.915666 0.335823 0.180956
H8    H     H_    0.027259 0.912356 0.737543 0.150665
N9    N     N_R   0.525650 0.471570 0.206150 -0.048514
N10   N     N_R   0.474350 0.471570 0.793850 -0.042323
N11   N     N_R   0.025650 0.971570 0.206150 -0.049377
N12   N     N_R   0.974350 0.971570 0.793850 -0.041876
C13   C     C_R   0.233044 0.546880 0.753220 -0.131798
C14   C     C_R   0.753628 0.546362 0.303522 -0.122380
C15   C     C_R   0.745459 0.046664 0.697615 -0.126885
C16   C     C_R   0.266715 0.046548 0.246274 -0.099426
H9    H     H_    0.215446 0.589203 0.750658 0.116231
H10   H     H_    0.758937 0.587838 0.330960 0.120150
H11   H     H_    0.739051 0.088414 0.671635 0.105451
H12   H     H_    0.284105 0.088773 0.248622 0.112082
N13   N     N_R   0.319480 0.528420 0.793810 -0.049399
N14   N     N_R   0.680520 0.528420 0.206190 -0.047812
N15   N     N_R   0.819480 0.028420 0.793810 -0.049105
N16   N     N_R   0.180520 0.028420 0.206190 -0.045912
C17   C     C_R   0.535282 0.546597 0.294897 -0.081139
C18   C     C_R   0.503317 0.545332 0.734922 -0.084534
C19   C     C_R   0.039094 0.046809 0.297349 -0.075420
C20   C     C_R   0.014952 0.045743 0.747422 -0.084932
H13   H     H_    0.543755 0.588826 0.320142 0.132647
H14   H     H_    0.497481 0.586185 0.705455 0.117915
H15   H     H_    0.047136 0.089206 0.321385 0.137659
H16   H     H_    0.018716 0.087711 0.728848 0.132982
N17   N     N_R   0.525640 0.528390 0.206120 -0.055835
N18   N     N_R   0.474360 0.528390 0.793880 -0.056178
N19   N     N_R   0.025640 0.028390 0.206120 -0.057684
N20   N     N_R   0.974360 0.028390 0.793880 -0.059687
C21   C     C_R   0.229656 0.455858 0.747394 -0.103378
C22   C     C_R   0.755677 0.455963 0.306031 -0.080689
C23   C     C_R   0.745009 0.956282 0.693192 -0.046885
C24   C     C_R   0.270144 0.955426 0.251549 -0.080806
H17   H     H_    0.205004 0.414600 0.732859 0.138859
H18   H     H_    0.765114 0.415620 0.338423 0.158817
H19   H     H_    0.737858 0.916644 0.658735 0.159725
H20   H     H_    0.294179 0.913866 0.264354 0.137703
N21   N     N_R   0.319490 0.471590 0.793840 -0.037369
N22   N     N_R   0.680510 0.471590 0.206160 -0.045940
N23   N     N_R   0.819490 0.971590 0.793840 -0.046443
N24   N     N_R   0.180510 0.971590 0.206160 -0.036207
C25   C     C_R   0.354062 0.652108 0.909336 -0.136219
C26   C     C_R   0.686594 0.628274 0.096169 -0.140217
C27   C     C_R   0.852010 0.151457 0.908096 -0.106929
C28   C     C_R   0.145946 0.152135 0.091072 -0.136027
H21   H     H_    0.315818 0.665873 0.825351 0.095630
H22   H     H_    0.741046 0.637440 0.181809 0.112578
H23   H     H_    0.812869 0.164536 0.823595 0.088006
H24   H     H_    0.184162 0.166053 0.175138 0.096461
N25   N     N_R   0.394130 0.603080 0.943110 -0.044764
N26   N     N_R   0.605870 0.603080 0.056890 -0.047402
N27   N     N_R   0.894130 0.103080 0.943110 -0.044854
N28   N     N_R   0.105870 0.103080 0.056890 -0.044127
C29   C     C_R   0.424286 0.356875 0.091856 0.264603
C30   C     C_R   0.580136 0.358580 0.908933 0.261694
C31   C     C_R   0.923906 0.856696 0.091046 0.318536
C32   C     C_R   0.068496 0.852650 0.908753 0.233904
N29   N     N_R   0.450990 0.396900 0.056840 -0.084895
N30   N     N_R   0.549010 0.396900 0.943160 -0.081736
N31   N     N_R   0.950990 0.896900 0.056840 -0.090576
N32   N     N_R   0.049010 0.896900 0.943160 -0.085338
C33   C     C_R   0.343061 0.334325 0.999474 -0.066959
C34   C     C_R   0.666003 0.339963 0.001375 -0.093761
C35   C     C_R   0.847550 0.832971 0.998362 -0.201503
C36   C     C_R   0.145808 0.827272 0.000554 -0.045484
C37   C     C_R   0.384468 0.683321 0.000959 0.058983
C38   C     C_R   0.680110 0.646189 0.006314 0.076658
C39   C     C_R   0.884006 0.183302 0.999509 0.057491
C40   C     C_R   0.114788 0.183403 0.999619 0.065128
C41   C     C_R   0.543583 0.501070 0.351998 0.105275
C42   C     C_R   0.529732 0.499385 0.706860 0.125450
C43   C     C_R   0.052342 0.001725 0.358289 0.087722
C44   C     C_R   0.043786 0.999672 0.721210 0.122824
C45   C     C_R   0.174394 0.502373 0.722754 0.051491
C46   C     C_R   0.802737 0.501981 0.368476 0.048318
C47   C     C_R   0.696944 0.002299 0.631789 0.036181
C48   C     C_R   0.325379 0.001852 0.276488 0.041621
Ni1   Ni    Ni4+2 0.434860 0.434850 0.869700 0.299177
Ni2   Ni    Ni4+2 0.565140 0.434850 0.130300 0.282254
Ni3   Ni    Ni4+2 0.934860 0.934850 0.869700 0.278258
Ni4   Ni    Ni4+2 0.065140 0.934850 0.130300 0.291160
Ni5   Ni    Ni4+2 0.565130 0.565140 0.130240 0.212587
Ni6   Ni    Ni4+2 0.434870 0.565140 0.869760 0.212916
Ni7   Ni    Ni4+2 0.065130 0.065140 0.130240 0.224346
Ni8   Ni    Ni4+2 0.934870 0.065140 0.869760 0.205090
C49   C     C_R   0.022243 0.554111 0.623377 0.174699
C50   C     C_R   0.928100 0.553800 0.533690 0.243878
C51   C     C_R   0.570984 0.053754 0.466602 0.158538
C52   C     C_R   0.476869 0.053793 0.376754 0.166908
C53   C     C_R   0.071904 0.504891 0.667420 0.022040
C54   C     C_R   0.881611 0.504361 0.485391 0.048331
C55   C     C_R   0.618163 0.004461 0.514758 0.028113
C56   C     C_R   0.427890 0.004440 0.332333 0.039596
C57   C     C_R   0.018445 0.456736 0.639056 -0.178136
C58   C     C_R   0.923068 0.456400 0.547390 -0.154280
C59   C     C_R   0.577264 0.956302 0.452658 -0.168122
C60   C     C_R   0.481930 0.956360 0.360923 -0.169207
C61   C     C_3   0.939607 0.603305 0.485089 -0.508545
C62   C     C_3   0.042581 0.603566 0.582593 -0.510710
C63   C     C_3   0.455674 0.103234 0.417777 -0.481183
C64   C     C_3   0.558555 0.103225 0.515423 -0.481648
H25   H     H_    0.929872 0.594984 0.406524 0.200535
H26   H     H_    0.061803 0.639562 0.637081 0.215804
H27   H     H_    0.436014 0.139189 0.363582 0.207818
H28   H     H_    0.568182 0.094921 0.593791 0.217330
H29   H     H_    0.899438 0.638957 0.483855 0.224081
H30   H     H_    0.090537 0.595264 0.558475 0.206690
H31   H     H_    0.407707 0.094851 0.441660 0.221545
H32   H     H_    0.598204 0.138990 0.517054 0.204393
C65   C     C_R   0.273604 0.758834 0.901563 -0.161209
C66   C     C_R   0.782004 0.688889 0.968794 -0.147522
C67   C     C_R   0.784043 0.263153 0.899899 -0.155794
C68   C     C_R   0.219955 0.261403 0.098321 -0.164359
H33   H     H_    0.256911 0.746331 0.823181 0.122887
H34   H     H_    0.790874 0.650793 0.939263 0.188788
H35   H     H_    0.764349 0.248620 0.821267 0.120875
H36   H     H_    0.237428 0.248538 0.176693 0.122915
C69   C     C_R   0.725748 0.300838 0.900878 -0.103441
C70   C     C_R   0.281279 0.296398 0.098057 -0.121598
C71   C     C_R   0.208417 0.790587 0.901536 -0.122535
C72   C     C_R   0.821337 0.736019 0.963612 -0.036569
C73   C     C_R   0.740780 0.313716 0.000644 0.144971
C74   C     C_R   0.268367 0.307551 0.998950 0.144176
C75   C     C_R   0.221346 0.801506 0.000897 0.136351
C76   C     C_R   0.805999 0.784619 0.999547 0.199995
C77   C     C_R   0.829547 0.302107 0.099045 -0.105926
C78   C     C_R   0.180607 0.295414 0.899618 -0.109742
C79   C     C_R   0.310304 0.791147 0.100287 -0.127777
C80   C     C_R   0.755970 0.787141 0.044330 -0.107304
H37   H     H_    0.851951 0.319001 0.176925 0.164348
H38   H     H_    0.160802 0.310123 0.821537 0.152739
H39   H     H_    0.328800 0.804987 0.178532 0.159636
H40   H     H_    0.746219 0.825274 0.073291 0.131825
C81   C     C_R   0.375538 0.759337 0.100331 -0.165334
C82   C     C_R   0.717835 0.740231 0.050655 -0.170821
C83   C     C_R   0.888158 0.264416 0.098554 -0.160614
C84   C     C_R   0.118850 0.260620 0.899584 -0.147477
H41   H     H_    0.439480 0.747293 0.178640 0.125294
H42   H     H_    0.676122 0.741807 0.082371 0.129785
H43   H     H_    0.950904 0.250984 0.176569 0.127935
H44   H     H_    0.056349 0.247282 0.821227 0.122126
C85   C     C_R   0.350815 0.737362 0.000983 0.126982
C86   C     C_R   0.730473 0.691780 0.011813 0.097890
C87   C     C_R   0.857623 0.239460 0.999168 0.115250
C88   C     C_R   0.145445 0.238131 0.999129 0.119941
C89   C     C_R   0.617229 0.526392 0.634167 0.287601
C90   C     C_R   0.620413 0.527494 0.544401 0.281333
C91   C     C_R   0.125713 0.032381 0.641937 0.275073
C92   C     C_R   0.127228 0.033529 0.550338 0.278245
C93   C     C_R   0.548742 0.500081 0.448346 -0.036968
C94   C     C_R   0.543037 0.497781 0.623698 -0.046981
C95   C     C_R   0.062785 0.000301 0.459390 -0.033687
C96   C     C_R   0.060640 0.997696 0.639388 -0.044669
C97   C     C_R   0.477605 0.470523 0.441041 -0.183911
C98   C     C_R   0.474661 0.469394 0.528756 -0.187023
C99   C     C_R   0.002372 0.964450 0.461173 -0.176786
C100  C     C_R   0.001271 0.963114 0.550356 -0.188281
H45   H     H_    0.422705 0.449557 0.366086 0.150575
H46   H     H_    0.416942 0.447944 0.521214 0.159196
H47   H     H_    0.952601 0.938907 0.391045 0.158957
H48   H     H_    0.949648 0.936948 0.546630 0.158729
Br1   Br    Br    0.286961 0.316021 0.775608 -0.453813
Br2   Br    Br    0.730641 0.321588 0.228349 -0.520403
Br3   Br    Br    0.754727 0.826026 0.762274 -0.518713
Br4   Br    Br    0.202935 0.816270 0.225571 -0.505411
H49   H     H_    0.666339 0.316594 0.823155 0.155448
H50   H     H_    0.340544 0.311958 0.176082 0.159296
H51   H     H_    0.146586 0.803891 0.823136 0.162553
H52   H     H_    0.863143 0.734886 0.932061 0.177480
Br5   Br    Br    0.713598 0.562013 0.770089 -0.517510
Br6   Br    Br    0.722815 0.563781 0.554173 -0.513696
Br7   Br    Br    0.212388 0.076529 0.769651 -0.435424
Br8   Br    Br    0.218830 0.077750 0.551809 -0.456692
Br9   Br    Br    0.513910 0.316921 0.223517 -0.519597
Br10  Br    Br    0.494339 0.314595 0.781093 -0.472069
Br11  Br    Br    0.998751 0.821995 0.231801 -0.519451
Br12  Br    Br    0.972482 0.815358 0.775764 -0.528155
H53   H     H_    0.052152 0.418205 0.677318 0.135963
H54   H     H_    0.887090 0.417581 0.518448 0.146789
H55   H     H_    0.613570 0.917508 0.481524 0.151185
H56   H     H_    0.448668 0.917725 0.322732 0.135635

loop_
_geom_bond_atom_site_label_1
_geom_bond_atom_site_label_2
_geom_bond_distance
_ccdc_geom_bond_type
C22   H18   1.073726 S    
C11   C43   1.371866 A    
C58   H54   1.080934 S    
C10   C42   1.368924 A    
C26   N26   1.318384 A    
N11   Ni4   1.876379 S    
C4    Br4   1.919673 S    
C25   N25   1.330512 A    
C14   N14   1.326517 A    
C57   H53   1.081731 S    
C4    N4    1.330410 A    
C48   C56   1.461661 S    
C55   C59   1.409602 A    
C27   N27   1.328510 A    
C59   C60   1.400047 A    
N1    Ni1   1.886579 S    
C89   C90   1.390163 A    
C79   C81   1.378189 A    
N10   N18   1.393145 A    
C7    N7    1.328661 A    
C14   C46   1.373698 A    
N9    N17   1.393148 A    
N27   Ni8   1.875761 S    
C77   C83   1.379710 A    
C81   H41   1.081077 S    
C1    N1    1.333398 A    
C78   C84   1.379472 A    
C26   C38   1.368092 A    
N14   Ni5   1.856225 S    
C63   H31   1.112371 S    
C78   H38   1.077100 S    
C3    N3    1.331418 A    
C64   H32   1.111795 S    
C98   H46   1.084797 S    
C15   H11   1.079549 S    
C5    H1    1.080133 S    
C52   C56   1.403062 A    
C12   C44   1.379577 A    
C6    C38   1.379206 A    
C7    C39   1.381194 A    
C51   C52   1.379119 A    
N4    Ni4   1.876965 S    
C19   C43   1.370588 A    
N18   Ni6   1.877100 S    
C3    C35   1.366077 A    
C54   C58   1.408374 A    
C2    C34   1.390200 A    
C53   C57   1.408023 A    
N6    Ni6   1.861065 S    
C73   C77   1.401445 A    
C23   N23   1.341499 A    
N8    Ni8   1.861065 S    
C7    H3    1.080087 S    
C72   H52   1.084040 S    
C92   C95   1.408081 A    
N3    N31   1.382491 A    
N31   Ni4   1.860957 S    
C76   C80   1.388363 A    
C66   C72   1.373914 A    
N12   Ni3   1.885767 S    
C2    Br2   1.917644 S    
C26   H22   1.081287 S    
C96   C100  1.395237 A    
C25   H21   1.080246 S    
C22   C46   1.384811 A    
C75   C79   1.403259 A    
C42   C94   1.407027 S    
C83   C87   1.398695 A    
C61   H29   1.111809 S    
C65   C85   1.397285 A    
C46   C54   1.461580 S    
C16   N16   1.325850 A    
C28   H24   1.080318 S    
C29   C33   1.385644 A    
C32   Br12  1.920226 S    
C18   C42   1.372498 A    
C80   C82   1.364329 A    
C68   C88   1.397090 A    
C70   C74   1.403587 A    
C60   H56   1.081841 S    
C18   N18   1.327821 A    
C2    N2    1.331880 A    
C67   H35   1.080792 S    
C92   Br8   1.928066 S    
C34   C73   1.460273 S    
C8    H4    1.079887 S    
C64   H28   1.112286 S    
C62   H30   1.112243 S    
N21   Ni1   1.856242 S    
C22   N22   1.341717 A    
C95   C99   1.390355 A    
C81   C85   1.397771 A    
C20   C44   1.383106 A    
C90   Br6   1.929110 S    
N8    N28   1.382488 A    
C79   H39   1.077162 S    
C72   C76   1.395989 A    
C16   H12   1.074991 S    
C31   Br11  1.914694 S    
C66   H34   1.082389 S    
C68   C70   1.378715 A    
C30   Br10  1.924064 S    
N32   Ni3   1.856595 S    
C97   H45   1.085282 S    
C19   H15   1.081253 S    
C49   C62   1.499595 S    
C30   N30   1.330202 A    
C9    N9    1.320439 A    
C52   C63   1.500130 S    
C13   H9    1.075161 S    
C51   C64   1.496679 S    
C100  H48   1.083968 S    
C51   C55   1.399306 A    
C56   C60   1.406839 A    
N4    N32   1.382489 A    
C32   N32   1.327937 A    
C97   C98   1.356601 A    
N7    N27   1.382487 A    
C99   C100  1.359271 A    
C12   N12   1.325401 A    
C43   C95   1.427175 S    
C3    Br3   1.913667 S    
C9    C41   1.367625 A    
C41   C93   1.404171 S    
C91   C92   1.399991 A    
C82   C86   1.395637 A    
C89   Br5   1.926498 S    
C80   H40   1.084887 S    
C83   H43   1.080915 S    
N6    N26   1.382488 A    
C37   C85   1.447093 S    
C8    N8    1.327905 A    
C36   C75   1.458478 S    
N5    N25   1.382487 A    
C17   H13   1.081561 S    
N2    Ni2   1.876965 S    
C59   H55   1.080695 S    
C50   C54   1.399968 A    
C30   C34   1.387957 A    
C67   C87   1.398380 A    
C90   C93   1.403472 A    
C91   Br7   1.928210 S    
C57   C58   1.400235 A    
C94   C98   1.391185 A    
C10   H6    1.072283 S    
C49   C53   1.402088 A    
C84   H44   1.080760 S    
C5    N5    1.327326 A    
C33   C74   1.460697 S    
C11   H7    1.073258 S    
N13   Ni6   1.860357 S    
N10   Ni1   1.885767 S    
C40   C88   1.449251 S    
C61   C62   1.505665 S    
C13   C45   1.378759 A    
C71   H51   1.077112 S    
N16   N24   1.393388 A    
N30   Ni1   1.856595 S    
C70   H50   1.076852 S    
N15   Ni8   1.860357 S    
N24   Ni4   1.860385 S    
C63   C64   1.505217 S    
C44   C96   1.431094 S    
C5    C37   1.378590 A    
C35   C76   1.399401 S    
C15   N15   1.325824 A    
C12   H8    1.076135 S    
C19   N19   1.329798 A    
C49   C50   1.378787 A    
C25   C37   1.379906 A    
N17   Ni5   1.886499 S    
C23   H19   1.072231 S    
C50   C61   1.496718 S    
C9    H5    1.075578 S    
C67   C69   1.378783 A    
C1    C33   1.389889 A    
C10   N10   1.322158 A    
N19   Ni7   1.886499 S    
C14   H10   1.079495 S    
C69   H49   1.077682 S    
C65   C71   1.376844 A    
C47   C55   1.462320 S    
C68   H36   1.081005 S    
C21   N21   1.343567 A    
N5    Ni5   1.856706 S    
C31   N31   1.327999 A    
N13   N21   1.393391 A    
C21   H17   1.071116 S    
C91   C96   1.406174 A    
N7    Ni7   1.856706 S    
C23   C47   1.384516 A    
C21   C45   1.392722 A    
C18   H14   1.077871 S    
C15   C47   1.374526 A    
N2    N30   1.382489 A    
C16   C48   1.378472 A    
C24   H20   1.074103 S    
C13   N13   1.327526 A    
C45   C53   1.462039 S    
C63   H27   1.111993 S    
N1    N29   1.382491 A    
C28   N28   1.333144 A    
C17   C41   1.367986 A    
C38   C86   1.398031 S    
C27   H23   1.080214 S    
N23   Ni3   1.856242 S    
N22   Ni2   1.860385 S    
C20   N20   1.332082 A    
C89   C94   1.401867 A    
C6    N6    1.328620 A    
C93   C97   1.389423 A    
C71   C75   1.403392 A    
C31   C35   1.365258 A    
N28   Ni7   1.885374 S    
C29   Br9   1.918504 S    
N20   Ni8   1.877100 S    
C82   H42   1.084885 S    
N26   Ni5   1.885374 S    
N3    Ni3   1.886579 S    
C77   H37   1.076554 S    
N25   Ni6   1.875761 S    
N9    Ni2   1.876379 S    
C69   C73   1.402138 A    
C84   C88   1.399500 A    
C65   H33   1.080877 S    
C17   N17   1.323757 A    
C6    H2    1.078336 S    
C28   C40   1.381212 A    
N16   Ni7   1.856225 S    
C61   H25   1.112320 S    
C20   H16   1.080576 S    
C27   C39   1.380658 A    
C24   N24   1.343899 A    
N15   N23   1.393391 A    
C74   C78   1.401627 A    
N14   N22   1.393388 A    
C62   H26   1.111984 S    
C8    C40   1.376529 A    
C32   C36   1.384015 A    
N11   N19   1.393148 A    
C24   C48   1.394954 A    
C39   C87   1.448956 S    
N12   N20   1.393145 A    
C29   N29   1.328220 A    
C99   H47   1.084956 S    
N29   Ni2   1.860957 S    
C11   N11   1.326373 A    
C66   C86   1.390132 A    
C4    C36   1.385781 A    
C1    Br1   1.922554 S    
