data_mof_unit_53863.cif
_audit_creation_date              2012-12-11T16:25:37-0500
_audit_creation_method            fapswitch 2.2
_symmetry_space_group_name_H-M    P1
_symmetry_Int_Tables_number       1
_space_group_crystal_system       monoclinic
_cell_length_a                    21.008312
_cell_length_b                    7.344276
_cell_length_c                    12.959857
_cell_angle_alpha                 90.0
_cell_angle_beta                  104.720864
_cell_angle_gamma                 90.0
_cell_volume                      1933.95136011

loop_
_atom_site_label
_atom_site_type_symbol
_atom_type_description
_atom_site_fract_x
_atom_site_fract_y
_atom_site_fract_z
_atom_type_partial_charge
O1    O     O_R   0.449520 0.506760 0.599710 -0.535344
O2    O     O_R   0.550480 0.006760 0.400290 -0.535345
O3    O     O_R   0.587930 0.180200 0.595790 -0.530685
O4    O     O_R   0.412070 0.680200 0.404210 -0.530685
C1    C     C_R   0.614559 0.343803 0.617971 0.668172
C2    C     C_R   0.385441 0.843803 0.382029 0.668172
O5    O     O_R   0.452350 0.177380 0.611700 -0.523034
O6    O     O_R   0.547650 0.677380 0.388300 -0.523035
O7    O     O_R   0.413930 0.001760 0.416320 -0.537393
O8    O     O_R   0.586070 0.501760 0.583680 -0.537393
C3    C     C_R   0.433101 0.344276 0.634283 0.677978
C4    C     C_R   0.566899 0.844276 0.365717 0.677978
O9    O     O_3   0.487550 0.337460 0.435880 -0.371678
O10   O     O_3   0.512450 0.837460 0.564120 -0.371678
V1    V     V_3+5 0.502310 0.064670 0.511900 1.497634
V2    V     V_3+5 0.497690 0.564670 0.488100 1.497634
C5    C     C_R   0.610428 0.822933 0.100518 -0.152390
C6    C     C_R   0.389572 0.322933 0.899482 -0.152390
H1    H     H_    0.582120 0.809744 0.018849 0.162338
H2    H     H_    0.417880 0.309744 0.981151 0.162338
C7    C     C_R   0.606304 0.847757 0.284460 -0.110696
C8    C     C_R   0.393696 0.347757 0.715540 -0.110697
C9    C     C_R   0.923416 0.861526 0.322520 -0.007115
C10   C     C_R   0.076583 0.361526 0.677480 -0.007115
C11   C     C_R   0.887598 0.899626 0.396832 -0.131665
C12   C     C_R   0.112402 0.399626 0.603167 -0.131665
C13   C     C_R   0.819817 0.913319 0.366804 -0.192027
C14   C     C_R   0.180183 0.413318 0.633196 -0.192027
C15   C     C_R   0.783763 0.881871 0.260828 0.078323
C16   C     C_R   0.216237 0.381870 0.739172 0.078323
C17   C     C_R   0.819486 0.862595 0.179732 -0.022125
C18   C     C_R   0.180514 0.362595 0.820268 -0.022125
C19   C     C_R   0.713284 0.867861 0.234779 0.067038
C20   C     C_R   0.286716 0.367861 0.765221 0.067038
C21   C     C_R   0.679132 0.835657 0.127102 0.006101
C22   C     C_R   0.320868 0.335657 0.872898 0.006101
C23   C     C_R   0.712840 0.816133 0.046462 -0.085669
C24   C     C_R   0.287160 0.316133 0.953538 -0.085669
C25   C     C_R   0.782053 0.836287 0.071493 -0.127458
C26   C     C_R   0.217947 0.336286 0.928506 -0.127459
C27   C     C_R   0.674995 0.878592 0.312577 -0.216323
C28   C     C_R   0.325005 0.378592 0.687423 -0.216323
C29   C     C_R   0.575654 0.813599 0.177455 0.026089
C30   C     C_R   0.424346 0.313599 0.822544 0.026089
C31   C     C_R   0.891142 0.861551 0.212202 -0.153916
C32   C     C_R   0.108858 0.361551 0.787798 -0.153916
H3    H     H_    0.696890 0.902015 0.396033 0.113047
H4    H     H_    0.303110 0.402015 0.603967 0.113047
H5    H     H_    0.797045 0.941071 0.430671 0.126724
H6    H     H_    0.202955 0.441071 0.569329 0.126724
H7    H     H_    0.912053 0.910473 0.480994 0.160635
H8    H     H_    0.087947 0.410473 0.519006 0.160635
H9    H     H_    0.125376 0.073560 0.489021 0.166785
H10   H     H_    0.874624 0.573561 0.510979 0.166785
C33   C     C_R   0.220468 0.811877 0.028401 -0.034298
C34   C     C_R   0.779532 0.311876 0.971599 -0.034298
C35   C     C_R   0.269856 0.765522 0.980149 -0.147736
C36   C     C_R   0.730144 0.265522 0.019851 -0.147736
C37   C     C_R   0.332497 0.730849 0.042502 -0.005125
C38   C     C_R   0.667503 0.230849 0.957498 -0.005125
C39   C     C_R   0.347546 0.756548 0.153295 -0.038365
C40   C     C_R   0.652454 0.256548 0.846705 -0.038365
C41   C     C_R   0.299009 0.808736 0.204290 0.053706
C42   C     C_R   0.700991 0.308736 0.795710 0.053706
C43   C     C_R   0.233138 0.824133 0.140965 0.145250
C44   C     C_R   0.766862 0.324133 0.859034 0.145250
C45   C     C_R   0.315241 0.849637 0.315356 -0.170881
C46   C     C_R   0.684759 0.349637 0.684644 -0.170881
C47   C     C_R   0.263867 0.903202 0.361925 0.084191
C48   C     C_R   0.736133 0.403202 0.638075 0.084191
C49   C     C_R   0.197351 0.911845 0.298633 0.030258
C50   C     C_R   0.802649 0.411845 0.701367 0.030258
C51   C     C_R   0.181578 0.861694 0.189178 -0.139950
C52   C     C_R   0.818422 0.361694 0.810822 -0.139950
C53   C     C_R   0.277333 0.948044 0.471534 -0.142154
C54   C     C_R   0.722667 0.448044 0.528466 -0.142154
C55   C     C_R   0.227482 0.007144 0.516588 -0.143799
C56   C     C_R   0.772517 0.507144 0.483412 -0.143799
C57   C     C_R   0.163472 0.023729 0.453873 -0.077978
C58   C     C_R   0.836528 0.523730 0.546127 -0.077977
C59   C     C_R   0.148250 0.975995 0.346266 -0.152056
C60   C     C_R   0.851750 0.475996 0.653734 -0.152056
H11   H     H_    0.172028 0.835143 0.976357 0.116518
H12   H     H_    0.827972 0.335143 0.023643 0.116518
H13   H     H_    0.259016 0.750781 0.894307 0.125811
H14   H     H_    0.740983 0.250780 0.105692 0.125811
H15   H     H_    0.368821 0.683083 0.003287 0.149399
H16   H     H_    0.631179 0.183083 0.996713 0.149399
H17   H     H_    0.397107 0.736883 0.199732 0.118185
H18   H     H_    0.602893 0.236883 0.800268 0.118185
H19   H     H_    0.326403 0.938535 0.523652 0.124605
H20   H     H_    0.673597 0.438535 0.476348 0.124605
H21   H     H_    0.238709 0.041722 0.600468 0.137475
H22   H     H_    0.761291 0.541723 0.399532 0.137475
H23   H     H_    0.097844 0.992123 0.300535 0.120040
H24   H     H_    0.902155 0.492124 0.699465 0.120040
O11   O     O_R   0.913760 0.203480 0.916370 -0.493668
O12   O     O_R   0.086240 0.703480 0.083630 -0.493668
O13   O     O_R   0.047590 0.535230 0.888250 -0.533706
O14   O     O_R   0.952410 0.035230 0.111750 -0.533706
C61   C     C_R   0.066053 0.368517 0.864234 0.750439
C62   C     C_R   0.933946 0.868517 0.135766 0.750439
O15   O     O_R   0.912020 0.532880 0.904260 -0.547483
O16   O     O_R   0.087980 0.032880 0.095740 -0.547483
O17   O     O_R   0.949590 0.708460 0.099750 -0.521727
O18   O     O_R   0.050410 0.208460 0.900250 -0.521727
C63   C     C_R   0.887450 0.365376 0.878872 0.701963
C64   C     C_R   0.112550 0.865376 0.121128 0.701962
O19   O     O_3   0.012370 0.375360 0.064120 -0.373089
O20   O     O_3   0.987630 0.875360 0.935880 -0.373089
V3    V     V_3+5 0.997700 0.648160 0.988110 1.529237
V4    V     V_3+5 0.002300 0.148160 0.011890 1.529236
C65   C     C_2   0.508717 0.746651 0.141279 0.712834
O21   O     O_2   0.469015 0.834564 0.074940 -0.560364
O22   O     O_R   0.494351 0.571382 0.171141 -0.645648
H25   H     H_    0.450788 0.522845 0.127477 0.280315
C66   C     C_2   0.491283 0.246651 0.858721 0.712835
O23   O     O_2   0.530985 0.334564 0.925060 -0.560364
O24   O     O_R   0.505649 0.071382 0.828858 -0.645648
H26   H     H_    0.549211 0.022845 0.872523 0.280315
C67   C     C_2   0.674776 0.775202 0.933847 0.764082
O25   O     O_2   0.680952 0.870798 0.859831 -0.562133
O26   O     O_R   0.631745 0.627233 0.913056 -0.644840
H27   H     H_    0.606961 0.619097 0.835070 0.300655
C68   C     C_2   0.325224 0.275202 0.066153 0.764082
O27   O     O_2   0.319048 0.370798 0.140169 -0.562133
O28   O     O_R   0.368255 0.127233 0.086943 -0.644840
H28   H     H_    0.393039 0.119097 0.164929 0.300655
C69   C     C_2   0.993839 0.810124 0.364390 0.708720
O29   O     O_2   0.024375 0.862004 0.452788 -0.564402
O30   O     O_R   0.023956 0.691073 0.307084 -0.667094
H29   H     H_    0.070478 0.657451 0.347138 0.287959
C70   C     C_2   0.006161 0.310124 0.635610 0.708720
O31   O     O_2   0.975625 0.362004 0.547212 -0.564402
O32   O     O_R   0.976044 0.191073 0.692916 -0.667094
H30   H     H_    0.929522 0.157452 0.652862 0.287959
C71   C     C_2   0.811635 0.839210 0.979714 0.781229
O33   O     O_2   0.839383 0.975099 0.961552 -0.556095
O34   O     O_R   0.798861 0.700741 0.904448 -0.659935
H31   H     H_    0.811731 0.735846 0.836764 0.306316
C72   C     C_2   0.188365 0.339210 0.020286 0.781229
O35   O     O_2   0.160618 0.475099 0.038448 -0.556095
O36   O     O_R   0.201139 0.200741 0.095552 -0.659936
H32   H     H_    0.188269 0.235846 0.163236 0.306316

loop_
_geom_bond_atom_site_label_1
_geom_bond_atom_site_label_2
_ccdc_geom_bond_type
C10   C70   S    
C24   C26   A    
C25   C71   S    
C9    C31   A    
C13   C15   A    
O1    C3    A    
O2    C4    A    
C2    O7    A    
C41   C43   A    
C38   H16   S    
C43   C51   A    
O26   H27   S    
O18   V4    S    
O5    C3    A    
C71   O34   S    
C42   C46   A    
O15   V3    S    
C21   C23   A    
C10   C12   A    
C65   O21   D    
C6    C30   A    
C66   O24   S    
C59   H23   S    
C56   C58   A    
C35   C37   A    
C36   C38   A    
O22   H25   S    
C44   C52   A    
C15   C19   A    
O12   C64   A    
C9    C69   S    
C62   O17   A    
C38   C40   A    
C55   H21   S    
C47   C49   A    
O20   V3    S    
C40   C42   A    
C19   C21   A    
C52   C63   S    
C7    C29   A    
C14   H6    S    
C8    C30   A    
C17   C25   A    
C20   C28   A    
C20   C22   A    
C53   H19   S    
O5    V1    S    
C68   O27   D    
O17   V3    S    
O6    V2    S    
C26   C72   S    
C70   O32   S    
C1    C46   S    
C36   H14   S    
O14   C62   A    
C12   C14   A    
C33   C43   A    
C39   H17   S    
C34   H12   S    
H10   C58   S    
C55   C57   A    
C32   C61   S    
C41   C45   A    
C37   C39   A    
C60   H24   S    
C16   C20   A    
O32   H30   S    
C58   C60   A    
O19   V4    S    
C49   C51   A    
O11   V4    S    
C51   C64   S    
C4    C7    S    
C65   O22   S    
C45   C47   A    
C72   O36   S    
C42   C44   A    
O4    V2    S    
C11   H7    S    
C12   H8    S    
O6    C4    A    
O13   V3    S    
C39   C41   A    
C27   H3    S    
O1    V2    S    
C28   H4    S    
O2    V1    S    
C53   C55   A    
C67   O25   D    
C54   H20   S    
C23   C67   S    
C50   C52   A    
C2    C45   S    
O13   C61   A    
O14   V4    S    
C33   C35   A    
C48   C54   A    
C70   O31   D    
C7    C27   A    
O4    C2    A    
C33   H11   S    
O28   H28   S    
O16   C64   A    
C24   C68   S    
O3    V1    S    
O34   H31   S    
O16   V4    S    
C69   O29   D    
C61   O18   A    
O12   V3    S    
H9    C57   S    
C18   C32   A    
C54   C56   A    
O3    C1    A    
O15   C63   A    
O24   H26   S    
C11   C13   A    
C71   O33   D    
C3    C8    S    
C57   C59   A    
C19   C27   A    
C14   C16   A    
O7    V1    S    
C10   C32   A    
C1    O8    A    
C15   C17   A    
O8    V2    S    
C66   O23   D    
C29   C65   S    
C16   C18   A    
C8    C28   A    
C30   C66   S    
C56   H22   S    
C34   C44   A    
C40   H18   S    
C22   C24   A    
C5    H1    S    
C34   C36   A    
C47   C53   A    
C6    H2    S    
C18   C26   A    
O30   H29   S    
C37   H15   S    
C67   O26   S    
C31   C62   S    
O11   C63   A    
C13   H5    S    
C9    C11   A    
C23   C25   A    
C17   C31   A    
O9    V2    S    
C5    C29   A    
C68   O28   S    
C46   C48   A    
O10   V1    S    
C48   C50   A    
C5    C21   A    
C49   C59   A    
C72   O35   D    
C6    C22   A    
C35   H13   S    
C50   C60   A    
O36   H32   S    
C69   O30   S    
