data_mof_unit_23157.cif
_audit_creation_date              2012-12-11T14:29:28-0500
_audit_creation_method            fapswitch 2.2
_symmetry_space_group_name_H-M    P1
_symmetry_Int_Tables_number       1
_space_group_crystal_system       triclinic
_cell_length_a                    6.93763
_cell_length_b                    14.754886
_cell_length_c                    16.21568
_cell_angle_alpha                 90.395892
_cell_angle_beta                  90.316971
_cell_angle_gamma                 89.815826
_cell_volume                      1659.82749346

loop_
_atom_site_label
_atom_site_type_symbol
_atom_type_description
_atom_site_fract_x
_atom_site_fract_y
_atom_site_fract_z
_atom_type_partial_charge
O1    O     O_R   0.494400 0.416610 0.413880 -0.548540
O2    O     O_R   0.823920 0.406790 0.585520 -0.485105
O3    O     O_R   0.994250 0.583390 0.586120 -0.519204
C1    C     C_R   0.656406 0.387167 0.615514 0.825305
O4    O     O_R   0.824110 0.405730 0.414490 -0.546907
O5    O     O_R   0.994440 0.582310 0.413870 -0.551535
C2    C     C_R   0.654716 0.383594 0.386396 0.720787
O6    O     O_R   0.494210 0.417690 0.586130 -0.532123
O7    O     O_3   0.660810 0.557940 0.500000 -0.388711
V1    V     V_3+5 0.935650 0.489250 0.500000 1.561087
O8    O     O_R   0.324160 0.593210 0.414480 -0.551125
C3    C     C_R   0.155031 0.615014 0.386396 0.705767
O9    O     O_R   0.323970 0.594270 0.585510 -0.553298
C4    C     C_R   0.155561 0.615517 0.614398 0.741968
V2    V     V_3+5 0.435660 0.510750 0.500000 1.472322
O10   O     O_3   0.160630 0.442060 0.500000 -0.349774
H1    H     H_    0.837224 0.890358 0.516449 0.175827
C5    C     C_R   0.324957 0.581155 0.775392 -0.051988
C6    C     C_R   0.404274 0.561694 0.852351 -0.077163
C7    C     C_R   0.387342 0.623594 0.916805 -0.112155
C8    C     C_R   0.292515 0.705811 0.904604 -0.138402
C9    C     C_R   0.214273 0.728623 0.826569 0.065056
C10   C     C_R   0.229287 0.664501 0.760691 0.068297
C11   C     C_R   0.119602 0.812968 0.814020 -0.144133
C12   C     C_R   0.040822 0.833100 0.735090 0.005357
C13   C     C_R   0.053885 0.768434 0.669620 0.071920
C14   C     C_R   0.146445 0.683798 0.682481 -0.152669
C15   C     C_R   0.953627 0.918170 0.718972 -0.211790
C16   C     C_R   0.880295 0.938851 0.640781 0.531798
C17   C     C_R   0.892433 0.875107 0.577364 -0.190776
C18   C     C_R   0.978691 0.791355 0.591182 -0.226060
H2    H     H_    0.338773 0.529660 0.728054 0.144470
H3    H     H_    0.477819 0.497818 0.862202 0.123511
H4    H     H_    0.447186 0.607661 0.976794 0.118580
H5    H     H_    0.280529 0.750701 0.957317 0.107123
H6    H     H_    0.944023 0.970010 0.766271 0.149135
H7    H     H_    0.988427 0.745674 0.538944 0.129587
C19   C     C_2   0.984732 0.710011 0.282660 -0.130561
C20   C     C_2   0.149512 0.682848 0.319636 -0.296661
H8    H     H_    0.848650 0.682072 0.303166 0.134007
H9    H     H_    0.287108 0.710294 0.301232 0.130132
C21   C     C_2   0.973200 0.777575 0.214672 -0.123565
C22   C     C_2   0.126860 0.814473 0.177158 -0.302328
H10   H     H_    0.829297 0.796928 0.194637 0.135140
H11   H     H_    0.271989 0.795792 0.195230 0.128102
C23   C     C_2   0.775731 0.225893 0.798016 -0.101027
C24   C     C_2   0.611354 0.186734 0.822747 -0.306350
H12   H     H_    0.911225 0.202799 0.824501 0.183000
H13   H     H_    0.473233 0.211793 0.800803 0.153444
C25   C     C_2   0.785171 0.303430 0.739658 0.492590
C26   C     C_2   0.647300 0.317602 0.681006 -0.368959
H14   H     H_    0.521647 0.274136 0.678695 0.163660
C27   C     C_2   0.779347 0.208670 0.214440 -0.116701
C28   C     C_2   0.614278 0.181763 0.177443 -0.297034
H15   H     H_    0.915272 0.179847 0.193927 0.138854
H16   H     H_    0.476700 0.209905 0.195848 0.128224
C29   C     C_2   0.791543 0.277141 0.282386 -0.120677
C30   C     C_2   0.638032 0.315254 0.319700 -0.293238
H17   H     H_    0.935517 0.296159 0.302495 0.136778
H18   H     H_    0.492887 0.296855 0.301566 0.130697
O11   O     O_R   0.770210 0.079270 0.910680 -0.542888
O12   O     O_R   0.440150 0.091160 0.082270 -0.547266
O13   O     O_R   0.269970 0.914530 0.082860 -0.547053
C31   C     C_R   0.608952 0.113223 0.110525 0.736329
O14   O     O_R   0.440480 0.090100 0.911240 -0.537628
O15   O     O_R   0.270310 0.913460 0.910610 -0.533682
C32   C     C_R   0.608479 0.113530 0.884565 0.801089
O16   O     O_R   0.769870 0.080340 0.082930 -0.541509
O17   O     O_3   0.603660 0.938980 0.996790 -0.375011
V3    V     V_3+5 0.328750 0.007610 0.996740 1.449456
O18   O     O_R   0.940600 0.902510 0.911180 -0.540522
C33   C     C_R   0.109276 0.881077 0.882385 0.698350
O19   O     O_R   0.940270 0.903570 0.082200 -0.542061
C34   C     C_R   0.109930 0.881882 0.110361 0.731450
V4    V     V_3+5 0.828770 0.986010 0.996670 1.444277
O20   O     O_3   0.103730 0.054750 0.996710 -0.372439
S1    S     S_3+6 0.987959 0.375357 0.751721 -0.032450
O21   O     O_2   0.130737 0.354824 0.684678 -0.342669
O22   O     O_2   0.925961 0.472849 0.746500 -0.361374
O23   O     O_3   0.092822 0.357585 0.844081 -0.525285
H19   H     H_    0.231626 0.369726 0.835701 0.339548
S2    S     S_3+6 0.777120 0.045903 0.622165 -0.018128
O24   O     O_2   0.598662 0.056068 0.673503 -0.347224
O25   O     O_2   0.919798 0.117880 0.646292 -0.334237
O26   O     O_3   0.718926 0.057134 0.521915 -0.506984
H20   H     H_    0.667689 0.119638 0.517082 0.363945

loop_
_geom_bond_atom_site_label_1
_geom_bond_atom_site_label_2
_ccdc_geom_bond_type
O18   V4    S    
O19   C34   A    
C6    C7    A    
C1    O6    A    
C24   H13   S    
C27   C28   D    
O11   V4    S    
O16   V4    S    
C13   C14   A    
C31   O16   A    
C15   C16   A    
C19   C21   S    
O5    C3    A    
C17   C18   A    
C29   H17   S    
C30   H18   S    
O14   V3    S    
O12   V3    S    
C5    C6    A    
O12   C31   A    
O8    V2    S    
O15   C33   A    
O14   C32   A    
O1    V2    S    
C10   C14   A    
C4    C14   S    
O7    V1    S    
C2    C30   S    
C7    H4    S    
C22   C34   S    
S1    O22   D    
C13   C18   A    
C8    C9    A    
H1    C17   S    
O19   V4    S    
C21   H10   S    
C24   C32   S    
C23   H12   S    
C27   H15   S    
C19   C20   D    
C28   H16   S    
C1    C26   S    
C5    C10   A    
C11   C12   A    
C20   H9    S    
C6    H3    S    
O4    C2    A    
C27   C29   S    
C12   C13   A    
S1    O21   D    
C26   H14   S    
C12   C15   A    
O2    C1    A    
V4    O20   S    
C16   C17   A    
O11   C32   A    
O13   V3    S    
C25   C26   D    
C22   H11   S    
O26   H20   S    
O3    C4    A    
O6    V2    S    
S2    O25   D    
O9    V2    S    
V3    O20   S    
C9    C11   A    
C5    H2    S    
C21   C22   D    
O2    V1    S    
C25   S1    S    
C11   C33   S    
S1    O23   S    
C23   C24   D    
O1    C2    A    
O23   H19   S    
O5    V1    S    
O8    C3    A    
C8    H5    S    
O13   C34   A    
S2    O26   S    
C23   C25   S    
C3    C20   S    
O7    V2    S    
O4    V1    S    
O3    V1    S    
V1    O10   S    
C19   H8    S    
C29   C30   D    
O15   V3    S    
C28   C31   S    
O17   V4    S    
O17   V3    S    
C16   S2    S    
C18   H7    S    
O18   C33   A    
C7    C8    A    
C15   H6    S    
S2    O24   D    
C9    C10   A    
O9    C4    A    
V2    O10   S    
