data_mof_unit_51058.cif
_audit_creation_date              2012-12-10T16:49:28-0500
_audit_creation_method            fapswitch 2.2
_symmetry_space_group_name_H-M    P1
_symmetry_Int_Tables_number       1
_space_group_crystal_system       triclinic
_cell_length_a                    19.320049
_cell_length_b                    8.724928
_cell_length_c                    7.463268
_cell_angle_alpha                 102.303563
_cell_angle_beta                  94.259913
_cell_angle_gamma                 93.205703
_cell_volume                      1222.43515609

loop_
_atom_site_label
_atom_site_type_symbol
_atom_type_description
_atom_site_fract_x
_atom_site_fract_y
_atom_site_fract_z
_atom_type_partial_charge
C1    C     C_R   0.499966 0.201075 0.454941 0.753196
C2    C     C_R   0.500691 0.799142 0.545005 0.809584
C3    C     C_2   0.510951 0.037653 0.435365 0.188932
C4    C     C_2   0.490392 0.962715 0.564448 0.184613
C5    C     C_R   0.367538 0.497069 0.502410 0.831028
C6    C     C_R   0.632304 0.496744 0.497119 0.838925
C7    C     C_R   0.262522 0.581388 0.661904 0.404426
C8    C     C_R   0.744192 0.568375 0.378272 0.423259
C9    C     C_R   0.190075 0.582370 0.666194 0.281586
C10   C     C_R   0.817140 0.577070 0.388638 0.288321
C11   C     C_R   0.146021 0.490206 0.517642 -0.288369
C12   C     C_R   0.854222 0.493391 0.502492 -0.289544
C13   C     C_R   0.174853 0.397819 0.366797 0.471134
C14   C     C_R   0.817961 0.405595 0.608960 0.482517
C15   C     C_R   0.247017 0.391635 0.365982 0.244703
C16   C     C_R   0.745253 0.398446 0.599930 0.242607
C17   C     C_R   0.291403 0.489895 0.509473 -0.384235
C18   C     C_R   0.708031 0.486553 0.490774 -0.392319
C19   C     C_R   0.930138 0.493112 0.508068 0.412545
C20   C     C_R   0.070059 0.491504 0.515476 0.425578
Cu1   Cu    Cu3+1 0.507710 0.517380 0.684380 1.061453
Cu2   Cu    Cu3+1 0.492290 0.482620 0.315620 1.054516
N1    N     N_R   0.039374 0.629525 0.552325 -0.202851
N2    N     N_R   0.960764 0.355146 0.471295 -0.172027
N3    N     N_R   0.970512 0.630321 0.549400 -0.204305
N4    N     N_R   0.029625 0.354383 0.474812 -0.164649
N5    N     N_2   0.480680 0.456420 0.038530 0.132455
N6    N     N_2   0.519320 0.543580 0.961470 0.129363
O1    O     O_R   0.505010 0.286130 0.619770 -0.525889
O2    O     O_R   0.494990 0.713870 0.380230 -0.519658
O3    O     O_R   0.491990 0.256780 0.308370 -0.581577
O4    O     O_R   0.508010 0.743220 0.691630 -0.573736
O5    O     O_R   0.406650 0.514660 0.655750 -0.512344
O6    O     O_R   0.593350 0.485340 0.344250 -0.529794
O7    O     O_R   0.393640 0.485310 0.344340 -0.623117
O8    O     O_R   0.606360 0.514690 0.655660 -0.621088
O9    O     O_3   0.305654 0.678214 0.802455 -0.558654
C21   C     C_3   0.308632 0.611771 0.959611 -0.106057
H1    H     H_    0.356272 0.663058 0.049395 0.188507
H2    H     H_    0.263475 0.642031 0.040495 0.172644
H3    H     H_    0.311689 0.481715 0.925143 0.156417
O10   O     O_3   0.708391 0.646916 0.262262 -0.546269
C22   C     C_3   0.706694 0.557980 0.079566 -0.083325
H4    H     H_    0.757298 0.511067 0.043108 0.161594
H5    H     H_    0.666215 0.458501 0.055363 0.186097
H6    H     H_    0.693669 0.635056 0.983481 0.168894
O11   O     O_3   0.164753 0.676095 0.817040 -0.681615
H7    H     H_    0.118240 0.631481 0.835013 0.324072
O12   O     O_3   0.849395 0.667813 0.283402 -0.682524
H8    H     H_    0.896599 0.634078 0.261964 0.328617
O13   O     O_3   0.131969 0.304762 0.223214 -0.507152
C23   C     C_3   0.122587 0.388265 0.081907 -0.208062
H9    H     H_    0.172408 0.408581 0.021882 0.172715
H10   H     H_    0.099421 0.502019 0.131567 0.134242
H11   H     H_    0.085859 0.316730 0.970019 0.194634
O14   O     O_3   0.852680 0.318102 0.717041 -0.507781
C24   C     C_3   0.887084 0.418735 0.876585 -0.222213
H12   H     H_    0.866915 0.537869 0.911509 0.144911
H13   H     H_    0.943624 0.431913 0.860587 0.167396
H14   H     H_    0.880852 0.363151 0.995576 0.190540
O15   O     O_3   0.271722 0.286212 0.223826 -0.691178
H15   H     H_    0.315807 0.249421 0.269749 0.323935
O16   O     O_3   0.712949 0.302110 0.698541 -0.699902
H16   H     H_    0.664415 0.272667 0.645305 0.316479
O17   O     O_3   0.543278 0.961516 0.284714 -0.544383
C25   C     C_3   0.614435 0.014790 0.307995 -0.185231
H17   H     H_    0.640090 0.993649 0.438282 0.158520
H18   H     H_    0.621726 0.141150 0.303291 0.127927
H19   H     H_    0.641134 0.947914 0.193084 0.210103
O18   O     O_3   0.457269 0.037217 0.714225 -0.545211
C26   C     C_3   0.384722 0.006300 0.671289 -0.171886
H20   H     H_    0.369420 0.877970 0.629710 0.159871
H21   H     H_    0.366087 0.066151 0.561117 0.118552
H22   H     H_    0.357996 0.053448 0.795628 0.211456
O19   O     O_3   0.436169 0.350043 0.925066 -0.581319
H23   H     H_    0.411230 0.295440 0.007364 0.340413
O20   O     O_3   0.559151 0.658938 0.075487 -0.550934
H24   H     H_    0.580129 0.720335 0.993497 0.339922

loop_
_geom_bond_atom_site_label_1
_geom_bond_atom_site_label_2
_ccdc_geom_bond_type
C25   H18   S    
C14   O14   S    
O19   H23   S    
C4    O18   S    
Cu1   O8    S    
O20   H24   S    
Cu2   O7    S    
C2    O4    A    
N2    N4    A    
C21   H1    S    
C24   H13   S    
C25   H19   S    
C5    C17   S    
C1    O3    A    
O14   C24   S    
C7    C9    A    
O12   H8    S    
C13   O13   S    
C7    C17   A    
C5    O5    A    
O18   C26   S    
C16   O16   S    
C23   H11   S    
C25   H17   S    
Cu1   Cu2   S    
C3    O17   S    
N5    O19   S    
C23   H10   S    
C15   O15   S    
Cu2   O6    S    
Cu1   O4    S    
C6    C18   S    
Cu2   O3    S    
O13   C23   S    
C21   H3    S    
C26   H21   S    
C24   H14   S    
Cu1   O1    S    
C11   C20   S    
C8    C18   A    
C6    O6    A    
C1    C3    S    
C2    C4    S    
C22   H4    S    
O9    C21   S    
C9    C11   A    
O11   H7    S    
C20   N1    A    
C1    O1    A    
C7    O9    S    
N6    O20   S    
C22   H5    S    
C10   C12   A    
C8    C10   A    
Cu1   N6    S    
C12   C14   A    
C9    O11   S    
Cu2   N5    S    
C13   C15   A    
C14   C16   A    
O10   C22   S    
C3    C4    D    
C23   H9    S    
C15   C17   A    
Cu2   O2    S    
C8    O10   S    
C26   H22   S    
C2    O2    A    
C19   N2    A    
C26   H20   S    
C21   H2    S    
C11   C13   A    
C24   H12   S    
C20   N4    A    
C5    O7    A    
C12   C19   S    
C6    O8    A    
N1    N3    A    
O15   H15   S    
C19   N3    A    
C22   H6    S    
O16   H16   S    
Cu1   O5    S    
C16   C18   A    
O17   C25   S    
N5    N6    D    
C10   O12   S    
