data_mof_unit_57540.cif
_audit_creation_date              2012-10-26T21:24:49-0400
_audit_creation_method            fapswitch 2.2
_symmetry_space_group_name_H-M    P1
_symmetry_Int_Tables_number       1
_space_group_crystal_system       triclinic
_cell_length_a                    9.563221
_cell_length_b                    10.823941
_cell_length_c                    15.56388
_cell_angle_alpha                 89.607289
_cell_angle_beta                  74.069499
_cell_angle_gamma                 90.204868
_cell_volume                      1549.11134439

loop_
_atom_site_label
_atom_site_type_symbol
_atom_type_description
_atom_site_fract_x
_atom_site_fract_y
_atom_site_fract_z
_atom_type_partial_charge
C1    C     C_R   0.999261 0.262354 0.501175 0.556988
C2    C     C_R   0.227815 0.437959 0.047547 0.048356
C3    C     C_R   0.326090 0.483970 0.093365 0.035582
C4    C     C_R   0.917917 0.500451 0.671932 0.555411
C5    C     C_R   0.081164 0.417418 0.093248 -0.143779
C6    C     C_R   0.031109 0.440383 0.184468 -0.141891
C7    C     C_R   0.270037 0.514545 0.183854 -0.133309
C8    C     C_R   0.118133 0.063870 0.514453 0.021773
C9    C     C_R   0.995039 0.129072 0.509058 0.011228
C10   C     C_R   0.865276 0.063609 0.515504 -0.145221
C11   C     C_R   0.865328 0.934939 0.515836 -0.159347
C12   C     C_R   0.673637 0.492754 0.907813 0.032885
C13   C     C_R   0.995378 0.870640 0.509194 0.006638
C14   C     C_R   0.118352 0.936675 0.514397 0.027471
C15   C     C_3   0.271407 0.931269 0.456657 -0.269437
C16   C     C_R   0.999545 0.737596 0.501181 0.547691
C17   C     C_3   0.271304 0.071586 0.456835 -0.267766
C18   C     C_R   0.595185 0.588194 0.453339 0.145436
C19   C     C_R   0.548732 0.421441 0.553829 0.075325
C20   C     C_R   0.400405 0.421583 0.553353 -0.024846
C21   C     C_R   0.447969 0.587810 0.453065 0.156880
C22   C     C_3   0.488210 0.607829 0.354577 -0.283813
C23   C     C_R   0.775111 0.522761 0.956034 0.050656
C24   C     C_3   0.646191 0.611092 0.355278 -0.278625
C25   C     C_R   0.081813 0.498912 0.328056 0.540946
C26   C     C_R   0.872084 0.503417 0.769922 0.002374
C27   C     C_R   0.126313 0.487492 0.230404 -0.001646
C28   C     C_R   0.923064 0.538386 0.911513 -0.140813
C29   C     C_R   0.971611 0.527352 0.819053 -0.138720
C30   C     C_R   0.724816 0.486458 0.814330 -0.121294
C31   C     C_1   0.591779 0.335216 0.612387 0.211443
C32   C     C_R   0.524313 0.473559 0.954248 0.033005
C33   C     C_R   0.476638 0.496570 0.047677 0.034952
C34   C     C_R   0.581802 0.526584 0.092997 -0.138510
C35   C     C_R   0.728028 0.538042 0.048055 -0.138195
C36   C     C_R   0.421972 0.429117 0.910907 -0.136030
C37   C     C_R   0.277042 0.411052 0.957027 -0.138684
Cu1   Cu    Cu3+1 0.140670 0.499980 0.500000 0.938174
Cu2   Cu    Cu3+1 0.859330 0.500020 0.500000 0.956588
H1    H     H_    0.804643 0.560449 0.085717 0.108816
H2    H     H_    0.462559 0.525298 0.319814 0.145674
H3    H     H_    0.335448 0.560704 0.219841 0.104531
H4    H     H_    0.448429 0.697478 0.335537 0.117345
H5    H     H_    0.709885 0.533202 0.318098 0.146594
H6    H     H_    0.697509 0.703745 0.339035 0.125890
H7    H     H_    0.919254 0.418519 0.219253 0.119422
H8    H     H_    0.202974 0.375070 0.921471 0.112239
H9    H     H_    0.000982 0.560992 0.948132 0.114523
H10   H     H_    0.086013 0.541115 0.785937 0.131219
H11   H     H_    0.651173 0.472653 0.774043 0.135858
H12   H     H_    0.006108 0.380265 0.058898 0.112377
H13   H     H_    0.555790 0.538095 0.164079 0.097305
H14   H     H_    0.450978 0.402535 0.841746 0.117914
H15   H     H_    0.765666 0.111019 0.515782 0.151275
H16   H     H_    0.765522 0.886599 0.516772 0.137548
H17   H     H_    0.346365 0.890571 0.492456 0.141514
H18   H     H_    0.279467 0.891359 0.389807 0.131850
H19   H     H_    0.346017 0.111855 0.492900 0.138904
H20   H     H_    0.279617 0.113245 0.390060 0.142081
H21   H     H_    0.324262 0.356918 0.595123 0.118878
N1    N     N_R   0.648210 0.500930 0.499430 -0.243902
N2    N     N_R   0.352300 0.500890 0.499430 -0.239869
N3    N     N_1   0.624961 0.265679 0.660019 -0.331481
O1    O     O_R   0.118810 0.319640 0.500000 -0.505068
O2    O     O_R   0.881230 0.319680 0.499990 -0.496216
O3    O     O_R   0.055580 0.499970 0.629840 -0.507057
O4    O     O_R   0.818000 0.500010 0.629830 -0.495304
O5    O     O_R   0.118770 0.680320 0.500010 -0.496092
O6    O     O_R   0.881190 0.680360 0.500000 -0.507340
O7    O     O_R   0.182000 0.499990 0.370170 -0.507490
O8    O     O_R   0.944420 0.500030 0.370160 -0.509816

loop_
_geom_bond_atom_site_label_1
_geom_bond_atom_site_label_2
_ccdc_geom_bond_type
C8    C9    A    
C4    O4    A    
C4    C26   S    
Cu1   O7    S    
C18   N1    A    
C23   C28   A    
C25   O8    A    
C25   C27   S    
C18   C21   A    
Cu2   O2    S    
C9    C10   A    
C19   N1    A    
C3    C7    A    
C6    C27   A    
C12   C23   A    
C17   H19   S    
C16   O5    A    
C19   C31   S    
C15   H17   S    
C25   O7    A    
C13   C16   S    
C2    C3    A    
C30   H11   S    
C1    C9    S    
C29   H10   S    
C13   C14   A    
C12   C32   A    
C8    C17   S    
C4    O3    A    
C15   H18   S    
C2    C37   A    
C21   N2    A    
C5    C6    A    
C17   H20   S    
C18   C24   S    
C24   H6    S    
C32   C36   A    
C28   C29   A    
C33   C34   A    
Cu1   O5    S    
C26   C30   A    
C23   C35   A    
Cu2   O6    S    
Cu1   Cu2   S    
C24   H5    S    
C22   C24   S    
C11   H16   S    
C2    C5    A    
C37   H8    S    
C10   C11   A    
C3    C33   A    
C10   H15   S    
C35   H1    S    
C22   H2    S    
C1    O1    A    
C31   N3    T    
C11   C13   A    
Cu2   N1    S    
C7    C27   A    
C26   C29   A    
C34   C35   A    
C7    H3    S    
C5    H12   S    
C34   H13   S    
C15   C17   S    
Cu1   O1    S    
Cu1   O3    S    
C14   C15   S    
C36   C37   A    
C8    C14   A    
C36   H14   S    
C6    H7    S    
C12   C30   A    
C20   H21   S    
C21   C22   S    
Cu2   O4    S    
C1    O2    A    
C22   H4    S    
C28   H9    S    
C16   O6    A    
C19   C20   A    
C32   C33   A    
C20   N2    A    
Cu1   N2    S    
Cu2   O8    S    
