data_mof_unit_21199.cif
_audit_creation_date              2012-12-11T17:09:39-0500
_audit_creation_method            fapswitch 2.2
_symmetry_space_group_name_H-M    P1
_symmetry_Int_Tables_number       1
_space_group_crystal_system       triclinic
_cell_length_a                    14.82534
_cell_length_b                    6.962622
_cell_length_c                    13.474644
_cell_angle_alpha                 90.000242
_cell_angle_beta                  99.866027
_cell_angle_gamma                 89.999712
_cell_volume                      1370.32655834

loop_
_atom_site_label
_atom_site_type_symbol
_atom_type_description
_atom_site_fract_x
_atom_site_fract_y
_atom_site_fract_z
_atom_type_partial_charge
O1    O     O_R   0.586930 0.505770 0.416350 -0.537008
O2    O     O_R   0.413070 0.005770 0.583650 -0.537027
O3    O     O_R   0.397900 0.173100 0.389630 -0.535186
O4    O     O_R   0.602100 0.673100 0.610370 -0.535191
C1    C     C_R   0.364394 0.345370 0.362880 0.716770
C2    C     C_R   0.635606 0.845370 0.637120 0.716787
O5    O     O_R   0.585280 0.175870 0.404330 -0.546471
O6    O     O_R   0.414720 0.675870 0.595670 -0.546471
O7    O     O_R   0.601790 0.008380 0.598460 -0.535006
O8    O     O_R   0.398210 0.508380 0.401540 -0.534999
C3    C     C_R   0.614952 0.344869 0.383305 0.698796
C4    C     C_R   0.385050 0.844871 0.616697 0.698804
O9    O     O_3   0.505200 0.340120 0.563670 -0.372253
O10   O     O_3   0.494800 0.840120 0.436330 -0.372248
V1    V     V_3+5 0.499040 0.064180 0.488190 1.392266
V2    V     V_3+5 0.500960 0.564180 0.511810 1.392254
C5    C     C_R   0.312179 0.014151 0.747920 0.010973
C6    C     C_R   0.687807 0.514120 0.252064 0.010746
C7    C     C_R   0.318170 0.854196 0.686786 -0.093702
C8    C     C_R   0.681834 0.354191 0.313219 -0.093612
C9    C     C_R   0.255146 0.705511 0.691207 -0.163957
C10   C     C_R   0.744882 0.205539 0.308823 -0.163875
C11   C     C_R   0.189253 0.716362 0.754904 -0.127947
C12   C     C_R   0.810769 0.216389 0.245120 -0.128210
H1    H     H_    0.139098 0.602906 0.752173 0.125898
H2    H     H_    0.860935 0.102949 0.247861 0.125858
C13   C     C_R   0.184178 0.877977 0.816407 -0.142494
C14   C     C_R   0.815829 0.377986 0.183601 -0.142503
C15   C     C_R   0.248798 0.023663 0.813945 0.034227
C16   C     C_R   0.751193 0.523649 0.186044 0.034405
C17   C     C_3   0.232247 0.233506 0.794689 0.114098
C18   C     C_3   0.767718 0.733509 0.205299 0.114170
C19   C     C_3   0.297971 0.220975 0.718901 0.125107
C20   C     C_3   0.701975 0.720963 0.281056 0.125084
H3    H     H_    0.160215 0.267465 0.761254 0.102189
H4    H     H_    0.839738 0.767513 0.238754 0.102174
C21   C     C_1   0.783444 0.877148 0.782952 -0.189658
C22   C     C_1   0.216556 0.377148 0.217049 -0.189617
C23   C     C_1   0.716126 0.860048 0.716838 -0.184884
C24   C     C_1   0.283873 0.360048 0.283162 -0.184870
O11   O     O_R   0.101720 0.231700 0.098560 -0.534145
O12   O     O_R   0.898280 0.731700 0.901440 -0.534148
O13   O     O_R   0.914700 0.558980 0.095690 -0.545119
O14   O     O_R   0.085300 0.058980 0.904310 -0.545159
C25   C     C_R   0.885690 0.389898 0.117377 0.698996
C26   C     C_R   0.114311 0.889896 0.882625 0.699011
O15   O     O_R   0.102080 0.561590 0.110390 -0.536716
O16   O     O_R   0.897920 0.061590 0.889610 -0.536720
O17   O     O_R   0.086950 0.728940 0.916330 -0.540821
O18   O     O_R   0.913050 0.228940 0.083670 -0.540860
C27   C     C_R   0.136029 0.391962 0.137343 0.728842
C28   C     C_R   0.863970 0.891962 0.862657 0.728881
O19   O     O_3   0.994770 0.394510 0.936380 -0.372616
O20   O     O_3   0.005230 0.894510 0.063620 -0.372605
V3    V     V_3+5 0.000970 0.670520 0.011800 1.394957
V4    V     V_3+5 0.999030 0.170520 0.988200 1.394898
H5    H     H_    0.252410 0.588820 0.639173 0.158007
H6    H     H_    0.747644 0.088888 0.360884 0.158002
N1    N     N_2   0.265121 0.354349 0.882124 -0.511488
H7    H     H_    0.213309 0.397430 0.919329 0.267260
C29   C     C_3   0.347668 0.301409 0.951090 -0.544258
H8    H     H_    0.367452 0.420516 0.005302 0.193173
H9    H     H_    0.405433 0.275331 0.910264 0.190531
H10   H     H_    0.335249 0.170930 0.994287 0.190293
N2    N     N_2   0.734826 0.854381 0.117884 -0.511478
H11   H     H_    0.786666 0.897900 0.080800 0.267203
C30   C     C_3   0.652407 0.801110 0.048781 -0.544238
H12   H     H_    0.632322 0.920587 0.994914 0.193321
H13   H     H_    0.594693 0.773708 0.089510 0.190448
H14   H     H_    0.665205 0.671310 0.005239 0.190248
H15   H     H_    0.361094 0.308810 0.738892 0.113150
H16   H     H_    0.638841 0.808754 0.261014 0.113284
N3    N     N_2   0.254025 0.250682 0.614097 -0.537321
H17   H     H_    0.298392 0.287608 0.566098 0.267728
C31   C     C_3   0.176146 0.137478 0.566581 -0.544810
H18   H     H_    0.134270 0.225021 0.506976 0.187402
H19   H     H_    0.131748 0.092300 0.620588 0.193406
H20   H     H_    0.199994 0.008466 0.530244 0.191816
N4    N     N_2   0.745887 0.750762 0.385860 -0.537374
H21   H     H_    0.701520 0.787776 0.433816 0.267812
C32   C     C_3   0.823742 0.637584 0.433436 -0.544933
H22   H     H_    0.865639 0.725191 0.493012 0.187389
H23   H     H_    0.868134 0.592244 0.379454 0.193476
H24   H     H_    0.799856 0.508691 0.469819 0.191857

loop_
_geom_bond_atom_site_label_1
_geom_bond_atom_site_label_2
_ccdc_geom_bond_type
C22   C24   T    
C13   C15   A    
C5    C15   A    
N3    H17   S    
O19   V3    S    
O1    C3    A    
O2    C4    A    
C2    O7    A    
C32   H22   S    
O5    C3    A    
C26   O17   A    
C18   H4    S    
C10   C12   A    
C7    C9    A    
C12   H2    S    
C20   N4    S    
C17   N1    S    
C29   H9    S    
C17   H3    S    
N2    C30   S    
C17   C19   S    
C6    C16   A    
C11   C13   A    
O5    V1    S    
N1    H7    S    
O6    V2    S    
N3    C31   S    
C5    C19   S    
C32   H23   S    
O14   C26   A    
C6    C20   S    
C3    C8    S    
O20   V4    S    
C14   C25   S    
N1    C29   S    
C30   H12   S    
O4    C2    A    
N4    C32   S    
C21   C28   S    
O15   C27   A    
C22   C27   S    
O17   V3    S    
O18   V4    S    
C30   H13   S    
C18   C20   S    
O4    V2    S    
C29   H10   S    
C31   H18   S    
O11   V4    S    
C9    H5    S    
O12   V3    S    
C31   H19   S    
O14   V4    S    
O6    C4    A    
O1    V2    S    
O2    V1    S    
O13   C25   A    
C13   C26   S    
C19   N3    S    
C8    C10   A    
O9    V1    S    
O10   V2    S    
C1    C24   S    
C20   H16   S    
C32   H24   S    
O3    V1    S    
O15   V3    S    
O19   V4    S    
O13   V3    S    
O16   V4    S    
O20   V3    S    
C2    C23   S    
C12   C14   A    
O3    C1    A    
C10   H6    S    
C30   H14   S    
C9    C11   A    
O7    V1    S    
C1    O8    A    
C15   C17   S    
O8    V2    S    
C16   C18   S    
C25   O18   A    
C4    C7    S    
C14   C16   A    
C5    C7    A    
C6    C8    A    
C11   H1    S    
C29   H8    S    
C31   H20   S    
C19   H15   S    
N4    H21   S    
O16   C28   A    
C21   C23   T    
N2    H11   S    
O9    V2    S    
O10   V1    S    
O11   C27   A    
O12   C28   A    
C18   N2    S    
