data_mof_unit_68167.cif
_audit_creation_date              2012-12-11T16:28:32-0500
_audit_creation_method            fapswitch 2.2
_symmetry_space_group_name_H-M    P1
_symmetry_Int_Tables_number       1
_space_group_crystal_system       triclinic
_cell_length_a                    17.347176
_cell_length_b                    7.323786
_cell_length_c                    14.77794
_cell_angle_alpha                 89.957629
_cell_angle_beta                  94.658032
_cell_angle_gamma                 89.38963
_cell_volume                      1871.18330564

loop_
_atom_site_label
_atom_site_type_symbol
_atom_type_description
_atom_site_fract_x
_atom_site_fract_y
_atom_site_fract_z
_atom_type_partial_charge
O1    O     O_R   0.663460 0.361760 0.165970 -0.543554
O2    O     O_R   0.336540 0.638240 0.834030 -0.508814
O3    O     O_R   0.836540 0.861760 0.334030 -0.545946
O4    O     O_R   0.163460 0.138240 0.665970 -0.506145
O5    O     O_R   0.827100 0.689870 0.163730 -0.551037
O6    O     O_R   0.172900 0.310130 0.836270 -0.511496
O7    O     O_R   0.672900 0.189870 0.336270 -0.555656
O8    O     O_R   0.327100 0.810130 0.663730 -0.513444
C1    C     C_R   0.853377 0.522554 0.143757 0.706374
C2    C     C_R   0.146534 0.477255 0.856140 0.709685
C3    C     C_R   0.647557 0.023271 0.357593 0.701304
C4    C     C_R   0.354686 0.975815 0.645490 0.711848
O9    O     O_R   0.663490 0.691370 0.155500 -0.533906
O10   O     O_R   0.336510 0.308630 0.844500 -0.560997
O11   O     O_R   0.836510 0.191370 0.344500 -0.534278
O12   O     O_R   0.163490 0.808630 0.655500 -0.562242
O13   O     O_R   0.671770 0.863320 0.325740 -0.512733
O14   O     O_R   0.328230 0.136680 0.674260 -0.545215
O15   O     O_R   0.828230 0.363320 0.174260 -0.512011
O16   O     O_R   0.171770 0.636680 0.825740 -0.546441
C5    C     C_R   0.636700 0.526115 0.131795 0.749802
C6    C     C_R   0.363612 0.475207 0.866818 0.761173
C7    C     C_R   0.862097 0.025170 0.369184 0.747673
C8    C     C_R   0.135716 0.976678 0.633969 0.753227
O17   O     O_3   0.752910 0.528800 0.305860 -0.391275
O18   O     O_3   0.247090 0.471200 0.694140 -0.383721
O19   O     O_3   0.747090 0.028800 0.194140 -0.387759
O20   O     O_3   0.252910 0.971200 0.805860 -0.386812
V1    V     V_3+5 0.749460 0.803010 0.239640 1.385724
V2    V     V_3+5 0.250540 0.196990 0.760360 1.408132
V3    V     V_3+5 0.750540 0.303010 0.260360 1.381425
V4    V     V_3+5 0.249460 0.696990 0.739640 1.406482
C9    C     C_1   0.473185 0.990709 0.535955 -0.044028
C10   C     C_1   0.535066 0.003468 0.475043 -0.028880
C11   C     C_1   0.031725 0.494056 0.970717 -0.027562
C12   C     C_1   0.969707 0.503973 0.031531 -0.026033
C13   C     C_R   0.027245 0.042886 0.320990 0.288461
C14   C     C_R   0.982424 0.111707 0.688040 0.281142
C15   C     C_R   0.470925 0.539279 0.181295 0.288344
C16   C     C_R   0.518118 0.590647 0.811085 0.298537
C17   C     C_R   0.105835 0.060770 0.305432 -0.026074
C18   C     C_R   0.913365 0.198442 0.709863 0.009347
C19   C     C_R   0.392316 0.556042 0.197109 -0.026912
C20   C     C_R   0.588048 0.672796 0.789174 -0.010096
C21   C     C_R   0.161202 0.971109 0.364044 0.378687
C22   C     C_R   0.851439 0.217111 0.644050 0.373001
C23   C     C_R   0.337768 0.466250 0.138782 0.381521
C24   C     C_R   0.643265 0.717082 0.860041 0.370578
C25   C     C_R   0.137289 0.885884 0.442445 -0.043789
C26   C     C_R   0.868704 0.212788 0.553381 -0.046966
C27   C     C_R   0.361883 0.382860 0.059771 -0.042025
C28   C     C_R   0.621707 0.718181 0.949073 -0.018476
C29   C     C_R   0.068303 0.949237 0.475435 -0.082719
C30   C     C_R   0.928718 0.093500 0.528907 -0.101618
C31   C     C_R   0.430205 0.446480 0.026434 -0.087243
C32   C     C_R   0.567118 0.590923 0.972615 -0.099227
C33   C     C_R   0.007238 0.998191 0.409746 -0.031278
C34   C     C_R   0.991790 0.058539 0.596491 -0.036474
C35   C     C_R   0.490932 0.495981 0.092309 -0.030543
C36   C     C_R   0.506398 0.549545 0.904205 -0.031632
C37   C     C_R   0.063056 0.984279 0.569406 -0.114167
C38   C     C_R   0.932393 0.030263 0.437484 -0.108759
C39   C     C_R   0.435588 0.478965 0.931865 -0.113769
C40   C     C_R   0.565062 0.531014 0.064435 -0.113513
C41   C     C_1   0.419650 0.982410 0.586027 -0.204534
C42   C     C_1   0.586413 0.013866 0.422129 -0.207240
C43   C     C_1   0.084055 0.486655 0.918908 -0.220322
C44   C     C_1   0.916823 0.512581 0.082436 -0.198921
C45   C     C_3   0.165194 0.695012 0.467801 -0.270801
C46   C     C_3   0.143889 0.562188 0.390609 -0.808502
H1    H     H_    0.082144 0.579711 0.365227 0.227536
H2    H     H_    0.180513 0.584590 0.334066 0.256566
H3    H     H_    0.151989 0.420235 0.415566 0.203087
H4    H     H_    0.228018 0.692152 0.488129 0.170877
H5    H     H_    0.134715 0.642015 0.525153 0.204766
C47   C     C_3   0.851931 0.389841 0.500005 -0.215650
C48   C     C_3   0.872828 0.564242 0.553979 -0.780615
H6    H     H_    0.832185 0.591672 0.606456 0.248786
H7    H     H_    0.932747 0.553864 0.586583 0.219693
H8    H     H_    0.869529 0.683286 0.507243 0.211600
H9    H     H_    0.889572 0.398228 0.443101 0.201704
H10   H     H_    0.789993 0.395743 0.474270 0.188894
C49   C     C_3   0.334107 0.193902 0.033280 -0.275419
C50   C     C_3   0.356773 0.057463 0.109091 -0.807206
H11   H     H_    0.418924 0.070956 0.132845 0.229618
H12   H     H_    0.321406 0.079968 0.166945 0.253502
H13   H     H_    0.348021 0.916682 0.083375 0.203064
H14   H     H_    0.270992 0.193980 0.014533 0.171432
H15   H     H_    0.363820 0.141838 0.974937 0.203060
C51   C     C_3   0.625191 0.903388 0.996265 -0.243093
C52   C     C_3   0.573008 0.045088 0.944588 -0.789426
H16   H     H_    0.587858 0.060582 0.873717 0.232266
H17   H     H_    0.511482 0.003837 0.943802 0.230361
H18   H     H_    0.579585 0.179375 0.978795 0.222848
H19   H     H_    0.602140 0.899285 0.063630 0.206217
H20   H     H_    0.685799 0.952292 0.004007 0.190532
C53   C     C_3   0.129322 0.196194 0.235698 -0.250795
C54   C     C_3   0.149693 0.111391 0.146659 -0.719867
H21   H     H_    0.194930 0.005040 0.158858 0.244874
H22   H     H_    0.098437 0.056278 0.107568 0.208770
H23   H     H_    0.171269 0.218522 0.103109 0.241241
H24   H     H_    0.081463 0.295911 0.221140 0.193426
H25   H     H_    0.179674 0.274747 0.264871 0.219199
C55   C     C_3   0.913335 0.318222 0.792916 -0.264681
C56   C     C_3   0.873377 0.233423 0.870258 -0.764566
H26   H     H_    0.822548 0.154610 0.844008 0.259811
H27   H     H_    0.914685 0.145142 0.911393 0.221842
H28   H     H_    0.853624 0.340920 0.915851 0.208448
H29   H     H_    0.972887 0.353939 0.816675 0.201895
H30   H     H_    0.885062 0.450022 0.773003 0.189249
C57   C     C_3   0.367511 0.691650 0.266427 -0.246145
C58   C     C_3   0.348683 0.606636 0.355831 -0.727615
H31   H     H_    0.306189 0.496270 0.344057 0.245429
H32   H     H_    0.400941 0.556857 0.395958 0.208449
H33   H     H_    0.324319 0.712594 0.398261 0.242812
H34   H     H_    0.414053 0.792555 0.280150 0.195200
H35   H     H_    0.316147 0.769367 0.237302 0.218291
C59   C     C_3   0.596867 0.749125 0.694587 -0.300098
C60   C     C_3   0.660872 0.661579 0.643641 -0.747412
H36   H     H_    0.716469 0.655753 0.685824 0.268454
H37   H     H_    0.644386 0.523224 0.619954 0.233407
H38   H     H_    0.669525 0.744448 0.582378 0.202005
H39   H     H_    0.542540 0.741428 0.650773 0.211570
H40   H     H_    0.608665 0.895475 0.701056 0.191460
O21   O     O_3   0.785237 0.305711 0.667209 -0.560736
C61   C     C_3   0.722975 0.182765 0.662280 0.102619
H41   H     H_    0.740653 0.035458 0.665169 0.126985
H42   H     H_    0.687157 0.206436 0.597429 0.120415
C62   C     C_3   0.674219 0.220583 0.741637 -0.749228
H43   H     H_    0.675332 0.366286 0.760394 0.232559
H44   H     H_    0.613324 0.183802 0.723943 0.154886
H45   H     H_    0.696551 0.140994 0.801884 0.244541
O22   O     O_3   0.237575 0.971185 0.344790 -0.559953
C63   C     C_3   0.278888 0.083305 0.408945 0.097057
H46   H     H_    0.291086 0.007086 0.473243 0.110031
H47   H     H_    0.246967 0.211055 0.423465 0.100785
C64   C     C_3   0.354258 0.139493 0.372685 -0.748426
H48   H     H_    0.392687 0.020254 0.367452 0.227922
H49   H     H_    0.343415 0.204748 0.305276 0.234686
H50   H     H_    0.383747 0.237804 0.419904 0.185361
O23   O     O_3   0.711621 0.796806 0.841916 -0.556238
C65   C     C_3   0.771515 0.675518 0.873624 0.071429
H51   H     H_    0.769371 0.549254 0.832113 0.155125
H52   H     H_    0.769038 0.638787 0.946642 0.109715
C66   C     C_3   0.847534 0.766445 0.864581 -0.787634
H53   H     H_    0.852862 0.879112 0.913970 0.227760
H54   H     H_    0.896116 0.670164 0.881126 0.192831
H55   H     H_    0.849458 0.817736 0.794021 0.224788
O24   O     O_3   0.261356 0.468466 0.157649 -0.559208
C67   C     C_3   0.220517 0.586223 0.094728 0.095591
H56   H     H_    0.207661 0.512739 0.030123 0.112905
H57   H     H_    0.253057 0.711714 0.080498 0.098934
C68   C     C_3   0.145990 0.648182 0.132123 -0.750459
H58   H     H_    0.108367 0.531104 0.141611 0.228097
H59   H     H_    0.158209 0.718382 0.197842 0.234308
H60   H     H_    0.115088 0.743395 0.083461 0.185837
O25   O     O_3   0.972285 0.090651 0.252250 -0.551798
C69   C     C_3   0.967462 0.943644 0.190398 0.131229
H61   H     H_    0.935882 0.832276 0.219820 0.148216
H62   H     H_    0.024119 0.881797 0.177541 0.102384
C70   C     C_3   0.928754 0.006489 0.099705 -0.678891
H63   H     H_    0.960203 0.124491 0.074344 0.213807
H64   H     H_    0.930573 0.894334 0.049728 0.164831
H65   H     H_    0.867784 0.046333 0.106276 0.246176
O26   O     O_3   0.042524 0.097236 0.755300 -0.543727
C71   C     C_3   0.030181 0.946325 0.811431 0.108421
H66   H     H_    0.050877 0.819296 0.780146 0.129672
H67   H     H_    0.968784 0.928767 0.822374 0.117366
C72   C     C_3   0.072501 0.974513 0.904479 -0.675816
H68   H     H_    0.056237 0.108298 0.932661 0.215159
H69   H     H_    0.055718 0.866960 0.951357 0.163725
H70   H     H_    0.135917 0.968927 0.900470 0.239965
O27   O     O_3   0.525532 0.589858 0.249477 -0.553935
C73   C     C_3   0.532518 0.444646 0.312638 0.125248
H71   H     H_    0.563592 0.331934 0.282553 0.148315
H72   H     H_    0.476693 0.384047 0.327626 0.103415
C74   C     C_3   0.573196 0.508727 0.402016 -0.662080
H73   H     H_    0.540380 0.623845 0.429592 0.213436
H74   H     H_    0.576477 0.396209 0.452475 0.161450
H75   H     H_    0.632584 0.553454 0.392134 0.244634
O28   O     O_3   0.458664 0.572323 0.743416 -0.546525
C75   C     C_3   0.473899 0.424916 0.685841 0.096040
H76   H     H_    0.455713 0.295400 0.716230 0.135266
H77   H     H_    0.535651 0.410900 0.673474 0.114560
C76   C     C_3   0.429961 0.456280 0.593659 -0.676509
H78   H     H_    0.441487 0.594356 0.567624 0.209904
H79   H     H_    0.449843 0.356412 0.544456 0.166666
H80   H     H_    0.366872 0.442624 0.598145 0.239575

loop_
_geom_bond_atom_site_label_1
_geom_bond_atom_site_label_2
_ccdc_geom_bond_type
O17   V3    S    
C14   O26   S    
C71   H67   S    
O1    C5    A    
O26   C71   S    
C16   C36   A    
C31   C35   A    
O19   V1    S    
O13   V1    S    
C72   H68   S    
C22   O21   S    
C28   C51   S    
C57   C58   S    
C50   H13   S    
C15   O27   S    
O15   V3    S    
C10   C42   T    
C63   C64   S    
C58   H32   S    
C66   H53   S    
C51   C52   S    
C9    C41   T    
C33   C38   A    
O28   C75   S    
O7    C3    A    
C64   H49   S    
C35   C40   A    
C8    C37   S    
C56   H26   S    
C36   C39   A    
O9    V1    S    
C50   H12   S    
C14   C18   A    
C24   C28   A    
C30   C34   A    
C55   H29   S    
O4    C8    A    
C76   H79   S    
O1    V3    S    
O2    V4    S    
C18   C22   A    
C13   O25   S    
O3    V1    S    
C59   C60   S    
C55   C56   S    
C5    C40   S    
C69   C70   S    
C66   H54   S    
C6    C39   S    
C14   C34   A    
C29   C37   A    
C1    O15   A    
C7    C38   S    
C11   C12   S    
C2    O16   A    
C74   H74   S    
C67   C68   S    
C31   C39   A    
O2    C6    A    
C32   C40   A    
C57   H34   S    
O14   V2    S    
C20   C59   S    
C68   H59   S    
C27   C31   A    
C53   H24   S    
C3    C42   S    
C62   H45   S    
C34   C37   A    
O11   C7    A    
C49   H14   S    
O12   C8    A    
C25   C45   S    
C69   H62   S    
C72   H69   S    
C65   C66   S    
C19   C57   S    
O10   V2    S    
C58   H31   S    
C70   H64   S    
C53   C54   S    
O5    V1    S    
C60   H37   S    
C15   C19   A    
C49   H15   S    
C56   H28   S    
O7    V3    S    
C28   C32   A    
O8    V4    S    
C23   O24   S    
C51   H19   S    
C47   C48   S    
C47   H10   S    
C52   H16   S    
C29   C33   A    
O18   V4    S    
C76   H80   S    
C23   C27   A    
C30   C38   A    
C61   C62   S    
O3    C7    A    
C48   H6    S    
O4    V2    S    
C32   C36   A    
O25   C69   S    
C75   C76   S    
C69   H61   S    
O5    C1    A    
C26   C47   S    
C52   H17   S    
O22   C63   S    
C56   H27   S    
C4    C41   S    
C49   C50   S    
C11   C43   T    
O8    C4    A    
C74   H75   S    
C15   C35   A    
C46   H3    S    
C21   C25   A    
C48   H7    S    
O9    C5    A    
C45   H4    S    
C59   H40   S    
C50   H11   S    
C68   H60   S    
O11   V3    S    
C73   C74   S    
C53   H25   S    
O6    V2    S    
C74   H73   S    
C54   H22   S    
C71   H66   S    
C72   H70   S    
C67   H57   S    
C27   C49   S    
C65   H52   S    
C66   H55   S    
C70   H65   S    
C16   O28   S    
O16   V4    S    
C60   H38   S    
C3    O13   A    
C61   H42   S    
C75   H77   S    
C65   H51   S    
C18   C55   S    
C47   H9    S    
O6    C2    A    
C63   H47   S    
C60   H36   S    
C12   C44   T    
C51   H20   S    
C63   H46   S    
O12   V4    S    
C54   H23   S    
C64   H48   S    
C22   C26   A    
C21   O22   S    
C57   H35   S    
O10   C6    A    
O20   V2    S    
C62   H43   S    
C1    C44   S    
C26   C30   A    
C2    C43   S    
O24   C67   S    
C52   H18   S    
C55   H30   S    
C48   H8    S    
C76   H78   S    
O21   C61   S    
C70   H63   S    
C61   H41   S    
C25   C29   A    
C64   H50   S    
C9    C10   S    
C24   O23   S    
C45   H5    S    
C17   C53   S    
C59   H39   S    
C13   C17   A    
C45   C46   S    
C73   H72   S    
C46   H1    S    
O27   C73   S    
C20   C24   A    
C16   C20   A    
C71   C72   S    
C54   H21   S    
C4    O14   A    
C17   C21   A    
C67   H56   S    
C46   H2    S    
C68   H58   S    
O23   C65   S    
C19   C23   A    
C58   H33   S    
C13   C33   A    
C75   H76   S    
C62   H44   S    
C73   H71   S    
