data_mof_unit_33722.cif
_audit_creation_date              2012-12-10T18:57:43-0500
_audit_creation_method            fapswitch 2.2
_symmetry_space_group_name_H-M    P1
_symmetry_Int_Tables_number       1
_space_group_crystal_system       triclinic
_cell_length_a                    10.906696
_cell_length_b                    10.84219
_cell_length_c                    9.565745
_cell_angle_alpha                 89.425367
_cell_angle_beta                  89.720434
_cell_angle_gamma                 90.317322
_cell_volume                      1131.0849652

loop_
_atom_site_label
_atom_site_type_symbol
_atom_type_description
_atom_site_fract_x
_atom_site_fract_y
_atom_site_fract_z
_atom_type_partial_charge
C1    C     C_R   0.497782 0.262997 0.500601 0.824466
C2    C     C_R   0.490296 0.130824 0.500909 -0.159162
C3    C     C_R   0.442722 0.067827 0.384997 -0.282459
C4    C     C_R   0.443405 0.937872 0.381362 0.236625
C5    C     C_R   0.491626 0.870243 0.496737 -0.131301
C6    C     C_R   0.532108 0.936802 0.610830 0.023357
C7    C     C_3   0.598515 0.924148 0.746245 -0.529109
C8    C     C_3   0.597604 0.066601 0.749345 0.098839
C9    C     C_R   0.568311 0.584470 0.072524 0.155409
C10   C     C_R   0.424893 0.423776 0.076354 -0.111925
C11   C     C_R   0.423100 0.424495 0.927239 0.348447
C12   C     C_R   0.265418 0.495663 0.500425 0.830571
C13   C     C_R   0.569565 0.583381 0.925333 0.090345
C14   C     C_3   0.706076 0.596006 0.922465 0.416927
C15   C     C_3   0.703663 0.601125 0.080435 -0.495109
C16   C     C_R   0.497912 0.737308 0.499072 0.817400
C17   C     C_R   0.734607 0.504618 0.499442 0.779421
C18   C     C_2   0.933156 0.474024 0.394166 -0.207285
C19   C     C_2   0.866097 0.525514 0.496563 0.149848
C20   C     C_2   0.066735 0.484689 0.386954 -0.156327
C21   C     C_2   0.133589 0.482716 0.503664 -0.275763
C22   C     C_R   0.531514 0.061032 0.612836 0.110576
Cu1   Cu    Cu3+1 0.499990 0.499980 0.640670 1.005882
Cu2   Cu    Cu3+1 0.500010 0.500020 0.359330 0.953090
H1    H     H_    0.888953 0.420345 0.313186 0.135297
H2    H     H_    0.366821 0.360029 0.134331 0.133711
H3    H     H_    0.738929 0.682299 0.870765 0.044999
H4    H     H_    0.750754 0.521756 0.130562 0.239330
H5    H     H_    0.729735 0.692967 0.121769 0.134534
H6    H     H_    0.109954 0.488621 0.284429 0.166342
H7    H     H_    0.090835 0.468245 0.605264 0.183585
H8    H     H_    0.406143 0.118848 0.296702 0.162039
H9    H     H_    0.540221 0.880517 0.828640 0.175794
H10   H     H_    0.690473 0.882140 0.733476 0.195254
H11   H     H_    0.540267 0.104865 0.834754 0.110559
N1    N     N_R   0.500780 0.500930 0.147930 -0.175668
N2    N     N_R   0.500780 0.500890 0.852020 -0.171589
O1    O     O_R   0.500000 0.319640 0.618810 -0.546297
O2    O     O_R   0.500010 0.319680 0.381230 -0.594880
O3    O     O_R   0.321940 0.499980 0.618760 -0.561413
O4    O     O_R   0.321950 0.500020 0.381180 -0.584895
O5    O     O_R   0.499990 0.680320 0.618770 -0.598458
O6    O     O_R   0.500000 0.680360 0.381190 -0.544220
O7    O     O_R   0.678050 0.499980 0.618820 -0.516129
O8    O     O_R   0.678060 0.500020 0.381240 -0.605373
N3    N     N_2   0.719319 0.123193 0.742684 -0.375206
H12   H     H_    0.767506 0.112820 0.834486 0.257839
C23   C     C_3   0.794817 0.109743 0.618405 -0.626435
H13   H     H_    0.882668 0.160251 0.632621 0.214706
H14   H     H_    0.748872 0.150397 0.525723 0.222151
H15   H     H_    0.815682 0.011264 0.599499 0.205675
N4    N     N_2   0.344779 0.341451 0.856137 -0.385170
H16   H     H_    0.367415 0.250541 0.874443 0.221057
C24   C     C_3   0.215092 0.362882 0.876844 -0.693275
H17   H     H_    0.187381 0.338860 0.985723 0.199874
H18   H     H_    0.161916 0.304245 0.804158 0.226626
H19   H     H_    0.192508 0.461006 0.855008 0.246363
F1    F     F_    0.763009 0.489666 0.877097 -0.646584
N5    N     N_2   0.918124 0.611413 0.591965 -0.418162
H20   H     H_    0.878752 0.608797 0.689835 0.293444
C25   C     C_3   0.927453 0.736048 0.537460 -0.722731
H21   H     H_    0.973014 0.795695 0.615551 0.225028
H22   H     H_    0.834606 0.773285 0.515814 0.205758
H23   H     H_    0.983158 0.738372 0.439941 0.253541
N6    N     N_2   0.392657 0.876968 0.263955 -0.398935
H24   H     H_    0.304300 0.904666 0.242728 0.240170
C26   C     C_3   0.469451 0.881756 0.140282 -0.670302
H25   H     H_    0.476528 0.977821 0.099260 0.200942
H26   H     H_    0.428670 0.822828 0.058261 0.213209
H27   H     H_    0.562674 0.847033 0.164341 0.235134

loop_
_geom_bond_atom_site_label_1
_geom_bond_atom_site_label_2
_ccdc_geom_bond_type
C2    C22   A    
C25   H23   S    
C8    C22   S    
Cu1   Cu2   S    
C12   O3    A    
C12   O4    A    
C14   H3    S    
C9    N1    A    
Cu1   O1    S    
C21   H7    S    
C3    H8    S    
C18   C20   S    
C14   C15   S    
C26   H27   S    
C10   H2    S    
C23   H14   S    
C2    C3    A    
C9    C15   S    
C17   O7    A    
C7    C8    S    
C20   H6    S    
C13   C14   S    
N4    H16   S    
Cu2   O4    S    
C7    H9    S    
C16   O6    A    
C15   H4    S    
Cu2   N1    S    
Cu1   O5    S    
C1    O1    A    
C26   H25   S    
C5    C6    A    
Cu2   O8    S    
C4    N6    S    
C23   H13   S    
C17   C19   S    
N4    C24   S    
C15   H5    S    
C6    C7    S    
C24   H18   S    
N6    H24   S    
C25   H21   S    
C14   F1    S    
C18   H1    S    
N3    C23   S    
N5    C25   S    
C10   C11   A    
C1    O2    A    
Cu1   O3    S    
C6    C22   A    
C16   O5    A    
N5    H20   S    
Cu2   O2    S    
C20   C21   D    
C11   N2    A    
C1    C2    S    
N3    H12   S    
C7    H10   S    
C26   H26   S    
C25   H22   S    
Cu2   O6    S    
C9    C13   A    
C24   H17   S    
C18   C19   D    
C5    C16   S    
C10   N1    A    
C11   N4    S    
C8    N3    S    
C19   N5    S    
Cu1   N2    S    
C13   N2    A    
C12   C21   S    
C8    H11   S    
C23   H15   S    
Cu1   O7    S    
C3    C4    A    
C17   O8    A    
C4    C5    A    
N6    C26   S    
C24   H19   S    
