data_mof_unit_48650.cif
_audit_creation_date              2012-12-10T18:09:38-0500
_audit_creation_method            fapswitch 2.2
_symmetry_space_group_name_H-M    P1
_symmetry_Int_Tables_number       1
_space_group_crystal_system       triclinic
_cell_length_a                    15.194567
_cell_length_b                    15.16649
_cell_length_c                    9.410474
_cell_angle_alpha                 90.001239
_cell_angle_beta                  89.997833
_cell_angle_gamma                 90.004109
_cell_volume                      2168.62724284

loop_
_atom_site_label
_atom_site_type_symbol
_atom_type_description
_atom_site_fract_x
_atom_site_fract_y
_atom_site_fract_z
_atom_type_partial_charge
C1    C     C_R   0.119092 0.378900 0.499759 0.790610
C2    C     C_R   0.118892 0.621290 0.499796 0.787033
C3    C     C_R   0.619101 0.878910 0.500239 0.790489
C4    C     C_R   0.618876 0.121308 0.500201 0.787256
C5    C     C_3   0.081688 0.458005 0.083720 -0.188094
C6    C     C_3   0.081678 0.457974 0.916251 -0.188879
C7    C     C_3   0.580053 0.955013 0.083727 -0.189002
C8    C     C_3   0.580062 0.955038 0.916276 -0.187523
C9    C     C_R   0.878859 0.381074 0.500162 0.826347
C10   C     C_R   0.879147 0.619231 0.500186 0.822367
C11   C     C_R   0.378875 0.881056 0.499837 0.826042
C12   C     C_R   0.379134 0.119216 0.499819 0.822417
C13   C     C_3   0.767758 0.303454 0.652790 -0.024075
C14   C     C_3   0.849765 0.221173 0.460244 -0.032664
C15   C     C_3   0.770953 0.699737 0.654362 -0.021260
C16   C     C_3   0.849380 0.778559 0.454335 -0.030585
C17   C     C_3   0.349713 0.721223 0.540386 -0.032567
C18   C     C_3   0.268071 0.803134 0.347047 -0.024071
C19   C     C_3   0.349421 0.278598 0.545237 -0.030662
C20   C     C_3   0.270748 0.199505 0.345742 -0.021150
C21   C     C_3   0.276215 0.650262 0.545894 -0.431363
C22   C     C_3   0.197574 0.730013 0.347313 -0.429948
C23   C     C_3   0.275790 0.349415 0.550738 -0.431224
C24   C     C_3   0.200334 0.272663 0.346085 -0.432136
C25   C     C_3   0.697318 0.230273 0.652562 -0.430300
C26   C     C_3   0.776262 0.150223 0.454587 -0.431260
C27   C     C_3   0.700476 0.772829 0.653979 -0.432107
C28   C     C_3   0.775758 0.849389 0.448967 -0.431180
C29   C     C_3   0.735004 0.336687 0.393552 -0.388748
C30   C     C_3   0.733568 0.661850 0.398384 -0.389055
C31   C     C_3   0.234824 0.836863 0.605963 -0.388840
C32   C     C_3   0.233675 0.161968 0.601973 -0.389131
C33   C     C_3   0.809188 0.312670 0.500759 0.157664
C34   C     C_3   0.809605 0.687767 0.500900 0.156722
C35   C     C_3   0.309210 0.812643 0.499234 0.157662
C36   C     C_3   0.309588 0.187746 0.499114 0.156762
C37   C     C_3   0.187238 0.690645 0.498898 0.135745
C38   C     C_3   0.187583 0.309694 0.498750 0.135028
C39   C     C_3   0.687213 0.190674 0.501090 0.135801
C40   C     C_3   0.687597 0.809712 0.501254 0.135116
C41   C     C_3   0.161886 0.766238 0.602366 -0.404500
C42   C     C_3   0.160744 0.232591 0.598211 -0.405009
C43   C     C_3   0.662021 0.266114 0.397236 -0.404463
C44   C     C_3   0.660675 0.732515 0.402046 -0.405076
C45   C     C_3   0.997496 0.590880 0.083806 -0.183708
C46   C     C_3   0.997638 0.590888 0.916193 -0.199676
C47   C     C_3   0.924633 0.451487 0.083680 -0.204598
C48   C     C_3   0.924574 0.451618 0.916398 -0.182672
C49   C     C_3   0.500940 0.090961 0.083819 -0.199356
C50   C     C_3   0.500811 0.090958 0.916201 -0.184460
C51   C     C_3   0.422828 0.954491 0.083613 -0.181951
C52   C     C_3   0.422871 0.954379 0.916318 -0.205252
Cu1   Cu    Cu3+1 0.000100 0.500000 0.642410 0.899607
Cu2   Cu    Cu3+1 0.000100 0.500000 0.357590 0.902066
Cu3   Cu    Cu3+1 0.500100 0.000000 0.642410 0.902135
Cu4   Cu    Cu3+1 0.500100 1.000000 0.357590 0.899495
H1    H     H_    0.294083 0.594577 0.474376 0.126431
H2    H     H_    0.217852 0.677455 0.271369 0.146180
H3    H     H_    0.294642 0.406196 0.482175 0.126205
H4    H     H_    0.221893 0.326398 0.273275 0.142775
H5    H     H_    0.717548 0.177842 0.728760 0.146086
H6    H     H_    0.793997 0.094602 0.526316 0.126495
H7    H     H_    0.722013 0.826645 0.726657 0.142919
H8    H     H_    0.794692 0.906197 0.517414 0.126206
H9    H     H_    0.269638 0.622173 0.654675 0.165957
H10   H     H_    0.133021 0.755676 0.309467 0.170770
H11   H     H_    0.267583 0.375823 0.660328 0.165454
H12   H     H_    0.136422 0.247646 0.304452 0.172907
H13   H     H_    0.632695 0.255934 0.690112 0.170815
H14   H     H_    0.769861 0.122033 0.345846 0.165976
H15   H     H_    0.636611 0.747783 0.695755 0.172643
H16   H     H_    0.767446 0.875749 0.339371 0.165454
H17   H     H_    0.706751 0.402545 0.418092 0.147501
H18   H     H_    0.761542 0.341891 0.283834 0.161905
H19   H     H_    0.705746 0.596509 0.427437 0.148080
H20   H     H_    0.758188 0.654577 0.287806 0.163588
H21   H     H_    0.261165 0.842341 0.715768 0.161805
H22   H     H_    0.206579 0.902645 0.580896 0.147554
H23   H     H_    0.258420 0.154905 0.712510 0.163760
H24   H     H_    0.205853 0.096562 0.573301 0.147979
H25   H     H_    0.151993 0.740039 0.711677 0.161600
H26   H     H_    0.098739 0.796821 0.568178 0.148476
H27   H     H_    0.149121 0.257174 0.708055 0.160864
H28   H     H_    0.098176 0.202485 0.560315 0.150714
H29   H     H_    0.598852 0.296787 0.431121 0.148582
H30   H     H_    0.652238 0.239758 0.288001 0.161386
H31   H     H_    0.598109 0.702481 0.440103 0.150575
H32   H     H_    0.649017 0.756990 0.292153 0.160766
H33   H     H_    0.054287 0.630263 0.122707 0.140517
H34   H     H_    0.054647 0.630076 0.877622 0.132715
H35   H     H_    0.925602 0.381924 0.120991 0.154827
H36   H     H_    0.925333 0.382111 0.878860 0.134777
H37   H     H_    0.559410 0.127996 0.122160 0.133247
H38   H     H_    0.559080 0.128189 0.877542 0.139882
H39   H     H_    0.421076 0.884973 0.120939 0.136340
H40   H     H_    0.421273 0.884806 0.879143 0.154336
H41   H     H_    0.937285 0.625091 0.121822 0.153570
H42   H     H_    0.937642 0.625347 0.877833 0.141442
H43   H     H_    0.862310 0.481039 0.123544 0.131311
H44   H     H_    0.862350 0.481516 0.876925 0.172867
H45   H     H_    0.442309 0.127631 0.122425 0.139846
H46   H     H_    0.441973 0.127402 0.877947 0.154219
H47   H     H_    0.361732 0.986571 0.123243 0.172966
H48   H     H_    0.361686 0.986184 0.876380 0.131326
H49   H     H_    0.141351 0.492566 0.123686 0.128926
H50   H     H_    0.141353 0.492512 0.876258 0.131206
H51   H     H_    0.086402 0.388562 0.120733 0.140727
H52   H     H_    0.086425 0.388532 0.879195 0.133366
H53   H     H_    0.640962 0.987354 0.123648 0.131316
H54   H     H_    0.640959 0.987403 0.876368 0.128836
H55   H     H_    0.582223 0.885457 0.120901 0.133015
H56   H     H_    0.582206 0.885480 0.879126 0.141173
N1    N     N_3   0.001260 0.500000 0.143650 -0.110112
N2    N     N_3   0.001260 0.500000 0.856350 -0.109489
N3    N     N_3   0.501260 1.000000 0.143650 -0.109804
N4    N     N_3   0.501260 1.000000 0.856350 -0.109886
O1    O     O_R   0.091250 0.408820 0.620260 -0.603958
O2    O     O_R   0.091250 0.408820 0.379740 -0.593171
O3    O     O_R   0.091250 0.591180 0.620260 -0.602188
O4    O     O_R   0.091250 0.591180 0.379740 -0.592895
O5    O     O_R   0.591250 0.908820 0.620260 -0.593291
O6    O     O_R   0.591250 0.908820 0.379740 -0.603973
O7    O     O_R   0.591250 0.091180 0.620260 -0.592953
O8    O     O_R   0.591250 0.091180 0.379740 -0.602299
O9    O     O_R   0.908940 0.408800 0.620260 -0.585778
O10   O     O_R   0.908940 0.408800 0.379740 -0.583939
O11   O     O_R   0.908940 0.591200 0.620260 -0.581185
O12   O     O_R   0.908940 0.591200 0.379740 -0.582565
O13   O     O_R   0.408940 0.908800 0.620260 -0.583703
O14   O     O_R   0.408940 0.908800 0.379740 -0.585544
O15   O     O_R   0.408940 0.091200 0.620260 -0.582454
O16   O     O_R   0.408940 0.091200 0.379740 -0.581355
N5    N     N_3   0.731567 0.387512 0.704329 -0.588266
H57   H     H_    0.671993 0.401542 0.653581 0.219575
H58   H     H_    0.717576 0.380920 0.812654 0.198326
N6    N     N_3   0.899446 0.224583 0.326390 -0.608831
H59   H     H_    0.856379 0.228934 0.240068 0.216574
H60   H     H_    0.934097 0.165394 0.315176 0.200790
N7    N     N_3   0.735813 0.616653 0.711686 -0.581727
H61   H     H_    0.675285 0.601712 0.664679 0.219637
H62   H     H_    0.724043 0.625143 0.820355 0.198919
N8    N     N_3   0.896572 0.772911 0.318364 -0.610998
H63   H     H_    0.851931 0.767052 0.234385 0.216176
H64   H     H_    0.930918 0.831910 0.302858 0.200449
N9    N     N_3   0.399066 0.724868 0.674535 -0.608343
H65   H     H_    0.355787 0.729346 0.760569 0.216625
H66   H     H_    0.433707 0.665709 0.686211 0.200735
N10   N     N_3   0.232052 0.887108 0.294847 -0.588112
H67   H     H_    0.172383 0.901297 0.345197 0.219658
H68   H     H_    0.218302 0.880305 0.186477 0.198283
N11   N     N_3   0.396853 0.273112 0.681002 -0.611173
H69   H     H_    0.352366 0.267334 0.765212 0.216288
H70   H     H_    0.431221 0.332131 0.696176 0.200432
N12   N     N_3   0.235457 0.116358 0.288902 -0.582329
H71   H     H_    0.174973 0.101558 0.336177 0.219573
H72   H     H_    0.223554 0.124677 0.180239 0.198933
H73   H     H_    0.820667 0.282907 0.727975 0.122335
H74   H     H_    0.896974 0.202324 0.545738 0.111023
H75   H     H_    0.825246 0.721642 0.725928 0.121167
H76   H     H_    0.898127 0.798878 0.536653 0.109558
H77   H     H_    0.397134 0.702244 0.455267 0.110892
H78   H     H_    0.321120 0.782379 0.272262 0.122152
H79   H     H_    0.398018 0.298834 0.462633 0.109631
H80   H     H_    0.324961 0.221241 0.273876 0.121607

loop_
_geom_bond_atom_site_label_1
_geom_bond_atom_site_label_2
_ccdc_geom_bond_type
C12   O16   A    
C16   C28   S    
Cu3   Cu4   S    
Cu3   O5    S    
C12   O15   A    
Cu2   O4    S    
C16   H76   S    
C18   H78   S    
C19   C23   S    
C13   C25   S    
C14   C33   S    
N9    H65   S    
C7    C8    S    
C24   H12   S    
C5    H49   S    
C45   C46   S    
C23   H3    S    
Cu2   O10   S    
C20   N12   S    
C14   H74   S    
C32   C36   S    
N10   H68   S    
C38   C42   S    
C18   N10   S    
C19   C36   S    
C8    H56   S    
C49   H45   S    
C5    C6    S    
Cu1   O1    S    
C26   C39   S    
C29   H17   S    
Cu3   N4    S    
C28   C40   S    
C51   H47   S    
C20   H80   S    
Cu2   N1    S    
C29   C33   S    
C47   H43   S    
C4    O8    A    
C7    N3    S    
C6    N2    S    
Cu1   O11   S    
C16   C34   S    
C15   C27   S    
C22   H10   S    
C20   C24   S    
Cu3   O13   S    
C24   C38   S    
N11   H69   S    
C12   C36   S    
C44   H31   S    
C45   H33   S    
C18   C35   S    
C15   C34   S    
N12   H72   S    
C3    O6    A    
Cu1   O9    S    
C21   H9    S    
C46   H42   S    
C29   C43   S    
C9    C33   S    
C30   C44   S    
C28   H16   S    
C47   H35   S    
C10   O12   A    
C11   O13   A    
C13   H73   S    
N9    H66   S    
C31   H21   S    
C15   N7    S    
C52   N4    S    
C48   H44   S    
N7    H61   S    
Cu3   O7    S    
C30   C34   S    
C51   C52   S    
C43   H29   S    
C42   H28   S    
N10   H67   S    
N6    H60   S    
C2    O4    A    
C50   H38   S    
C25   H5    S    
C29   H18   S    
Cu1   Cu2   S    
C22   C37   S    
Cu2   O12   S    
C51   N3    S    
C7    H53   S    
C4    O7    A    
Cu4   O6    S    
C16   N8    S    
C21   H1    S    
C8    H54   S    
C32   H24   S    
C30   H20   S    
C19   N11   S    
C47   C48   S    
C4    C39   S    
C27   C40   S    
C24   H4    S    
C41   H25   S    
C6    H50   S    
C10   C34   S    
C1    O1    A    
C14   C26   S    
N12   H71   S    
Cu4   O16   S    
C17   H77   S    
C1    C38   S    
C28   H8    S    
C49   N3    S    
C3    C40   S    
C50   H46   S    
Cu3   O15   S    
Cu2   O2    S    
C17   N9    S    
C26   H14   S    
C31   C35   S    
C25   H13   S    
C10   O11   A    
C11   O14   A    
Cu4   O8    S    
N8    H64   S    
C27   H15   S    
Cu1   N2    S    
C31   H22   S    
C48   N2    S    
C5    H51   S    
C47   N1    S    
C19   H79   S    
C52   H48   S    
C6    H52   S    
C31   C41   S    
C5    N1    S    
C18   C22   S    
C43   H30   S    
C13   N5    S    
C42   H27   S    
C46   N2    S    
N6    H59   S    
C15   H75   S    
C22   H2    S    
C39   C43   S    
C2    O3    A    
Cu1   O3    S    
C13   C33   S    
C46   H34   S    
C23   C38   S    
C9    O10   A    
C11   C35   S    
C26   H6    S    
C45   H41   S    
C25   C39   S    
C32   H23   S    
C30   H19   S    
N7    H62   S    
C2    C37   S    
N5    H57   S    
C14   N6    S    
C41   H26   S    
Cu4   N3    S    
C7    H55   S    
C52   H40   S    
C50   N4    S    
C1    O2    A    
N11   H70   S    
C37   C41   S    
C9    O9    A    
C23   H11   S    
C8    N4    S    
C20   C36   S    
C45   N1    S    
C40   C44   S    
C21   C37   S    
C49   C50   S    
C48   H36   S    
N5    H58   S    
C32   C42   S    
N8    H63   S    
C27   H7    S    
C17   C35   S    
C49   H37   S    
C44   H32   S    
Cu4   O14   S    
C3    O5    A    
C51   H39   S    
C17   C21   S    
