data_mof_unit_13194.cif
_audit_creation_date              2012-12-10T16:46:45-0500
_audit_creation_method            fapswitch 2.2
_symmetry_space_group_name_H-M    P1
_symmetry_Int_Tables_number       1
_space_group_crystal_system       triclinic
_cell_length_a                    15.864535
_cell_length_b                    8.673282
_cell_length_c                    7.625897
_cell_angle_alpha                 103.284805
_cell_angle_beta                  96.698693
_cell_angle_gamma                 92.83527
_cell_volume                      1011.09155602

loop_
_atom_site_label
_atom_site_type_symbol
_atom_type_description
_atom_site_fract_x
_atom_site_fract_y
_atom_site_fract_z
_atom_type_partial_charge
C1    C     C_R   0.497331 0.200171 0.453206 0.862273
C2    C     C_3   0.964777 0.467559 0.690618 -0.069335
C3    C     C_3   0.917525 0.509636 0.513527 0.173889
C4    C     C_3   0.953506 0.685737 0.503598 0.078113
C5    C     C_3   0.055450 0.689413 0.506343 -0.083544
C6    C     C_1   0.824892 0.504571 0.515923 -0.032032
C7    C     C_1   0.176056 0.509013 0.492190 -0.029945
C8    C     C_1   0.251326 0.504284 0.493055 -0.167914
C9    C     C_2   0.496073 0.031523 0.427889 -0.357449
C10   C     C_2   0.503462 0.968468 0.572124 -0.362529
C11   C     C_R   0.340762 0.500180 0.498199 0.810773
C12   C     C_R   0.502487 0.799826 0.546789 0.876735
C13   C     C_R   0.659288 0.500192 0.501944 0.817497
C14   C     C_3   0.064871 0.460312 0.682778 0.325958
C15   C     C_3   0.033274 0.398304 0.329677 -0.434007
C16   C     C_3   0.936160 0.372237 0.346054 0.346622
C17   C     C_1   0.749070 0.501716 0.509197 -0.177916
C18   C     C_3   0.084465 0.515472 0.504709 0.097878
Cu1   Cu    Cu3+1 0.509300 0.517380 0.684380 0.953663
Cu2   Cu    Cu3+1 0.490700 0.482620 0.315620 0.954590
H1    H     H_    0.937890 0.348907 0.695852 0.189586
H2    H     H_    0.489177 0.959016 0.289501 0.183555
H3    H     H_    0.510309 0.040977 0.710513 0.181369
H4    H     H_    0.574638 0.607625 0.046643 0.210330
H5    H     H_    0.040744 0.447132 0.210485 0.165274
H6    H     H_    0.062191 0.283030 0.295040 0.188966
N1    N     N_2   0.476670 0.456430 0.038530 -0.087954
N2    N     N_2   0.523330 0.543570 0.961470 -0.180944
O1    O     O_R   0.506050 0.286130 0.619770 -0.586025
O2    O     O_R   0.490330 0.256780 0.308370 -0.583264
O3    O     O_R   0.387300 0.514690 0.655770 -0.595238
O4    O     O_R   0.371580 0.485340 0.344370 -0.580029
O5    O     O_R   0.509670 0.743220 0.691630 -0.580701
O6    O     O_R   0.493950 0.713870 0.380230 -0.579878
O7    O     O_R   0.628420 0.514660 0.655630 -0.575012
O8    O     O_R   0.612700 0.485310 0.344230 -0.586883
C19   C     C_3   0.119883 0.560682 0.859873 -0.756766
H7    H     H_    0.100103 0.680432 0.905789 0.258800
H8    H     H_    0.115937 0.503148 0.974954 0.228533
H9    H     H_    0.188381 0.572446 0.844005 0.223158
C20   C     C_3   0.940554 0.563850 0.870436 -0.928384
H10   H     H_    0.966323 0.688494 0.911037 0.270365
H11   H     H_    0.870501 0.559178 0.869808 0.255127
H12   H     H_    0.968814 0.510231 0.977878 0.242825
C21   C     C_3   0.909170 0.743064 0.339519 -0.880745
H13   H     H_    0.838759 0.721586 0.322966 0.238004
H14   H     H_    0.923721 0.872585 0.356352 0.235157
H15   H     H_    0.933174 0.690659 0.212440 0.245841
C22   C     C_3   0.396230 0.378571 0.943974 -0.335620
H16   H     H_    0.371488 0.298985 0.024228 0.163281
H17   H     H_    0.348899 0.467514 0.935777 0.172956
H18   H     H_    0.402394 0.300730 0.811027 0.185993
C23   C     C_3   0.093577 0.288702 0.678307 -0.830346
H19   H     H_    0.059863 0.232574 0.770410 0.235904
H20   H     H_    0.086614 0.207118 0.542928 0.227262
H21   H     H_    0.162897 0.291280 0.724959 0.237789
C24   C     C_3   0.915516 0.199593 0.369616 -0.863507
H22   H     H_    0.848733 0.183466 0.396985 0.233032
H23   H     H_    0.923232 0.110044 0.243301 0.251779
H24   H     H_    0.954990 0.162211 0.477196 0.219990
C25   C     C_3   0.877611 0.365148 0.163935 -0.822800
H25   H     H_    0.859796 0.477995 0.138643 0.228507
H26   H     H_    0.905924 0.296403 0.046403 0.238031
H27   H     H_    0.814094 0.303042 0.160257 0.240587
C26   C     C_1   0.102045 0.813242 0.658988 0.218235
N3    N     N_1   0.138627 0.912242 0.775406 -0.291112
C27   C     C_1   0.084738 0.744273 0.351648 0.229729
N4    N     N_1   0.108672 0.792095 0.235311 -0.308014
C28   C     C_1   0.928752 0.808299 0.656829 0.285390
N5    N     N_1   0.908955 0.905768 0.772760 -0.315456

loop_
_geom_bond_atom_site_label_1
_geom_bond_atom_site_label_2
_ccdc_geom_bond_type
C15   C18   S    
C19   H7    S    
Cu2   N1    S    
C10   H3    S    
C25   H27   S    
H4    N2    S    
C20   H10   S    
C14   C18   S    
Cu1   Cu2   S    
C13   C17   S    
C5    C27   S    
C22   H18   S    
Cu1   O3    S    
C3    C6    S    
C2    H1    S    
C23   H20   S    
C2    C3    S    
C11   O3    A    
C7    C8    T    
C19   H8    S    
Cu1   O7    S    
C21   H13   S    
C14   C19   S    
Cu1   N2    S    
C20   H11   S    
C24   H22   S    
C25   H25   S    
C10   C12   S    
C8    C11   S    
C1    O1    A    
C1    O2    A    
C11   O4    A    
C13   O7    A    
C19   H9    S    
C4    C21   S    
C21   H14   S    
Cu2   O4    S    
C28   N5    T    
C2    C14   S    
C20   H12   S    
C9    H2    S    
C23   H21   S    
C24   H23   S    
C15   H5    S    
C16   C25   S    
C3    C16   S    
C2    C20   S    
C12   O6    A    
C27   N4    T    
Cu2   O8    S    
N1    C22   S    
C16   C24   S    
C7    C18   S    
C1    C9    S    
C13   O8    A    
C5    C26   S    
C22   H16   S    
C9    C10   D    
Cu2   O6    S    
N1    N2    D    
C25   H26   S    
C6    C17   T    
C4    C28   S    
C15   H6    S    
Cu2   O2    S    
C5    C18   S    
C21   H15   S    
C22   H17   S    
C12   O5    A    
C23   H19   S    
C14   C23   S    
C26   N3    T    
C3    C4    S    
C15   C16   S    
Cu1   O5    S    
C4    C5    S    
C24   H24   S    
Cu1   O1    S    
