data_mof_unit_44615.cif
_audit_creation_date              2012-12-10T17:01:33-0500
_audit_creation_method            fapswitch 2.2
_symmetry_space_group_name_H-M    P1
_symmetry_Int_Tables_number       1
_space_group_crystal_system       triclinic
_cell_length_a                    9.897577
_cell_length_b                    11.02883
_cell_length_c                    13.034428
_cell_angle_alpha                 91.437546
_cell_angle_beta                  74.422538
_cell_angle_gamma                 112.326355
_cell_volume                      1263.08119997

loop_
_atom_site_label
_atom_site_type_symbol
_atom_type_description
_atom_site_fract_x
_atom_site_fract_y
_atom_site_fract_z
_atom_type_partial_charge
C1    C     C_R   0.437133 0.252722 0.507777 0.831368
C2    C     C_R   0.562867 0.747278 0.492222 0.831368
C3    C     C_2   0.083554 0.511673 0.493219 0.044517
C4    C     C_2   0.916446 0.488327 0.506780 0.044517
C5    C     C_R   0.471080 0.494825 0.703182 0.804594
C6    C     C_R   0.528920 0.505175 0.296818 0.804595
C7    C     C_R   0.549544 0.508282 0.181068 -0.058120
C8    C     C_R   0.450456 0.491718 0.818932 -0.058120
C9    C     C_R   0.352103 0.560432 0.991371 -0.185813
C10   C     C_R   0.647897 0.439569 0.008629 -0.185814
C11   C     C_R   0.349755 0.543296 0.885828 0.103139
C12   C     C_R   0.650246 0.456704 0.114172 0.103139
C13   C     C_R   0.537094 0.442459 0.863000 0.075094
C14   C     C_R   0.462906 0.557541 0.137000 0.075094
C15   C     C_R   0.546030 0.469622 0.967838 0.075877
C16   C     C_R   0.453970 0.530378 0.032162 0.075877
C17   C     C_2   0.394268 0.109985 0.519857 -0.028004
C18   C     C_2   0.605731 0.890015 0.480143 -0.028004
C19   C     C_2   0.498320 0.059355 0.474202 0.199889
C20   C     C_2   0.501680 0.940645 0.525798 0.199889
Cu1   Cu    Cu3+1 0.647370 0.522180 0.481340 1.002291
Cu2   Cu    Cu3+1 0.352630 0.477820 0.518660 1.002291
H1    H     H_    0.273134 0.598204 0.041454 0.169639
H2    H     H_    0.726866 0.401797 0.958545 0.169639
H3    H     H_    0.829957 0.410513 0.564980 0.161620
H4    H     H_    0.170043 0.589487 0.435020 0.161620
N1    N     N_2   0.131210 0.444490 0.546730 -0.057959
N2    N     N_2   0.868790 0.555510 0.453270 -0.057959
O1    O     O_R   0.578710 0.332530 0.490040 -0.601607
O2    O     O_R   0.421290 0.667470 0.509960 -0.601607
O3    O     O_R   0.329810 0.295070 0.521560 -0.531954
O4    O     O_R   0.670190 0.704930 0.478440 -0.531954
O5    O     O_R   0.604230 0.515670 0.637800 -0.584169
O6    O     O_R   0.395770 0.484330 0.362200 -0.584170
O7    O     O_R   0.355330 0.478200 0.669330 -0.550649
O8    O     O_R   0.644670 0.521800 0.330670 -0.550649
C21   C     C_3   0.388346 0.645590 0.198384 -0.807814
H5    H     H_    0.435352 0.687486 0.265469 0.228123
H6    H     H_    0.411194 0.732673 0.145500 0.231784
H7    H     H_    0.263731 0.589647 0.229381 0.253899
C22   C     C_3   0.611654 0.354411 0.801616 -0.807813
H8    H     H_    0.564648 0.312514 0.734531 0.228123
H9    H     H_    0.736269 0.410353 0.770619 0.253899
H10   H     H_    0.588807 0.267327 0.854500 0.231784
C23   C     C_3   0.761965 0.419039 0.151778 -0.784266
H11   H     H_    0.825022 0.374323 0.089442 0.217253
H12   H     H_    0.847652 0.507861 0.172651 0.270684
H13   H     H_    0.701417 0.346011 0.221940 0.232666
C24   C     C_3   0.238035 0.580962 0.848222 -0.784267
H14   H     H_    0.174978 0.625678 0.910558 0.217253
H15   H     H_    0.298583 0.653990 0.778059 0.232666
H16   H     H_    0.152349 0.492139 0.827349 0.270684
C25   C     C_3   0.408822 0.889148 0.640539 -0.862293
H17   H     H_    0.393110 0.969751 0.688436 0.240596
H18   H     H_    0.297132 0.810265 0.643249 0.243109
H19   H     H_    0.470466 0.848912 0.680851 0.216832
C26   C     C_3   0.591179 0.110853 0.359461 -0.862294
H20   H     H_    0.606890 0.030250 0.311564 0.240596
H21   H     H_    0.529535 0.151088 0.319149 0.216832
H22   H     H_    0.702868 0.189735 0.356751 0.243110
C27   C     C_3   0.770897 0.975928 0.426864 -0.800422
H23   H     H_    0.846135 0.945062 0.460199 0.266230
H24   H     H_    0.798965 0.966152 0.339518 0.236088
H25   H     H_    0.798330 0.080504 0.443015 0.250630
C28   C     C_3   0.229103 0.024072 0.573137 -0.800420
H26   H     H_    0.153865 0.054937 0.539801 0.266230
H27   H     H_    0.201669 0.919496 0.556986 0.250629
H28   H     H_    0.201035 0.033848 0.660482 0.236088
Br1   Br    Br    0.009287 0.697036 0.352906 -0.502852
Br2   Br    Br    0.990713 0.302964 0.647094 -0.502852

loop_
_geom_bond_atom_site_label_1
_geom_bond_atom_site_label_2
_ccdc_geom_bond_type
C27   H25   S    
C18   C27   S    
Cu1   O1    S    
C21   H5    S    
C11   C24   S    
C2    C18   S    
C9    C11   A    
C22   H8    S    
C17   C28   S    
C19   C20   S    
C28   H27   S    
C13   C15   A    
C2    O2    A    
C24   H16   S    
C10   H2    S    
Cu1   Cu2   S    
C27   H23   S    
N2    Br1   S    
C23   H12   S    
C4    H3    S    
C21   H6    S    
Cu1   O8    S    
Cu2   O2    S    
C25   H17   S    
C19   C26   S    
C14   C21   S    
C20   C25   S    
Cu2   O7    S    
C22   H9    S    
C26   H20   S    
C8    C13   A    
N1    Br2   S    
C10   C12   A    
C8    C11   A    
C5    O7    A    
C3    N1    D    
C17   C19   D    
Cu1   N2    S    
C6    O8    A    
C24   H14   S    
C6    C7    S    
C18   C20   D    
Cu2   N1    S    
C25   H18   S    
C7    C12   A    
Cu2   O6    S    
C22   H10   S    
C14   C16   A    
C26   H21   S    
C5    C8    S    
Cu1   O5    S    
Cu2   O3    S    
C1    O1    A    
C15   C16   A    
Cu1   O4    S    
C1    O3    A    
C28   H28   S    
C2    O4    A    
C28   H26   S    
C25   H19   S    
C27   H24   S    
C21   H7    S    
C13   C22   S    
C9    H1    S    
C26   H22   S    
C23   H13   S    
C4    N2    D    
C10   C15   A    
C23   H11   S    
C1    C17   S    
C9    C16   A    
C3    H4    S    
C7    C14   A    
C3    C4    S    
C6    O6    A    
C12   C23   S    
C24   H15   S    
C5    O5    A    
