data_mof_unit_59444.cif
_audit_creation_date              2012-12-10T17:03:58-0500
_audit_creation_method            fapswitch 2.2
_symmetry_space_group_name_H-M    P1
_symmetry_Int_Tables_number       1
_space_group_crystal_system       triclinic
_cell_length_a                    9.983075
_cell_length_b                    10.978742
_cell_length_c                    15.798081
_cell_angle_alpha                 98.217558
_cell_angle_beta                  77.90157
_cell_angle_gamma                 110.50739
_cell_volume                      1581.17039544

loop_
_atom_site_label
_atom_site_type_symbol
_atom_type_description
_atom_site_fract_x
_atom_site_fract_y
_atom_site_fract_z
_atom_type_partial_charge
C1    C     C_R   0.554163 0.744944 0.508365 0.867938
C2    C     C_R   0.443430 0.255063 0.495083 0.857907
C3    C     C_R   0.320227 0.407533 0.072776 -0.224757
C4    C     C_R   0.670446 0.496993 0.918358 -0.228054
C5    C     C_R   0.220565 0.380981 0.017425 -0.236448
C6    C     C_R   0.769500 0.513095 0.972611 -0.240185
C7    C     C_2   0.578710 0.884501 0.519466 -0.367590
C8    C     C_2   0.410687 0.115027 0.493281 -0.344347
C9    C     C_2   0.473310 0.928971 0.512327 -0.154802
C10   C     C_2   0.495592 0.067583 0.523763 -0.163887
C11   C     C_2   0.917841 0.475758 0.496494 0.140904
C12   C     C_2   0.062957 0.492352 0.518353 0.130056
C13   C     C_R   0.411269 0.483418 0.662408 0.788074
C14   C     C_R   0.587948 0.511239 0.337285 0.792649
C15   C     C_R   0.358296 0.460253 0.755109 -0.045853
C16   C     C_R   0.638340 0.511397 0.242766 -0.052011
C17   C     C_R   0.165516 0.376762 0.874962 -0.206141
C18   C     C_R   0.826906 0.530515 0.116172 -0.201051
C19   C     C_R   0.211151 0.400165 0.787431 -0.200384
C20   C     C_R   0.783901 0.530556 0.206071 -0.199400
C21   C     C_R   0.460125 0.488934 0.810584 -0.246381
C22   C     C_R   0.536229 0.489050 0.188452 -0.247659
C23   C     C_R   0.417996 0.455172 0.897072 0.086442
C24   C     C_R   0.575591 0.482996 0.097727 0.086465
C25   C     C_R   0.267559 0.404852 0.930123 0.169923
C26   C     C_R   0.724406 0.508840 0.061978 0.169592
C27   C     C_R   0.520909 0.471258 0.951661 0.068158
C28   C     C_R   0.471649 0.455123 0.041894 0.068410
Cu1   Cu    Cu3+1 0.362980 0.479380 0.485080 0.906913
Cu2   Cu    Cu3+1 0.637020 0.520620 0.514920 0.907759
H1    H     H_    0.105667 0.341935 0.043342 0.143414
H2    H     H_    0.882737 0.530639 0.944698 0.146615
H3    H     H_    0.426410 0.480396 0.218378 0.152842
H4    H     H_    0.572323 0.539404 0.785363 0.152744
H5    H     H_    0.864481 0.546948 0.246682 0.153895
H6    H     H_    0.131334 0.369420 0.745314 0.145575
H7    H     H_    0.050472 0.333972 0.899153 0.133415
H8    H     H_    0.940533 0.547981 0.088943 0.136299
H9    H     H_    0.274822 0.383565 0.138864 0.140401
H10   H     H_    0.713216 0.499319 0.849829 0.153481
H11   H     H_    0.584643 0.131142 0.555165 0.171532
H12   H     H_    0.370831 0.863303 0.495177 0.182780
H13   H     H_    0.318254 0.050174 0.464826 0.148252
H14   H     H_    0.682126 0.951026 0.534671 0.150410
H15   H     H_    0.155197 0.452523 0.398530 0.196307
H16   H     H_    0.903396 0.646638 0.551623 0.191346
N1    N     N_2   0.842890 0.551600 0.537350 -0.320984
N2    N     N_2   0.157110 0.448400 0.462650 -0.321906
O1    O     O_R   0.426810 0.668300 0.492040 -0.586433
O2    O     O_R   0.573190 0.331700 0.507960 -0.601300
O3    O     O_R   0.658240 0.703130 0.517240 -0.572328
O4    O     O_R   0.341760 0.296870 0.482760 -0.564122
O5    O     O_R   0.319390 0.472820 0.610170 -0.605263
O6    O     O_R   0.680610 0.527180 0.389830 -0.597054
O7    O     O_R   0.550820 0.507640 0.635370 -0.570623
O8    O     O_R   0.449180 0.492360 0.364630 -0.581965
C29   C     C_3   0.088847 0.536407 0.611590 -0.315618
C30   C     C_3   0.989437 0.597065 0.679025 -0.463359
C31   C     C_3   0.030588 0.615668 0.768918 -0.863114
H17   H     H_    0.001172 0.519613 0.795198 0.250664
H18   H     H_    0.148728 0.668196 0.766186 0.266063
H19   H     H_    0.970082 0.673793 0.813606 0.251048
H20   H     H_    0.003781 0.696001 0.661977 0.223471
H21   H     H_    0.874125 0.533250 0.684594 0.248212
H22   H     H_    0.079440 0.446234 0.639116 0.222707
H23   H     H_    0.197596 0.612106 0.607634 0.240790
C32   C     C_3   0.843340 0.348754 0.444971 -0.315431
C33   C     C_3   0.927756 0.275653 0.376225 -0.486538
C34   C     C_3   0.823637 0.154667 0.334927 -0.827717
H24   H     H_    0.757392 0.085788 0.384842 0.266871
H25   H     H_    0.750381 0.182354 0.303051 0.253790
H26   H     H_    0.886728 0.104370 0.285080 0.248310
H27   H     H_    0.992397 0.339221 0.322998 0.217658
H28   H     H_    0.997549 0.240797 0.406173 0.251411
H29   H     H_    0.781066 0.278299 0.494017 0.210656
H30   H     H_    0.775387 0.370536 0.407008 0.260556

loop_
_geom_bond_atom_site_label_1
_geom_bond_atom_site_label_2
_ccdc_geom_bond_type
C14   O8    A    
Cu2   O3    S    
C11   N1    D    
C18   C26   A    
C8    H13   S    
C29   H23   S    
C12   N2    D    
Cu1   O1    S    
C15   C19   A    
Cu2   O6    S    
C9    H12   S    
C3    C28   A    
C24   C26   A    
C19   H6    S    
C33   H28   S    
C34   H25   S    
C2    O2    A    
C20   H5    S    
C4    H10   S    
C33   C34   S    
C14   C16   S    
C23   C27   A    
C9    C10   S    
C33   H27   S    
Cu2   O2    S    
C3    H9    S    
C31   H17   S    
C10   H11   S    
C11   C32   S    
C13   O5    A    
C30   H21   S    
C31   H18   S    
Cu1   N2    S    
C32   C33   S    
Cu2   N1    S    
C4    C6    A    
C21   H4    S    
C30   C31   S    
C34   H26   S    
Cu1   Cu2   S    
C16   C20   A    
C17   H7    S    
C7    H14   S    
C1    O3    A    
C2    O4    A    
C5    C25   A    
C12   C29   S    
C14   O6    A    
C21   C23   A    
C22   C24   A    
C32   H29   S    
C4    C27   A    
H15   N2    S    
C30   H20   S    
C7    C9    D    
C22   H3    S    
H16   N1    S    
C31   H19   S    
C16   C22   A    
C1    C7    S    
C2    C8    S    
C24   C28   A    
C29   H22   S    
C3    C5    A    
C11   C12   S    
Cu1   O8    S    
Cu2   O7    S    
C17   C25   A    
C13   C15   S    
C18   H8    S    
C29   C30   S    
C6    C26   A    
Cu1   O5    S    
C17   C19   A    
C18   C20   A    
C23   C25   A    
C34   H24   S    
C15   C21   A    
C8    C10   D    
C6    H2    S    
C27   C28   A    
C32   H30   S    
C13   O7    A    
C1    O1    A    
C5    H1    S    
Cu1   O4    S    
