data_mof_unit_14152.cif
_audit_creation_date              2012-12-11T16:26:21-0500
_audit_creation_method            fapswitch 2.2
_symmetry_space_group_name_H-M    P1
_symmetry_Int_Tables_number       1
_space_group_crystal_system       triclinic
_cell_length_a                    13.998899
_cell_length_b                    13.992909
_cell_length_c                    31.960844
_cell_angle_alpha                 89.975966
_cell_angle_beta                  90.032979
_cell_angle_gamma                 119.990427
_cell_volume                      5422.41271288

loop_
_atom_site_label
_atom_site_type_symbol
_atom_type_description
_atom_site_fract_x
_atom_site_fract_y
_atom_site_fract_z
_atom_type_partial_charge
C1    C     C_R   0.568018 0.443886 0.810674 0.561572
C2    C     C_R   0.876122 0.432225 0.689383 0.559875
C3    C     C_R   0.556088 0.123879 0.810625 0.561187
C4    C     C_R   0.568088 0.443827 0.689262 0.561348
C5    C     C_R   0.876103 0.432182 0.810630 0.559888
C6    C     C_R   0.556027 0.123872 0.689385 0.561774
C7    C     C_R   0.443863 0.567639 0.310601 0.556550
C8    C     C_R   0.432062 0.876096 0.189372 0.561052
C9    C     C_R   0.124222 0.556239 0.310704 0.561975
C10   C     C_R   0.443856 0.567583 0.189428 0.553932
C11   C     C_R   0.432102 0.876045 0.310641 0.560721
C12   C     C_R   0.124087 0.556207 0.189321 0.561655
C13   C     C_1   0.005700 0.519099 0.018419 0.102871
C14   C     C_1   0.515323 0.992518 0.481774 0.072181
C15   C     C_1   0.481627 0.482026 0.019067 0.067178
C16   C     C_1   0.008119 0.519869 0.481850 0.104158
C17   C     C_1   0.516457 0.993598 0.018359 0.072302
C18   C     C_1   0.487873 0.481231 0.480161 0.095690
C19   C     C_1   0.518613 0.999192 0.519192 0.100841
C20   C     C_1   0.999099 0.515783 0.981014 0.104433
C21   C     C_1   0.491503 0.478654 0.517585 0.098331
C22   C     C_1   0.519807 0.000138 0.980934 0.101623
C23   C     C_1   0.001350 0.516585 0.519250 0.104714
C24   C     C_1   0.485703 0.478905 0.981671 0.096105
C25   C     C_R   0.930990 0.469966 0.851660 -0.053999
C26   C     C_R   0.538634 0.068728 0.648405 -0.054312
C27   C     C_R   0.531380 0.460646 0.851971 -0.053742
C28   C     C_R   0.931374 0.470288 0.648441 -0.054373
C29   C     C_R   0.538961 0.068860 0.851638 -0.054497
C30   C     C_R   0.532060 0.460251 0.647730 -0.053158
C31   C     C_R   0.468853 0.929527 0.351941 -0.063334
C32   C     C_R   0.070327 0.539782 0.148082 -0.058586
C33   C     C_R   0.460924 0.528243 0.351312 -0.051458
C34   C     C_R   0.468665 0.929815 0.148105 -0.062905
C35   C     C_R   0.071130 0.540051 0.352051 -0.055715
C36   C     C_R   0.460272 0.528669 0.148536 -0.062230
C37   C     C_R   0.936595 0.562356 0.871880 0.363721
C38   C     C_R   0.623559 0.058348 0.628995 0.363784
C39   C     C_R   0.437284 0.374947 0.871706 0.363140
C40   C     C_R   0.936334 0.562233 0.628065 0.363835
C41   C     C_R   0.624148 0.058844 0.871066 0.363849
C42   C     C_R   0.439936 0.373488 0.627416 0.362915
C43   C     C_R   0.564244 0.939988 0.371277 0.392576
C44   C     C_R   0.066324 0.627282 0.127691 0.361754
C45   C     C_R   0.372198 0.439427 0.372345 0.364555
C46   C     C_R   0.565600 0.943171 0.129181 0.392769
C47   C     C_R   0.067924 0.627843 0.372519 0.362488
C48   C     C_R   0.371912 0.437996 0.128152 0.392633
C49   C     C_R   0.965723 0.582568 0.914349 0.101113
C50   C     C_R   0.615034 0.028468 0.586620 0.102409
C51   C     C_R   0.417624 0.382650 0.914314 0.102248
C52   C     C_R   0.966168 0.582704 0.585673 0.100774
C53   C     C_R   0.615944 0.029243 0.913474 0.102375
C54   C     C_R   0.421878 0.381035 0.584603 0.101568
C55   C     C_R   0.583556 0.965238 0.414033 0.105072
C56   C     C_R   0.038779 0.619104 0.085074 0.098559
C57   C     C_R   0.382504 0.418213 0.414549 0.100236
C58   C     C_R   0.585476 0.969039 0.086471 0.103935
C59   C     C_R   0.041221 0.619936 0.415200 0.098331
C60   C     C_R   0.379402 0.418313 0.085662 0.099133
C61   C     C_R   0.988864 0.509482 0.936421 0.006701
C62   C     C_R   0.521292 0.009747 0.563785 0.010139
C63   C     C_R   0.493013 0.476340 0.937065 0.011439
C64   C     C_R   0.990645 0.510312 0.563827 0.006326
C65   C     C_R   0.522247 0.010414 0.936323 0.010018
C66   C     C_R   0.496938 0.475794 0.562254 0.008252
C67   C     C_R   0.507959 0.982764 0.437144 -0.017892
C68   C     C_R   0.015379 0.522815 0.063031 -0.000746
C69   C     C_R   0.482135 0.486481 0.435574 0.010839
C70   C     C_R   0.508575 0.983832 0.062988 -0.018056
C71   C     C_R   0.017709 0.523583 0.437236 0.003059
C72   C     C_R   0.476686 0.488987 0.063613 -0.015875
C73   C     C_R   0.991659 0.423020 0.915664 0.345074
C74   C     C_R   0.433542 0.011789 0.583763 0.344191
C75   C     C_R   0.581655 0.564761 0.916864 0.341244
C76   C     C_R   0.994086 0.424369 0.584763 0.347194
C77   C     C_R   0.434222 0.012006 0.916328 0.345249
C78   C     C_R   0.583303 0.565152 0.582989 0.339466
C79   C     C_R   0.418313 0.981320 0.417213 0.354860
C80   C     C_R   0.011024 0.432921 0.083907 0.365188
C81   C     C_R   0.573033 0.568244 0.413873 0.325687
C82   C     C_R   0.417152 0.979454 0.082530 0.354286
C83   C     C_R   0.012695 0.433466 0.416321 0.357682
C84   C     C_R   0.568029 0.572143 0.084710 0.335646
C85   C     C_R   0.963471 0.403758 0.873553 -0.144735
C86   C     C_R   0.441913 0.040458 0.625796 -0.146098
C87   C     C_R   0.600313 0.557224 0.874590 -0.144520
C88   C     C_R   0.965165 0.404838 0.626801 -0.143746
C89   C     C_R   0.442292 0.040430 0.874265 -0.147010
C90   C     C_R   0.600340 0.557669 0.625444 -0.142161
C91   C     C_R   0.399028 0.955086 0.374956 -0.144594
C92   C     C_R   0.037841 0.441195 0.126155 -0.126508
C93   C     C_R   0.562527 0.588922 0.372009 -0.159034
C94   C     C_R   0.397519 0.952935 0.124744 -0.146849
C95   C     C_R   0.038781 0.441503 0.374011 -0.133119
C96   C     C_R   0.559833 0.591986 0.126865 -0.161367
Cr1   Cr    Cr6+3 0.504240 0.249200 0.750000 1.145768
Cr2   Cr    Cr6+3 0.744960 0.495760 0.750000 1.145696
Cr3   Cr    Cr6+3 0.750800 0.255040 0.750000 1.147198
Cr4   Cr    Cr6+3 0.249200 0.504240 0.250000 1.151195
Cr5   Cr    Cr6+3 0.495760 0.744960 0.250000 1.148083
Cr6   Cr    Cr6+3 0.255040 0.750800 0.250000 1.146890
H1    H     H_    0.039389 0.372377 0.140992 0.218010
H2    H     H_    0.325555 0.948641 0.360953 0.208286
H3    H     H_    0.629668 0.660961 0.141845 0.191449
H4    H     H_    0.039826 0.372505 0.359129 0.213195
H5    H     H_    0.322808 0.944246 0.138422 0.208159
H6    H     H_    0.632423 0.656643 0.356537 0.193080
H7    H     H_    0.374975 0.046894 0.639861 0.205788
H8    H     H_    0.960777 0.332735 0.858839 0.202081
H9    H     H_    0.671321 0.625978 0.640179 0.205541
H10   H     H_    0.375160 0.046562 0.860186 0.204507
H11   H     H_    0.963047 0.334215 0.641653 0.202177
H12   H     H_    0.672848 0.624709 0.860295 0.206057
O1    O     O_R   0.480350 0.140770 0.796330 -0.497876
O2    O     O_R   0.660420 0.519650 0.703670 -0.496028
O3    O     O_R   0.859230 0.339580 0.796330 -0.497816
O4    O     O_R   0.480350 0.140770 0.703670 -0.496810
O5    O     O_R   0.660420 0.519650 0.796330 -0.496534
O6    O     O_R   0.859230 0.339580 0.703670 -0.497771
O7    O     O_R   0.140770 0.480350 0.296330 -0.490220
O8    O     O_R   0.519650 0.660420 0.203670 -0.499118
O9    O     O_R   0.339580 0.859230 0.296330 -0.493871
O10   O     O_R   0.140770 0.480350 0.203670 -0.490612
O11   O     O_R   0.519650 0.660420 0.296330 -0.498755
O12   O     O_R   0.339580 0.859230 0.203670 -0.494805
O13   O     O_R   0.514930 0.348530 0.793250 -0.428047
O14   O     O_R   0.833600 0.485070 0.706750 -0.427526
O15   O     O_R   0.651470 0.166400 0.793250 -0.427173
O16   O     O_R   0.514930 0.348530 0.706750 -0.427648
O17   O     O_R   0.833600 0.485070 0.793250 -0.427725
O18   O     O_R   0.651470 0.166400 0.706750 -0.427245
O19   O     O_R   0.348530 0.514930 0.293250 -0.427182
O20   O     O_R   0.485070 0.833600 0.206750 -0.430089
O21   O     O_R   0.166400 0.651470 0.293250 -0.428718
O22   O     O_R   0.348530 0.514930 0.206750 -0.429434
O23   O     O_R   0.485070 0.833600 0.293250 -0.429304
O24   O     O_R   0.166400 0.651470 0.206750 -0.428678
O25   O     O_3   0.666667 0.333333 0.750000 -0.311109
O26   O     O_3   0.333333 0.666667 0.250000 -0.312231
F1    F     F_    0.909779 0.630455 0.851109 -0.609748
F2    F     F_    0.716200 0.080731 0.650521 -0.607235
F3    F     F_    0.366605 0.282328 0.850261 -0.609055
F4    F     F_    0.908201 0.629612 0.648593 -0.609369
F5    F     F_    0.716753 0.081347 0.849527 -0.607624
F6    F     F_    0.369915 0.279906 0.648499 -0.609494
F7    F     F_    0.636801 0.922089 0.349234 -0.585123
F8    F     F_    0.093236 0.722203 0.148449 -0.610384
F9    F     F_    0.274113 0.376146 0.352727 -0.607669
F10   F     F_    0.639304 0.927802 0.151619 -0.585656
F11   F     F_    0.094826 0.722803 0.351770 -0.609438
F12   F     F_    0.275314 0.372694 0.148374 -0.583957
N1    N     N_2   0.042027 0.710299 0.063828 -0.509864
H13   H     H_    0.096259 0.786358 0.076452 0.326752
C97   C     C_3   0.934838 0.697924 0.055447 -0.223445
H14   H     H_    0.944974 0.769895 0.037151 0.173174
H15   H     H_    0.892252 0.693726 0.085313 0.206757
H16   H     H_    0.883142 0.622180 0.036857 0.188258
N2    N     N_2   0.677531 0.970068 0.433494 -0.459510
H17   H     H_    0.708100 0.022687 0.458785 0.271958
C98   C     C_3   0.666815 0.863531 0.441844 -0.207827
H18   H     H_    0.744402 0.875023 0.455928 0.185344
H19   H     H_    0.651489 0.816010 0.412404 0.229543
H20   H     H_    0.597846 0.815914 0.464008 0.129319
N3    N     N_2   0.286096 0.331035 0.065234 -0.454528
H21   H     H_    0.273967 0.347799 0.034922 0.255043
C99   C     C_3   0.278100 0.224380 0.069353 -0.197147
H22   H     H_    0.349073 0.224826 0.053568 0.171105
H23   H     H_    0.200564 0.160380 0.054514 0.178895
H24   H     H_    0.276636 0.202749 0.102894 0.208812
N4    N     N_2   0.045322 0.711419 0.436497 -0.511620
H25   H     H_    0.100029 0.787364 0.423907 0.327071
C100  C     C_3   0.938509 0.699960 0.444800 -0.220967
H26   H     H_    0.949201 0.772056 0.463135 0.171888
H27   H     H_    0.886269 0.624217 0.463316 0.189731
H28   H     H_    0.896240 0.696356 0.414899 0.211794
N5    N     N_2   0.681502 0.977529 0.067444 -0.459189
H29   H     H_    0.711173 0.030379 0.042189 0.273167
C101  C     C_3   0.675002 0.872787 0.059263 -0.203678
H30   H     H_    0.753845 0.887175 0.045412 0.182500
H31   H     H_    0.606928 0.823372 0.036960 0.135109
H32   H     H_    0.660901 0.825668 0.088746 0.230864
N6    N     N_2   0.290527 0.333286 0.436509 -0.513008
H33   H     H_    0.214619 0.315418 0.424872 0.328944
C102  C     C_3   0.297468 0.235002 0.444141 -0.224624
H34   H     H_    0.225201 0.175540 0.462869 0.177295
H35   H     H_    0.373339 0.255162 0.461998 0.184791
H36   H     H_    0.297556 0.195441 0.414000 0.199884
N7    N     N_2   0.703355 0.023858 0.566407 -0.506809
H37   H     H_    0.780155 0.075669 0.579002 0.325393
C103  C     C_3   0.684013 0.913248 0.559957 -0.243586
H38   H     H_    0.753347 0.916879 0.541797 0.179786
H39   H     H_    0.606640 0.862847 0.542075 0.154154
H40   H     H_    0.678375 0.872986 0.590563 0.205701
N8    N     N_2   0.964225 0.671551 0.935465 -0.510460
H41   H     H_    0.910636 0.694307 0.922890 0.325705
C104  C     C_3   0.072179 0.765467 0.943633 -0.227452
H42   H     H_    0.063325 0.828173 0.961836 0.181476
H43   H     H_    0.114774 0.803133 0.913684 0.200899
H44   H     H_    0.123231 0.740601 0.962235 0.180150
N9    N     N_2   0.332607 0.290729 0.563553 -0.509923
H45   H     H_    0.308645 0.214533 0.576551 0.325585
C105  C     C_3   0.239826 0.306259 0.554860 -0.225758
H46   H     H_    0.176563 0.234584 0.536869 0.181783
H47   H     H_    0.265919 0.381810 0.535861 0.179013
H48   H     H_    0.202393 0.312867 0.584599 0.205904
N10   N     N_2   0.704538 0.025057 0.933698 -0.506186
H49   H     H_    0.781212 0.076835 0.921018 0.325727
C106  C     C_3   0.685471 0.914605 0.940365 -0.243451
H50   H     H_    0.755064 0.918618 0.958500 0.179393
H51   H     H_    0.679582 0.873959 0.909839 0.205058
H52   H     H_    0.608319 0.864331 0.958367 0.154624
N11   N     N_2   0.964132 0.671246 0.564392 -0.511110
H53   H     H_    0.909790 0.693294 0.576714 0.326218
C107  C     C_3   0.071828 0.765811 0.556495 -0.228082
H54   H     H_    0.062645 0.828224 0.538198 0.180181
H55   H     H_    0.123705 0.741668 0.538094 0.180606
H56   H     H_    0.113722 0.803550 0.586548 0.201094
N12   N     N_2   0.325769 0.293754 0.934771 -0.511749
H57   H     H_    0.302366 0.216993 0.922465 0.325325
C108  C     C_3   0.233020 0.310948 0.940688 -0.237094
H58   H     H_    0.168324 0.241737 0.959239 0.186416
H59   H     H_    0.197743 0.314174 0.909903 0.208550
H60   H     H_    0.258557 0.388973 0.957944 0.161415
F13   F     F_    0.987171 0.339348 0.062782 -0.576163
F14   F     F_    0.345670 0.999071 0.439257 -0.614056
F15   F     F_    0.663413 0.637928 0.063899 -0.645522
F16   F     F_    0.988801 0.339851 0.437445 -0.588059
F17   F     F_    0.343248 0.994617 0.060142 -0.613122
F18   F     F_    0.670089 0.632521 0.433939 -0.649671
F19   F     F_    0.342335 0.992501 0.561913 -0.618963
F20   F     F_    0.015030 0.352987 0.936832 -0.620454
F21   F     F_    0.655124 0.657276 0.561582 -0.634568
F22   F     F_    0.343019 0.992524 0.938185 -0.616397
F23   F     F_    0.018880 0.355090 0.563832 -0.617568
F24   F     F_    0.653916 0.655923 0.938649 -0.630278

loop_
_geom_bond_atom_site_label_1
_geom_bond_atom_site_label_2
_ccdc_geom_bond_type
C68   C80   A    
C39   C51   A    
C96   H3    S    
N3    H21   S    
C82   C94   A    
C21   C66   S    
C97   H15   S    
C18   C21   T    
N9    C105  S    
N9    H45   S    
C91   H2    S    
Cr1   O13   S    
C35   C47   A    
C29   C89   A    
C98   H18   S    
Cr2   O5    S    
C99   H23   S    
C32   C92   A    
Cr5   O20   S    
C78   C90   A    
C15   C72   S    
N4    C100  S    
C89   H10   S    
C45   C57   A    
C54   C66   A    
C37   F1    S    
Cr3   O18   S    
C40   C52   A    
C10   O22   A    
Cr1   O16   S    
C7    O19   A    
C108  H60   S    
C107  H55   S    
C93   H6    S    
C84   C96   A    
C9    C35   S    
C102  H35   S    
N12   C108  S    
C60   C72   A    
C19   C62   S    
N8    C104  S    
C88   H11   S    
C106  H52   S    
C33   C45   A    
C43   C55   A    
C104  H43   S    
Cr4   O7    S    
Cr6   O24   S    
C20   C61   S    
C3    C29   S    
C50   N7    S    
C44   C56   A    
Cr6   O21   S    
C77   F22   S    
C87   H12   S    
Cr4   O26   S    
C92   H1    S    
C25   C37   A    
Cr3   O6    S    
C27   C39   A    
N5    C101  S    
Cr2   O17   S    
C28   C88   A    
Cr1   O4    S    
C14   C67   S    
N2    C98   S    
Cr6   O12   S    
C34   C46   A    
C7    C33   S    
C80   F13   S    
N1    C97   S    
C53   C65   A    
C76   C88   A    
C79   F14   S    
C79   C91   A    
C30   C90   A    
C101  H32   S    
C18   C69   S    
Cr2   O14   S    
C11   C31   S    
C17   C70   S    
N3    C99   S    
C44   F8    S    
C12   C32   S    
C97   H16   S    
C38   F2    S    
Cr3   O25   S    
C104  H42   S    
C16   C71   S    
C90   H9    S    
C59   N4    S    
C98   H19   S    
Cr5   O26   S    
C48   C60   A    
C99   H24   S    
C71   C83   A    
C83   F16   S    
C100  H27   S    
C32   C44   A    
C66   C78   A    
C105  H48   S    
C11   O9    A    
C94   H5    S    
C76   F23   S    
C49   C61   A    
Cr3   O15   S    
C28   C40   A    
C8    O20   A    
N10   H49   S    
C1    O13   A    
C86   H7    S    
C67   C79   A    
C6    O18   A    
C85   H8    S    
C52   C64   A    
C107  H56   S    
C99   H22   S    
C3    O1    A    
Cr5   O23   S    
C58   C70   A    
C102  H36   S    
C4    O16   A    
N8    H41   S    
C49   N8    S    
C61   C73   A    
C100  H26   S    
C7    O11   A    
C103  H38   S    
C5    O3    A    
Cr4   O10   S    
C80   C92   A    
C104  H44   S    
C27   C87   A    
C107  H54   S    
C103  H39   S    
C22   C65   S    
C1    O5    A    
C108  H58   S    
C95   H4    S    
Cr3   O3    S    
C65   C77   A    
C105  H47   S    
C36   C96   A    
Cr2   O2    S    
N2    H17   S    
C12   O10   A    
N11   H53   S    
C26   C86   A    
C62   C74   A    
C83   C95   A    
C25   C85   A    
C106  H50   S    
C64   C76   A    
C51   C63   A    
C75   F24   S    
C8    C34   S    
C74   C86   A    
C81   C93   A    
N4    H25   S    
C41   C53   A    
C37   C49   A    
C72   C84   A    
C31   C43   A    
C69   C81   A    
C5    C25   S    
C9    O21   A    
C75   C87   A    
C23   C64   S    
C46   F10   S    
C82   F17   S    
C47   F11   S    
Cr6   O26   S    
C24   C63   S    
C31   C91   A    
C81   F18   S    
C40   F4    S    
C50   C62   A    
C12   O24   A    
Cr1   O1    S    
Cr6   O9    S    
C42   F6    S    
C57   N6    S    
C98   H20   S    
Cr4   O19   S    
Cr5   O8    S    
N10   C106  S    
C73   C85   A    
C100  H28   S    
C8    O12   A    
N12   H57   S    
C15   C24   T    
C2    O6    A    
C13   C20   T    
C29   C41   A    
C3    O15   A    
C77   C89   A    
C14   C19   T    
C4    O2    A    
C26   C38   A    
C34   C94   A    
C39   F3    S    
C56   N1    S    
C10   O8    A    
C33   C93   A    
C55   C67   A    
C38   C50   A    
C35   C95   A    
C16   C23   T    
C54   N9    S    
C17   C22   T    
Cr2   O25   S    
C74   F19   S    
C51   N12   S    
C48   F12   S    
C11   O23   A    
N11   C107  S    
C108  H59   S    
C9    O7    A    
C56   C68   A    
C42   C54   A    
C102  H34   S    
C6    C26   S    
C63   C75   A    
C78   F21   S    
C55   N2    S    
C52   N11   S    
C53   N10   S    
C10   C36   S    
C36   C48   A    
C58   N5    S    
C45   F9    S    
N7    H37   S    
C70   C82   A    
N6    H33   S    
C4    C30   S    
C103  H40   S    
C43   F7    S    
C47   C59   A    
C101  H30   S    
C5    O17   A    
C41   F5    S    
N6    C102  S    
N5    H29   S    
C59   C71   A    
C97   H14   S    
C1    C27   S    
C106  H51   S    
C30   C42   A    
C2    C28   S    
C105  H46   S    
C57   C69   A    
N1    H13   S    
C84   F15   S    
C60   N3    S    
Cr5   O11   S    
Cr1   O25   S    
C73   F20   S    
C46   C58   A    
Cr4   O22   S    
C6    O4    A    
N7    C103  S    
C101  H31   S    
C13   C68   S    
C2    O14   A    
