data_mof_unit_49472.cif
_audit_creation_date              2012-12-11T14:19:34-0500
_audit_creation_method            fapswitch 2.2
_symmetry_space_group_name_H-M    P1
_symmetry_Int_Tables_number       1
_space_group_crystal_system       triclinic
_cell_length_a                    19.471789
_cell_length_b                    7.238366
_cell_length_c                    17.761217
_cell_angle_alpha                 89.999339
_cell_angle_beta                  107.630726
_cell_angle_gamma                 89.996178
_cell_volume                      2385.75007406

loop_
_atom_site_label
_atom_site_type_symbol
_atom_type_description
_atom_site_fract_x
_atom_site_fract_y
_atom_site_fract_z
_atom_type_partial_charge
O1    O     O_R   0.414820 0.494320 0.416790 -0.537973
O2    O     O_R   0.585180 0.994320 0.583210 -0.537927
O3    O     O_R   0.560270 0.819500 0.430140 -0.542736
O4    O     O_R   0.439730 0.319500 0.569860 -0.542756
C1    C     C_R   0.581352 0.655518 0.415158 0.711258
C2    C     C_R   0.418648 0.155523 0.584842 0.711220
O5    O     O_R   0.413840 0.823740 0.407440 -0.533854
O6    O     O_R   0.586160 0.323740 0.592560 -0.533843
O7    O     O_R   0.437710 0.998590 0.560350 -0.537740
O8    O     O_R   0.562290 0.498590 0.439650 -0.537748
C3    C     C_R   0.386908 0.655690 0.386294 0.692887
C4    C     C_R   0.613095 0.155679 0.613707 0.692896
O9    O     O_3   0.508000 0.662290 0.550200 -0.376062
O10   O     O_3   0.492000 0.162290 0.449800 -0.376117
V1    V     V_3+5 0.498520 0.935380 0.490690 1.507847
V2    V     V_3+5 0.501480 0.435380 0.509310 1.507810
C5    C     C_2   0.782723 0.265572 0.792279 -0.120816
C6    C     C_2   0.217366 0.765496 0.207611 -0.120701
C7    C     C_2   0.816712 0.109543 0.824324 -0.253245
C8    C     C_2   0.183282 0.609486 0.175698 -0.253301
H1    H     H_    0.806913 0.398298 0.813712 0.157747
H2    H     H_    0.193266 0.898247 0.186054 0.157697
H3    H     H_    0.790438 0.977024 0.807689 0.142742
H4    H     H_    0.209481 0.476910 0.192453 0.142694
C9    C     C_2   0.708711 0.267291 0.734785 -0.072290
C10   C     C_2   0.291380 0.767078 0.265107 -0.072369
C11   C     C_2   0.685629 0.146085 0.673242 -0.227246
C12   C     C_2   0.314373 0.646154 0.326768 -0.227250
C13   C     C_R   0.319376 0.290356 0.628989 -0.083117
C14   C     C_R   0.680628 0.790329 0.371017 -0.083066
C15   C     C_R   0.368941 0.148034 0.633451 -0.094004
C16   C     C_R   0.631061 0.648022 0.366551 -0.093984
C17   C     C_R   0.370711 0.999063 0.683906 -0.146177
C18   C     C_R   0.629293 0.499065 0.316091 -0.146173
C19   C     C_R   0.324365 0.991777 0.731540 0.122936
C20   C     C_R   0.675640 0.491781 0.268457 0.122936
C21   C     C_R   0.273695 0.135832 0.726279 0.025073
C22   C     C_R   0.726303 0.635834 0.273716 0.025074
C23   C     C_R   0.270884 0.285430 0.673925 -0.039513
C24   C     C_R   0.729117 0.785412 0.326078 -0.039488
C25   C     C_R   0.327163 0.842017 0.783158 -0.072113
C26   C     C_R   0.672854 0.342020 0.216845 -0.072121
C27   C     C_R   0.281546 0.837903 0.831421 -0.082035
C28   C     C_R   0.718463 0.337927 0.168572 -0.082043
C29   C     C_R   0.232652 0.986410 0.829495 0.086527
C30   C     C_R   0.767341 0.486444 0.170488 0.086487
C31   C     C_R   0.226052 0.130376 0.773014 0.021117
C32   C     C_R   0.773941 0.630390 0.226975 0.021088
C33   C     C_R   0.172055 0.269252 0.763275 -0.061430
C34   C     C_R   0.827941 0.769239 0.236722 -0.061428
C35   C     C_R   0.172296 0.422834 0.712957 0.321999
C36   C     C_R   0.827707 0.922798 0.287049 0.322025
C37   C     C_R   0.220719 0.428838 0.668259 0.337888
C38   C     C_R   0.779283 0.928805 0.331749 0.337849
C39   C     C_R   0.190128 0.997181 0.882012 -0.060028
C40   C     C_R   0.809857 0.497232 0.117964 -0.060064
C41   C     C_R   0.131147 0.119824 0.866355 -0.146366
C42   C     C_R   0.868843 0.619839 0.133632 -0.146371
C43   C     C_R   0.119855 0.248323 0.804117 -0.054034
C44   C     C_R   0.880145 0.748282 0.195887 -0.053996
H5    H     H_    0.318564 0.403466 0.588955 0.174549
H6    H     H_    0.681440 0.903422 0.411059 0.174528
H7    H     H_    0.409654 0.890544 0.686612 0.135486
H8    H     H_    0.590350 0.390557 0.313379 0.135474
O11   O     O_R   0.937810 0.773680 0.060480 -0.540482
O12   O     O_R   0.062190 0.273680 0.939520 -0.540488
O13   O     O_R   0.086190 0.439740 0.092580 -0.542896
O14   O     O_R   0.913810 0.939740 0.907420 -0.542872
C45   C     C_R   0.113054 0.607726 0.113349 0.759462
C46   C     C_R   0.886947 0.107738 0.886654 0.759427
O15   O     O_R   0.939760 0.444210 0.069890 -0.529802
O16   O     O_R   0.060240 0.944210 0.930110 -0.529796
O17   O     O_R   0.914790 0.269640 0.916760 -0.535598
O18   O     O_R   0.085210 0.769640 0.083240 -0.535587
C47   C     C_R   0.919043 0.612405 0.084604 0.676994
C48   C     C_R   0.080950 0.112401 0.915388 0.676966
O19   O     O_3   0.992050 0.601530 0.949880 -0.377034
O20   O     O_3   0.007950 0.101530 0.050120 -0.377047
V3    V     V_3+5 0.001480 0.328340 0.009300 1.520226
V4    V     V_3+5 0.998520 0.828340 0.990700 1.520272
C49   C     C_1   0.050545 0.340877 0.777941 0.447320
N1    N     N_1   0.994891 0.413061 0.757424 -0.271091
C50   C     C_1   0.949483 0.840662 0.222115 0.447309
N2    N     N_1   0.005163 0.912684 0.242681 -0.271077
Cl1   Cl    Cl    0.119739 0.624108 0.711353 -0.545389
Cl2   Cl    Cl    0.880281 0.124026 0.288668 -0.545365
Cl3   Cl    Cl    0.217838 0.620444 0.604875 -0.553133
Cl4   Cl    Cl    0.782169 0.120380 0.395146 -0.553185
C51   C     C_1   0.661705 0.411019 0.747554 0.364223
N3    N     N_1   0.624247 0.526016 0.757903 -0.324639
C52   C     C_1   0.338508 0.910306 0.252197 0.363953
N4    N     N_1   0.376069 0.024894 0.241736 -0.324493
C53   C     C_1   0.734092 0.010016 0.657204 0.356218
N5    N     N_1   0.772546 0.901375 0.644024 -0.293846
C54   C     C_1   0.265820 0.510563 0.342944 0.355995
N6    N     N_1   0.227290 0.402308 0.356235 -0.293536
C55   C     C_1   0.376671 0.689346 0.786511 0.314190
N7    N     N_1   0.415963 0.567788 0.789177 -0.323065
C56   C     C_1   0.623379 0.189307 0.213520 0.314210
N8    N     N_1   0.584114 0.067712 0.210878 -0.322985
C57   C     C_1   0.281394 0.670436 0.876607 0.347836
N9    N     N_1   0.281540 0.536105 0.912048 -0.326491
C58   C     C_1   0.718636 0.170465 0.123393 0.347834
N10   N     N_1   0.718511 0.036141 0.087957 -0.326515
C59   C     C_1   0.210320 0.898246 0.956654 0.322519
N11   N     N_1   0.226320 0.820715 0.016466 -0.342710
C60   C     C_1   0.789652 0.398357 0.043311 0.322510
N12   N     N_1   0.773643 0.320876 0.983489 -0.342647

loop_
_geom_bond_atom_site_label_1
_geom_bond_atom_site_label_2
_ccdc_geom_bond_type
O14   V4    S    
O15   C47   A    
C53   N5    T    
C20   C26   A    
C54   N6    T    
O1    C3    A    
O16   C48   A    
O2    C4    A    
C35   Cl1   S    
C2    O7    A    
O15   V3    S    
C49   N1    T    
C31   C33   A    
O5    C3    A    
O12   V3    S    
C57   N9    T    
C39   C59   S    
C12   C54   S    
C41   C48   S    
C19   C21   A    
C44   C50   S    
C41   C43   A    
C42   C44   A    
C17   C19   A    
C50   N2    T    
C28   C30   A    
C33   C35   A    
C6    C10   S    
C34   C36   A    
C60   N12   T    
C15   C17   A    
C21   C31   A    
C22   C32   A    
C17   H7    S    
C1    C16   S    
C32   C34   A    
C2    C15   S    
O6    V2    S    
O11   V4    S    
O18   V4    S    
C13   C15   A    
C25   C27   A    
C26   C28   A    
C36   Cl2   S    
C28   C58   S    
C36   C38   A    
C42   C47   S    
C55   N7    T    
C13   H5    S    
C29   C31   A    
C21   C23   A    
C30   C32   A    
C4    C11   S    
C14   C16   A    
C8    H4    S    
O13   V3    S    
O4    C2    A    
C52   N4    T    
O20   V3    S    
O5    V1    S    
C10   C52   S    
C5    H1    S    
O13   C45   A    
C16   C18   A    
O4    V2    S    
C7    H3    S    
C27   C57   S    
C40   C60   S    
C56   N8    T    
O6    C4    A    
O12   C48   A    
C13   C23   A    
C46   O17   A    
C18   H8    S    
O17   V3    S    
C14   C24   A    
C45   O18   A    
C37   Cl3   S    
O1    V2    S    
O2    V1    S    
C27   C29   A    
C24   C38   A    
C39   C41   A    
C25   C55   S    
C8    C45   S    
C11   C53   S    
O3    V1    S    
O19   V4    S    
C6    H2    S    
C9    C51   S    
C43   C49   S    
O3    C1    A    
C33   C43   A    
C9    C11   D    
C59   N11   T    
C10   C12   D    
O11   C47   A    
C5    C9    S    
C38   Cl4   S    
C14   H6    S    
O7    V1    S    
C34   C44   A    
C1    O8    A    
O16   V4    S    
O8    V2    S    
C26   C56   S    
C22   C24   A    
C23   C37   A    
C3    C12   S    
C20   C22   A    
C5    C7    D    
C18   C20   A    
C40   C42   A    
C6    C8    D    
C19   C25   A    
C29   C39   A    
O14   C46   A    
O9    V2    S    
C30   C40   A    
C58   N10   T    
O10   V1    S    
C7    C46   S    
C35   C37   A    
C51   N3    T    
