data_mof_unit_20497.cif
_audit_creation_date              2012-12-10T17:24:56-0500
_audit_creation_method            fapswitch 2.2
_symmetry_space_group_name_H-M    P1
_symmetry_Int_Tables_number       1
_space_group_crystal_system       triclinic
_cell_length_a                    10.096433
_cell_length_b                    10.478468
_cell_length_c                    19.240913
_cell_angle_alpha                 90.30475
_cell_angle_beta                  81.680622
_cell_angle_gamma                 93.930613
_cell_volume                      2009.41496499

loop_
_atom_site_label
_atom_site_type_symbol
_atom_type_description
_atom_site_fract_x
_atom_site_fract_y
_atom_site_fract_z
_atom_type_partial_charge
C1    C     C_R   0.553556 0.734742 0.491320 0.928265
C2    C     C_R   0.500984 0.504770 0.365423 0.887445
C3    C     C_R   0.380908 0.521222 0.759835 0.165737
C4    C     C_R   0.622365 0.550803 0.242801 0.171807
C5    C     C_R   0.391906 0.530771 0.830895 -0.226607
C6    C     C_R   0.615097 0.553096 0.171170 -0.246903
C7    C     C_R   0.513118 0.515646 0.855334 0.014803
C8    C     C_R   0.493576 0.526400 0.146213 0.009345
C9    C     C_R   0.628469 0.490024 0.808428 0.017842
C10   C     C_R   0.374710 0.496518 0.192310 -0.005557
C11   C     C_R   0.620131 0.482814 0.736851 -0.292491
C12   C     C_R   0.445820 0.265178 0.501461 0.941058
C13   C     C_R   0.380945 0.489315 0.263797 -0.291319
C14   C     C_R   0.498597 0.500114 0.711444 -0.087728
C15   C     C_R   0.502938 0.515746 0.289763 -0.056816
C16   C     C_R   0.496720 0.522820 0.071215 0.301382
C17   C     C_R   0.512295 0.520944 0.930809 0.287799
C18   C     C_3   0.241010 0.531027 0.740388 -0.383821
C19   C     C_3   0.178343 0.399880 0.722801 -0.803183
C20   C     C_3   0.758680 0.586334 0.265174 -0.393776
C21   C     C_3   0.762712 0.716323 0.301266 -0.840523
C22   C     C_R   0.757892 0.471093 0.833252 0.124491
C23   C     C_2   0.576340 0.870457 0.475005 -0.435960
C24   C     C_R   0.809838 0.349978 0.828501 -0.143726
C25   C     C_R   0.923679 0.327797 0.859088 -0.136725
C26   C     C_R   0.987500 0.426701 0.893573 -0.106277
C27   C     C_R   0.938034 0.548254 0.897165 -0.151851
C28   C     C_R   0.823553 0.570612 0.867152 -0.140794
C29   C     C_R   0.244812 0.466954 0.166828 0.123944
C30   C     C_R   0.189780 0.340265 0.167072 -0.159917
C31   C     C_R   0.068958 0.311857 0.140896 -0.146573
C32   C     C_R   0.002466 0.409662 0.114568 -0.136152
C33   C     C_R   0.055852 0.536192 0.115163 -0.156508
C34   C     C_2   0.420559 0.128999 0.491371 -0.427388
C35   C     C_R   0.176066 0.565084 0.141758 -0.127260
C36   C     C_R   0.575757 0.134633 0.377865 0.178986
C37   C     C_R   0.716260 0.148865 0.371246 -0.109729
C38   C     C_R   0.790679 0.202393 0.310110 -0.175613
C39   C     C_R   0.725365 0.238913 0.254844 -0.113575
C40   C     C_R   0.585678 0.223134 0.260797 -0.138940
C41   C     C_R   0.510757 0.172508 0.322419 -0.194727
C42   C     C_R   0.389963 0.863738 0.401062 0.167047
C43   C     C_R   0.257256 0.836033 0.433407 -0.080319
C44   C     C_R   0.161035 0.781642 0.394545 -0.148762
C45   C     C_2   0.490471 0.930055 0.440355 -0.006294
C46   C     C_R   0.195784 0.757880 0.322903 -0.123598
C47   C     C_R   0.326532 0.789266 0.289983 -0.119367
C48   C     C_R   0.423454 0.841527 0.328899 -0.192223
C49   C     C_2   0.496602 0.068535 0.439718 -0.002299
C50   C     C_2   0.926805 0.510901 0.505967 -0.153407
C51   C     C_2   0.073403 0.489697 0.493661 -0.129385
C52   C     C_R   0.499549 0.498953 0.634978 0.869225
H1    H     H_    0.303373 0.546075 0.868395 0.144058
H2    H     H_    0.881448 0.384239 0.434685 0.158668
H3    H     H_    0.075175 0.409965 0.710876 0.243074
H4    H     H_    0.237237 0.355729 0.676967 0.267245
H5    H     H_    0.173027 0.334190 0.768332 0.243007
H6    H     H_    0.172984 0.569380 0.785038 0.194533
H7    H     H_    0.240296 0.601927 0.697955 0.215285
H8    H     H_    0.682892 0.719258 0.347041 0.263764
H9    H     H_    0.861282 0.735632 0.319774 0.240492
H10   H     H_    0.749632 0.792777 0.263583 0.245138
H11   H     H_    0.789480 0.510797 0.298322 0.235245
H12   H     H_    0.704862 0.576610 0.133976 0.139425
H13   H     H_    0.838364 0.592804 0.218830 0.194695
H14   H     H_    0.759812 0.271966 0.803085 0.127716
H15   H     H_    0.962229 0.233760 0.856252 0.125535
H16   H     H_    0.075574 0.409280 0.917235 0.133745
H17   H     H_    0.987681 0.624785 0.923783 0.127550
H18   H     H_    0.784316 0.664415 0.871601 0.123541
H19   H     H_    0.241179 0.263686 0.186742 0.122987
H20   H     H_    0.027120 0.213968 0.140773 0.129628
H21   H     H_    0.909329 0.387557 0.093973 0.136205
H22   H     H_    0.003881 0.611899 0.095153 0.126502
H23   H     H_    0.709960 0.465131 0.700902 0.169544
H24   H     H_    0.216269 0.663544 0.142162 0.124869
H25   H     H_    0.767805 0.118409 0.413237 0.114867
H26   H     H_    0.898970 0.214383 0.305265 0.125394
H27   H     H_    0.782719 0.279471 0.207389 0.131893
H28   H     H_    0.535418 0.250683 0.217740 0.146852
H29   H     H_    0.402532 0.159995 0.326336 0.129357
H30   H     H_    0.228642 0.856330 0.488577 0.110931
H31   H     H_    0.059270 0.759005 0.419813 0.130395
H32   H     H_    0.121259 0.716238 0.292760 0.127735
H33   H     H_    0.352955 0.773095 0.234266 0.141121
H34   H     H_    0.289791 0.462504 0.299264 0.167848
H35   H     H_    0.523658 0.867407 0.302515 0.141784
H36   H     H_    0.349569 0.075542 0.530245 0.138239
H37   H     H_    0.657015 0.924718 0.496088 0.144482
H38   H     H_    0.110773 0.421068 0.454443 0.160957
H39   H     H_    0.889614 0.580060 0.544912 0.162397
H40   H     H_    0.118494 0.615608 0.565387 0.151442
N1    N     N_R   0.576265 0.434801 0.963579 -0.156416
N2    N     N_R   0.432929 0.609105 0.038712 -0.180198
N3    N     N_R   0.569522 0.436437 0.032889 -0.179118
N4    N     N_R   0.440043 0.607720 0.969390 -0.186884
N5    N     N_2   0.842710 0.448880 0.471430 -0.189363
N6    N     N_2   0.157290 0.551120 0.528570 -0.190400
O1    O     O_R   0.431050 0.692470 0.505750 -0.595900
O2    O     O_R   0.568950 0.307530 0.494250 -0.590061
O3    O     O_R   0.651120 0.659650 0.487410 -0.608116
O4    O     O_R   0.348880 0.340350 0.512590 -0.609416
O5    O     O_R   0.389930 0.516430 0.611030 -0.611387
O6    O     O_R   0.610070 0.483570 0.388970 -0.604915
O7    O     O_R   0.610000 0.483610 0.592700 -0.613443
O8    O     O_R   0.390000 0.516390 0.407300 -0.609875
Zn1   Zn    Zn3+2 0.353060 0.521920 0.512240 0.929597
Zn2   Zn    Zn3+2 0.646940 0.478080 0.487760 0.934666

loop_
_geom_bond_atom_site_label_1
_geom_bond_atom_site_label_2
_ccdc_geom_bond_type
C19   H4    S    
C52   O5    A    
C23   C45   D    
C25   H15   S    
O6    Zn2   S    
C44   H31   S    
C1    O1    A    
C30   H19   S    
H40   N6    S    
C19   H5    S    
C26   C27   A    
C29   C30   A    
C47   H33   S    
C5    H1    S    
C36   C37   A    
C51   H38   S    
C30   C31   A    
C11   C14   A    
C9    C22   S    
O8    Zn1   S    
C3    C18   S    
C18   C19   S    
C6    H12   S    
O3    Zn2   S    
N5    Zn2   S    
C18   H6    S    
C14   C52   S    
C47   C48   A    
C7    C17   S    
C13   H34   S    
C34   H36   S    
C23   H37   S    
H2    N5    S    
C45   C49   S    
C21   H9    S    
C27   H17   S    
C24   H14   S    
C51   N6    D    
N1    N3    A    
C22   C28   A    
C36   C41   A    
C44   C46   A    
O7    Zn2   S    
C35   H24   S    
O2    Zn2   S    
C20   H13   S    
C24   C25   A    
C21   H8    S    
C4    C6    A    
C32   H21   S    
C5    C7    A    
C6    C8    A    
C38   H26   S    
C25   C26   A    
C37   H25   S    
C2    O8    A    
N6    Zn1   S    
C42   C45   S    
C39   H27   S    
C43   C44   A    
C12   O4    A    
C37   C38   A    
C18   H7    S    
C31   C32   A    
C2    O6    A    
C41   H29   S    
C40   H28   S    
C50   C51   S    
C48   H35   S    
O4    Zn1   S    
C17   N4    A    
C42   C48   A    
N2    N4    A    
C2    C15   S    
C9    C11   A    
C21   H10   S    
C3    C14   A    
C46   H32   S    
C8    C10   A    
C31   H20   S    
C52   O7    A    
C1    C23   S    
C13   C15   A    
C22   C24   A    
C17   N1    A    
C42   C43   A    
C12   C34   S    
C1    O3    A    
C39   C40   A    
C19   H3    S    
C7    C9    A    
C46   C47   A    
C40   C41   A    
C34   C49   D    
C50   N5    D    
C28   H18   S    
C3    C5    A    
C10   C13   A    
O1    Zn1   S    
C29   C35   A    
C16   N2    A    
C26   H16   S    
C32   C33   A    
C4    C15   A    
C11   H23   S    
C16   N3    A    
C10   C29   S    
C38   C39   A    
C20   H11   S    
C33   C35   A    
C12   O2    A    
C4    C20   S    
C33   H22   S    
C20   C21   S    
C8    C16   S    
C27   C28   A    
C43   H30   S    
O5    Zn1   S    
C50   H39   S    
C36   C49   S    
