data_mof_unit_12386.cif
_audit_creation_date              2012-12-11T16:17:55-0500
_audit_creation_method            fapswitch 2.2
_symmetry_space_group_name_H-M    P1
_symmetry_Int_Tables_number       1
_space_group_crystal_system       triclinic
_cell_length_a                    13.995501
_cell_length_b                    14.032079
_cell_length_c                    30.047974
_cell_angle_alpha                 97.297139
_cell_angle_beta                  96.905476
_cell_angle_gamma                 61.379155
_cell_volume                      5126.03025477

loop_
_atom_site_label
_atom_site_type_symbol
_atom_type_description
_atom_site_fract_x
_atom_site_fract_y
_atom_site_fract_z
_atom_type_partial_charge
C1    C     C_R   0.384456 0.714458 0.442974 0.551346
C2    C     C_R   0.403117 0.259355 0.221845 0.118212
C3    C     C_R   0.409406 0.260514 0.268849 0.106639
C4    C     C_R   0.324596 0.343334 0.293451 0.024200
C5    C     C_R   0.309720 0.338007 0.199356 0.020248
C6    C     C_1   0.299742 0.324879 0.151025 -0.006456
C7    C     C_1   0.342046 0.352010 0.341645 -0.012192
C8    C     C_1   0.290169 0.305298 0.111146 0.033356
C9    C     C_R   0.783753 0.358872 0.404059 0.011385
C10   C     C_R   0.797405 0.260638 0.379104 -0.010412
C11   C     C_R   0.812880 0.247063 0.332559 0.003468
C12   C     C_R   0.398568 0.380728 0.426609 0.562948
C13   C     C_R   0.826449 0.325808 0.313104 0.029868
C14   C     C_R   0.836208 0.410931 0.340201 0.009222
C15   C     C_R   0.820570 0.423667 0.386524 0.098178
C16   C     C_R   0.826920 0.406296 0.158498 -0.008684
C17   C     C_R   0.842178 0.399995 0.112330 0.091815
C18   C     C_R   0.872079 0.212433 0.103770 -0.031692
C19   C     C_R   0.859112 0.217794 0.149886 0.108343
C20   C     C_R   0.841333 0.312719 0.177329 0.026986
C21   C     C_1   0.836281 0.314755 0.225073 0.016685
C22   C     C_1   0.832419 0.318449 0.265041 -0.004137
C23   C     C_R   0.715072 0.402945 0.443627 0.552845
C24   C     C_R   0.880130 0.298013 0.086632 -0.000562
C25   C     C_R   0.359637 0.782852 0.404324 0.011274
C26   C     C_R   0.442273 0.799336 0.389017 0.084729
C27   C     C_R   0.436250 0.820995 0.343884 -0.006411
C28   C     C_R   0.345315 0.830749 0.314802 0.035358
C29   C     C_R   0.251960 0.840356 0.332887 0.012611
C30   C     C_R   0.257925 0.820257 0.378502 -0.009341
C31   C     C_R   0.263569 0.817105 0.150374 0.101382
C32   C     C_R   0.246112 0.840710 0.104958 0.090404
C33   C     C_R   0.403045 0.874885 0.113845 0.088502
C34   C     C_R   0.389363 0.712133 0.568174 0.544141
C35   C     C_R   0.420591 0.849940 0.159107 0.096556
C36   C     C_R   0.344937 0.830991 0.178149 -0.002124
C37   C     C_1   0.348701 0.828564 0.226339 0.045283
C38   C     C_1   0.348066 0.829757 0.266585 0.009417
C39   C     C_R   0.306697 0.884396 0.088335 -0.033028
C40   C     C_R   0.373654 0.378695 0.596955 0.013336
C41   C     C_R   0.374706 0.285753 0.610410 0.091214
C42   C     C_R   0.356422 0.284797 0.655502 0.144964
C43   C     C_R   0.340409 0.375651 0.686045 0.023132
C44   C     C_R   0.336050 0.467994 0.671839 -0.165155
C45   C     C_R   0.402425 0.384463 0.552704 0.565185
C46   C     C_R   0.351956 0.469804 0.627663 -0.156835
C47   C     C_R   0.269792 0.435321 0.848655 -0.011106
C48   C     C_R   0.257918 0.408288 0.890760 0.078785
C49   C     C_R   0.364530 0.214155 0.865974 -0.013319
C50   C     C_R   0.392924 0.243425 0.828998 0.113821
C51   C     C_R   0.336318 0.351161 0.818015 0.022287
C52   C     C_1   0.335406 0.368895 0.772258 0.025467
C53   C     C_1   0.335845 0.373903 0.732912 0.034607
C54   C     C_R   0.300138 0.297097 0.898423 0.014843
C55   C     C_1   0.758535 0.378339 0.612947 0.027169
C56   C     C_R   0.712801 0.407991 0.568565 0.545099
C57   C     C_R   0.911972 0.271328 0.715728 0.117556
C58   C     C_R   0.933052 0.255854 0.761889 0.120099
C59   C     C_R   0.737428 0.366244 0.773296 0.019779
C60   C     C_R   0.716882 0.384421 0.726878 0.017032
C61   C     C_R   0.805027 0.337390 0.698630 0.022041
C62   C     C_R   0.846331 0.303711 0.790570 0.030608
C63   C     C_1   0.872539 0.292568 0.838204 -0.001050
C64   C     C_1   0.784410 0.357624 0.651597 -0.000930
C65   C     C_1   0.902611 0.282754 0.877387 0.027763
C66   C     C_1   0.374711 0.759566 0.613422 0.018813
C67   C     C_1   0.363905 0.362374 0.381255 0.020568
C68   C     C_R   0.253561 0.819786 0.717085 0.002595
C69   C     C_R   0.243589 0.834710 0.764156 0.130993
C70   C     C_R   0.419868 0.832478 0.776159 -0.113754
C71   C     C_R   0.430959 0.816879 0.729972 0.106940
C72   C     C_R   0.347942 0.811282 0.700290 0.039224
C73   C     C_R   0.327391 0.841156 0.793309 0.011124
C74   C     C_1   0.314196 0.867657 0.840734 -0.011430
C75   C     C_1   0.363042 0.787731 0.652765 -0.006640
C76   C     C_1   0.295379 0.898866 0.879423 0.020000
C77   C     C_R   0.946309 0.274892 0.047252 0.547026
C78   C     C_R   0.230612 0.423646 0.271262 0.006732
C79   C     C_R   0.275291 0.270625 0.065373 0.560778
C80   C     C_R   0.262854 0.950378 0.048202 0.564944
C81   C     C_R   0.951615 0.269178 0.922271 0.550174
C82   C     C_R   0.276551 0.264590 0.938952 0.560949
C83   C     C_R   0.262269 0.949605 0.923150 0.553661
C84   C     C_R   0.222471 0.420122 0.223662 0.001802
Cr1   Cr    Cr6+3 0.581000 0.584320 0.508140 1.117358
Cr2   Cr    Cr6+3 0.339110 0.576430 0.496080 1.041162
Cr3   Cr    Cr6+3 0.579910 0.339270 0.495810 1.055480
Cr4   Cr    Cr6+3 0.082090 0.079210 0.982490 1.069657
Cr5   Cr    Cr6+3 0.082460 0.324610 0.994920 1.108956
Cr6   Cr    Cr6+3 0.323630 0.087860 0.996130 1.074691
H1    H     H_    0.323918 0.537618 0.695344 0.123246
H2    H     H_    0.352312 0.541423 0.617952 0.137357
H3    H     H_    0.483341 0.838849 0.798779 0.144155
O1    O     O_R   0.688580 0.499770 0.460490 -0.455632
O2    O     O_R   0.348600 0.476260 0.536540 -0.500198
O3    O     O_R   0.494840 0.313840 0.539010 -0.479003
O4    O     O_R   0.672120 0.351750 0.545910 -0.500781
O5    O     O_3   0.500010 0.500010 0.500010 -0.269626
O6    O     O_R   0.167510 0.972920 0.030390 -0.485907
O7    O     O_R   0.990840 0.178580 0.027590 -0.512212
O8    O     O_R   0.972840 0.345510 0.038590 -0.470222
O9    O     O_R   0.181550 0.320660 0.045200 -0.484704
O10   O     O_R   0.346150 0.177650 0.050510 -0.475350
O11   O     O_R   0.314200 0.996600 0.036060 -0.471390
O12   O     O_R   0.480400 0.672610 0.462660 -0.458211
O13   O     O_R   0.168690 0.969990 0.933130 -0.469990
O14   O     O_R   0.991920 0.175870 0.937430 -0.487833
O15   O     O_R   0.974010 0.342590 0.941330 -0.486433
O16   O     O_R   0.182630 0.317940 0.955040 -0.463977
O17   O     O_R   0.347320 0.174720 0.953250 -0.520670
O18   O     O_R   0.315290 0.993890 0.945900 -0.512435
O19   O     O_3   0.162730 0.163890 0.991180 -0.272836
O20   O     O_R   0.315310 0.685650 0.451800 -0.520917
O21   O     O_R   0.346220 0.474990 0.446280 -0.494735
O22   O     O_R   0.492270 0.312460 0.441630 -0.487785
O23   O     O_R   0.669740 0.350480 0.455640 -0.509992
O24   O     O_R   0.691150 0.501150 0.557860 -0.483092
O25   O     O_R   0.482790 0.673890 0.552920 -0.474268
O26   O     O_R   0.317880 0.687030 0.549170 -0.518597
C85   C     C_3   0.139248 0.513882 0.297691 -0.384351
H4    H     H_    0.150837 0.505153 0.334352 0.144144
H5    H     H_    0.132957 0.593756 0.292641 0.140325
H6    H     H_    0.060652 0.514549 0.286124 0.128058
I1    I     I_    0.874012 0.079031 0.179029 -0.327576
C86   C     C_3   0.874046 0.116993 0.073442 -0.316269
H7    H     H_    0.847986 0.137968 0.038101 0.144260
H8    H     H_    0.956878 0.046165 0.075489 0.195693
H9    H     H_    0.814135 0.094186 0.083177 0.179106
C87   C     C_3   0.813303 0.151035 0.302805 -0.352881
H10   H     H_    0.750013 0.181108 0.274601 0.196979
H11   H     H_    0.894461 0.101090 0.288950 0.153131
H12   H     H_    0.795122 0.097215 0.320146 0.159505
I2    I     I_    0.137336 0.797293 0.061231 -0.210744
I3    I     I_    0.168433 0.759136 0.177815 -0.341761
C88   C     C_3   0.145976 0.871213 0.304100 -0.367703
H13   H     H_    0.080736 0.949694 0.317860 0.128390
H14   H     H_    0.150798 0.883690 0.269047 0.177846
H15   H     H_    0.121367 0.806586 0.303264 0.145074
C89   C     C_3   0.155469 0.840903 0.399342 -0.359242
H16   H     H_    0.084208 0.916853 0.388568 0.118104
H17   H     H_    0.138098 0.771387 0.389729 0.150329
H18   H     H_    0.162141 0.855317 0.436465 0.164260
I4    I     I_    0.572296 0.803306 0.434193 -0.261479
I5    I     I_    0.562148 0.838604 0.199301 -0.305209
I6    I     I_    0.529126 0.887009 0.084350 -0.155585
C90   C     C_3   0.120119 0.503464 0.199514 -0.357472
H19   H     H_    0.124822 0.497301 0.162643 0.167273
H20   H     H_    0.049156 0.492918 0.205538 0.129715
H21   H     H_    0.104834 0.586997 0.212146 0.173852
C91   C     C_3   0.528124 0.832270 0.327461 -0.345936
H22   H     H_    0.512677 0.854137 0.292419 0.174420
H23   H     H_    0.538377 0.898788 0.347938 0.186685
H24   H     H_    0.605241 0.754528 0.329899 0.157443
I7    I     I_    0.182063 0.533215 0.943321 -0.271257
C92   C     C_3   0.214161 0.551452 0.835504 -0.348145
H25   H     H_    0.160431 0.611637 0.860721 0.192100
H26   H     H_    0.276807 0.575013 0.829907 0.143602
H27   H     H_    0.162212 0.557901 0.803864 0.158990
I8    I     I_    0.400934 0.150891 0.562429 -0.214509
I9    I     I_    0.525076 0.125639 0.790108 -0.295845
C93   C     C_3   0.393894 0.095621 0.867584 -0.323357
H28   H     H_    0.322794 0.089958 0.877083 0.153770
H29   H     H_    0.412173 0.049211 0.834290 0.164853
H30   H     H_    0.465601 0.055352 0.891562 0.171091
I10   I     I_    0.352384 0.148216 0.677622 -0.164127
I11   I     I_    0.040758 0.195027 0.670851 -0.256570
I12   I     I_    0.535610 0.139331 0.183989 -0.205558
I13   I     I_    0.097414 0.162286 0.789151 -0.302243
C94   C     C_3   0.643722 0.413994 0.803863 -0.373535
H31   H     H_    0.669236 0.391962 0.839036 0.142971
H32   H     H_    0.602294 0.504277 0.804759 0.136654
H33   H     H_    0.584570 0.383523 0.791271 0.151584
C95   C     C_3   0.602308 0.453544 0.706440 -0.382658
H34   H     H_    0.537833 0.487741 0.730530 0.126374
H35   H     H_    0.599158 0.523449 0.691431 0.150681
H36   H     H_    0.580866 0.403486 0.679612 0.145472
C96   C     C_3   0.165968 0.812515 0.684167 -0.355674
H37   H     H_    0.094884 0.821130 0.700086 0.184903
H38   H     H_    0.135256 0.878030 0.660850 0.172542
H39   H     H_    0.200824 0.732362 0.664308 0.121387
I14   I     I_    0.103713 0.848864 0.792830 -0.347100
I15   I     I_    0.575771 0.801318 0.707019 -0.264931
I16   I     I_    0.546753 0.136021 0.303565 -0.360063
I17   I     I_    0.793790 0.546182 0.079923 -0.260395
C97   C     C_3   0.799511 0.509776 0.188778 -0.360488
H40   H     H_    0.864009 0.493108 0.216538 0.112093
H41   H     H_    0.794587 0.577612 0.171961 0.195294
H42   H     H_    0.720002 0.537995 0.203208 0.158665
C98   C     C_3   0.859518 0.488761 0.318542 -0.377812
H43   H     H_    0.794367 0.528333 0.291924 0.130074
H44   H     H_    0.861450 0.555415 0.341821 0.172030
H45   H     H_    0.939291 0.442945 0.303238 0.131379
I18   I     I_    0.870734 0.526085 0.431428 -0.306733
C99   C     C_3   0.803190 0.168150 0.402348 -0.354801
H46   H     H_    0.872517 0.089752 0.390821 0.114836
H47   H     H_    0.821046 0.176488 0.439185 0.150675
H48   H     H_    0.725706 0.163595 0.395231 0.178877

loop_
_geom_bond_atom_site_label_1
_geom_bond_atom_site_label_2
_ccdc_geom_bond_type
C34   O25   A    
C88   H15   S    
C99   H47   S    
C55   C56   S    
C81   O14   A    
C58   C62   A    
Cr5   O9    S    
C92   H26   S    
C11   C13   A    
C41   C42   A    
C77   O8    A    
C35   C36   A    
Cr6   O19   S    
C34   C66   S    
C63   C65   T    
C93   H28   S    
C97   H40   S    
C88   H13   S    
C95   H34   S    
C52   C53   T    
C40   C46   A    
Cr5   O19   S    
C26   C27   A    
C29   C30   A    
C74   C76   T    
C80   O11   A    
C56   O24   A    
C18   C24   A    
C82   O17   A    
C28   C29   A    
C87   H10   S    
C16   C97   S    
C4    C7    S    
C18   C86   S    
C5    C6    S    
C89   H18   S    
C97   H41   S    
C99   H48   S    
C46   H2    S    
C49   C54   A    
Cr5   O16   S    
C68   C96   S    
C25   C30   A    
C90   H20   S    
C77   O7    A    
C88   H14   S    
C18   C19   A    
C73   C74   S    
C32   C39   A    
C98   H44   S    
Cr1   O5    S    
C23   O23   A    
C41   I8    S    
C14   C98   S    
C43   C53   S    
C19   C20   A    
C44   C46   A    
C16   C17   A    
C96   H38   S    
C91   H24   S    
C86   H9    S    
C79   O9    A    
C69   C73   A    
Cr2   O26   S    
C58   I13   S    
C9    C10   A    
C31   C36   A    
Cr3   O22   S    
C42   I10   S    
C16   C20   A    
C35   I5    S    
C87   H12   S    
C99   H46   S    
C81   O15   A    
C59   C60   A    
C13   C14   A    
C55   C64   T    
C92   H27   S    
C1    C25   S    
C60   C95   S    
C94   H32   S    
C71   I15   S    
C79   O10   A    
C98   H43   S    
C1    O20   A    
C56   O4    A    
C70   C73   A    
C31   I3    S    
Cr1   O12   S    
C11   C87   S    
C76   C83   S    
C93   H29   S    
C85   H5    S    
C12   O21   A    
C95   H35   S    
C40   C45   S    
C12   C67   S    
C19   I1    S    
C92   H25   S    
C17   C24   A    
C51   C52   S    
C94   H31   S    
C70   H3    S    
Cr2   O2    S    
Cr4   O14   S    
C9    C23   S    
C97   H42   S    
C6    C8    T    
C57   I11   S    
C50   I9    S    
C25   C26   A    
C60   C61   A    
C15   I18   S    
C48   C54   A    
C98   H45   S    
C78   C85   S    
C43   C44   A    
C82   O16   A    
C4    C78   A    
C37   C38   T    
C8    C79   S    
C90   H21   S    
Cr4   O13   S    
Cr1   O1    S    
C65   C81   S    
C31   C32   A    
C28   C38   S    
C68   C72   A    
C96   H39   S    
Cr3   O3    S    
C62   C63   S    
C50   C51   A    
C33   C39   A    
Cr1   O24   S    
Cr6   O11   S    
Cr3   O23   S    
Cr4   O7    S    
C44   H1    S    
C33   I6    S    
C12   O22   A    
C40   C41   A    
C29   C88   S    
C49   C50   A    
C27   C91   S    
Cr2   O20   S    
C80   O6    A    
C86   H7    S    
C94   H33   S    
C83   O18   A    
C2    C5    A    
C42   C43   A    
Cr6   O17   S    
C3    C4    A    
C45   O2    A    
C54   C82   S    
C93   H30   S    
C85   H4    S    
C90   H19   S    
C95   H36   S    
C34   O26   A    
C5    C84   A    
C48   I7    S    
C36   C37   S    
C59   C62   A    
C30   C89   S    
Cr5   O8    S    
C91   H22   S    
C49   C93   S    
C68   C69   A    
C47   C48   A    
Cr6   O18   S    
C47   C51   A    
C89   H16   S    
C85   H6    S    
C57   C61   A    
C84   C90   S    
C83   O13   A    
Cr2   O21   S    
C39   C80   S    
Cr3   O5    S    
C10   C99   S    
C2    C3    A    
C9    C15   A    
C71   C72   A    
C59   C94   S    
C61   C64   S    
C89   H17   S    
C17   I17   S    
C72   C75   S    
C57   C58   A    
C32   I2    S    
C47   C92   S    
C66   C75   T    
Cr5   O15   S    
C33   C35   A    
C13   C22   S    
C91   H23   S    
Cr1   O25   S    
Cr2   O5    S    
Cr6   O10   S    
Cr4   O6    S    
C70   C71   A    
C10   C11   A    
C7    C67   T    
Cr4   O19   S    
C23   O1    A    
C78   C84   A    
C24   C77   S    
C20   C21   S    
C96   H37   S    
C69   I14   S    
C27   C28   A    
C86   H8    S    
C14   C15   A    
C87   H11   S    
C21   C22   T    
C45   O3    A    
C3    I16   S    
C2    I12   S    
C26   I4    S    
C1    O12   A    
Cr3   O4    S    
