data_mof_unit_15058.cif
_audit_creation_date              2012-12-10T20:28:43-0500
_audit_creation_method            fapswitch 2.2
_symmetry_space_group_name_H-M    P1
_symmetry_Int_Tables_number       1
_space_group_crystal_system       triclinic
_cell_length_a                    10.629966
_cell_length_b                    10.68831
_cell_length_c                    9.846702
_cell_angle_alpha                 90.187758
_cell_angle_beta                  89.135507
_cell_angle_gamma                 90.295945
_cell_volume                      1118.59856715

loop_
_atom_site_label
_atom_site_type_symbol
_atom_type_description
_atom_site_fract_x
_atom_site_fract_y
_atom_site_fract_z
_atom_type_partial_charge
C1    C     C_R   0.498403 0.259959 0.500048 0.859716
C2    C     C_R   0.437632 0.934390 0.390300 -0.225483
C3    C     C_R   0.484880 0.871378 0.502890 -0.107734
C4    C     C_R   0.258225 0.504137 0.502004 0.884365
C5    C     C_R   0.514991 0.936473 0.620616 0.140512
C6    C     C_3   0.631431 0.929158 0.703344 -0.473752
C7    C     C_3   0.633417 0.070895 0.702096 -0.509352
C8    C     C_R   0.406586 0.439635 0.072525 0.220040
C9    C     C_R   0.585694 0.568273 0.070872 -0.149019
C10   C     C_R   0.585762 0.568222 0.926790 -0.131739
C11   C     C_R   0.406427 0.440237 0.929620 0.152511
C12   C     C_R   0.053494 0.480622 0.631044 0.101704
C13   C     C_3   0.375410 0.304540 0.921143 -0.491218
C14   C     C_3   0.378339 0.302331 0.075516 -0.071704
C15   C     C_R   0.498059 0.739895 0.500333 0.890965
C16   C     C_R   0.736648 0.474931 0.499124 0.889928
C17   C     C_R   0.100024 0.511715 0.761530 -0.148396
C18   C     C_R   0.035343 0.474906 0.879310 -0.177368
C19   C     C_R   0.923479 0.407840 0.869633 -0.155205
C20   C     C_R   0.870693 0.387891 0.743210 -0.134105
C21   C     C_R   0.930468 0.433958 0.624212 0.064833
C22   C     C_3   0.251131 0.271283 0.141943 -0.886709
C23   C     C_R   0.122391 0.494342 0.506688 -0.183055
C24   C     C_3   0.884536 0.407186 0.241161 -0.898419
C25   C     C_R   0.064065 0.472596 0.382149 -0.232668
C26   C     C_R   0.938379 0.441804 0.376955 0.206532
C27   C     C_R   0.868480 0.439838 0.498954 -0.176414
C28   C     C_R   0.516146 0.064143 0.620169 0.135836
C29   C     C_R   0.486472 0.128095 0.502155 -0.091256
C30   C     C_R   0.438435 0.063704 0.390061 -0.234861
H1    H     H_    0.116583 0.477792 0.287176 0.179190
H2    H     H_    0.182755 0.568664 0.776022 0.164342
H3    H     H_    0.072522 0.498008 0.978034 0.134488
H4    H     H_    0.874565 0.375165 0.959689 0.143728
H5    H     H_    0.782285 0.337318 0.738881 0.145620
H6    H     H_    0.407190 0.112295 0.300894 0.172513
H7    H     H_    0.406091 0.884468 0.301008 0.169897
H8    H     H_    0.612320 0.889269 0.805775 0.202373
H9    H     H_    0.256000 0.285976 0.253302 0.262390
H10   H     H_    0.175489 0.330645 0.100742 0.236383
H11   H     H_    0.227322 0.171638 0.122496 0.243531
H12   H     H_    0.711894 0.886460 0.646835 0.200801
H13   H     H_    0.862359 0.493175 0.183553 0.243229
H14   H     H_    0.953924 0.351083 0.182112 0.219550
H15   H     H_    0.799516 0.347170 0.252246 0.252954
H16   H     H_    0.617087 0.112605 0.804239 0.196833
H17   H     H_    0.714680 0.110938 0.644159 0.195783
H18   H     H_    0.656246 0.621519 0.124407 0.154803
H19   H     H_    0.656517 0.621278 0.871371 0.156988
H20   H     H_    0.281064 0.288335 0.876798 0.218744
H21   H     H_    0.452146 0.249189 0.873155 0.193408
H22   H     H_    0.457606 0.246606 0.115458 0.174880
N1    N     N_R   0.499160 0.499140 0.142800 -0.121684
N2    N     N_R   0.499160 0.499180 0.857150 -0.109010
O1    O     O_R   0.500020 0.316790 0.614690 -0.625325
O2    O     O_R   0.500000 0.316760 0.385350 -0.633020
O3    O     O_R   0.316770 0.500020 0.614690 -0.625270
O4    O     O_R   0.316760 0.499980 0.385350 -0.619516
O5    O     O_R   0.500000 0.683240 0.614650 -0.615553
O6    O     O_R   0.499980 0.683210 0.385310 -0.617435
O7    O     O_R   0.683240 0.500020 0.614650 -0.624574
O8    O     O_R   0.683230 0.499980 0.385310 -0.605306
Zn1   Zn    Zn3+2 0.500010 0.500020 0.653130 0.932240
Zn2   Zn    Zn3+2 0.499990 0.499980 0.346870 0.933543

loop_
_geom_bond_atom_site_label_1
_geom_bond_atom_site_label_2
_ccdc_geom_bond_type
C8    N1    A    
C4    O3    A    
O8    Zn2   S    
C6    H8    S    
C25   H1    S    
C6    C7    S    
C5    C28   A    
C9    C10   A    
O5    Zn1   S    
C19   C20   A    
C2    H7    S    
C30   H6    S    
C2    C30   A    
C22   H10   S    
C4    C23   S    
C14   C22   S    
C16   C27   S    
C1    C29   S    
C17   C18   A    
C21   C27   A    
C13   C14   S    
C12   C17   A    
O4    Zn2   S    
C11   C13   S    
C12   C23   A    
C26   C27   A    
C29   C30   A    
C11   N2    A    
C16   O8    A    
C24   H13   S    
C8    C11   A    
C24   H14   S    
C24   H15   S    
O1    Zn1   S    
C28   C29   A    
N1    Zn2   S    
C1    O2    A    
C24   C26   S    
O6    Zn2   S    
O3    Zn1   S    
C2    C3    A    
C23   C25   A    
C1    O1    A    
C5    C6    S    
C10   N2    A    
C18   H3    S    
C22   H11   S    
C9    N1    A    
C16   O7    A    
C22   H9    S    
C13   H20   S    
C7    H16   S    
C3    C15   S    
C20   C21   A    
C9    H18   S    
C18   C19   A    
O2    Zn2   S    
C4    O4    A    
O7    Zn1   S    
C17   H2    S    
N2    Zn1   S    
C8    C14   S    
C25   C26   A    
C13   H21   S    
C10   H19   S    
C15   O5    A    
C12   C21   A    
C20   H5    S    
C15   O6    A    
C14   H22   S    
C7    C28   S    
C7    H17   S    
C3    C5    A    
C19   H4    S    
C6    H12   S    
