data_mof_unit_50607.cif
_audit_creation_date              2013-03-05T15:47:57-0500
_audit_creation_method            fapswitch 2.2
_symmetry_space_group_name_H-M    P1
_symmetry_Int_Tables_number       1
_space_group_crystal_system       triclinic
_cell_length_a                    11.763401
_cell_length_b                    13.043013
_cell_length_c                    13.533636
_cell_angle_alpha                 95.559835
_cell_angle_beta                  77.876048
_cell_angle_gamma                 100.436263
_cell_volume                      1992.82710081

loop_
_atom_site_label
_atom_site_type_symbol
_atom_site_description
_atom_site_fract_x
_atom_site_fract_y
_atom_site_fract_z
_atom_type_partial_charge
O1    O     O_R   0.419710 0.645650 0.494620 -0.568715
O2    O     O_R   0.611450 0.658430 0.507430 -0.563318
C1    C     C_R   0.522662 0.700925 0.497485 0.834530
O3    O     O_R   0.357340 0.490460 0.641450 -0.543046
O4    O     O_R   0.549080 0.503250 0.654260 -0.626226
C2    C     C_R   0.438223 0.485205 0.694666 0.820827
Cu1   Cu    Cu3+1 0.386470 0.492430 0.492410 0.979176
Cu2   Cu    Cu3+1 0.613530 0.507570 0.507590 1.001060
O5    O     O_R   0.388550 0.341570 0.492570 -0.549727
O6    O     O_R   0.580290 0.354350 0.505380 -0.560912
O7    O     O_R   0.450920 0.496750 0.345740 -0.584497
O8    O     O_R   0.642660 0.509540 0.358550 -0.548364
C3    C     C_R   0.475212 0.299799 0.509635 0.832138
C4    C     C_R   0.562342 0.503301 0.304160 0.822817
C5    C     C_R   0.757508 0.496890 0.044205 0.360878
H1    H     H_    0.784564 0.532101 0.195767 0.224278
C6    C     C_R   0.599347 0.497988 0.192536 -0.146353
C7    C     C_R   0.288263 0.427755 0.852343 0.079490
C8    C     C_R   0.261128 0.385799 0.947995 0.266101
C9    C     C_R   0.352015 0.375981 0.996892 0.125715
C10   C     C_R   0.466478 0.428940 0.961294 0.033908
C11   C     C_R   0.498645 0.445389 0.857322 -0.053589
C12   C     C_R   0.551779 0.456366 0.024053 0.036715
C13   C     C_R   0.673870 0.475047 0.979707 -0.100237
C14   C     C_R   0.706683 0.469104 0.872853 0.340285
C15   C     C_R   0.619796 0.449686 0.814349 -0.281379
C16   C     C_R   0.516496 0.470885 0.129925 -0.200520
C17   C     C_R   0.719210 0.512433 0.148505 -0.182596
C18   C     C_R   0.407929 0.452419 0.801918 -0.178255
H2    H     H_    0.424130 0.464297 0.163601 0.181724
H3    H     H_    0.652112 0.433687 0.735206 0.210798
C19   C     C_R   0.456958 0.186228 0.527142 -0.261554
C20   C     C_R   0.536100 0.815441 0.498081 -0.159276
C21   C     C_R   0.644515 0.985503 0.540216 0.391617
C22   C     C_R   0.633790 0.877046 0.529360 -0.326294
C23   C     C_R   0.450524 0.864615 0.471380 0.229362
C24   C     C_R   0.448152 0.970692 0.501166 -0.068329
C25   C     C_R   0.548948 0.033675 0.529629 -0.079551
C26   C     C_R   0.548569 0.141556 0.550938 0.264790
C27   C     C_R   0.345852 0.121436 0.527662 0.187806
C28   C     C_R   0.341910 0.011838 0.515995 0.271862
H4    H     H_    0.704926 0.841058 0.541543 0.213611
N1    N     N_R   0.215880 0.481050 0.481000 -0.198894
N2    N     N_R   0.784100 0.518950 0.519000 -0.281575
C29   C     C_R   0.954498 0.613675 0.580417 -0.235693
C30   C     C_R   0.832834 0.599087 0.579039 0.424362
C31   C     C_R   0.854377 0.452543 0.461287 0.460243
C32   C     C_R   0.974966 0.461267 0.468248 -0.065861
C33   C     C_R   0.026462 0.543735 0.527049 -0.069854
C34   C     C_R   0.148451 0.553184 0.532309 0.365930
C35   C     C_R   0.162612 0.396933 0.428775 0.358819
C36   C     C_R   0.044552 0.388130 0.419170 -0.258002
H5    H     H_    0.991893 0.678152 0.625673 0.171085
H6    H     H_    0.007082 0.320766 0.376237 0.225591
N3    N     N_2   0.241581 0.169183 0.551887 -0.430082
H7    H     H_    0.245718 0.230125 0.605576 0.248461
C37   C     C_3   0.122668 0.113782 0.553450 -0.542426
H8    H     H_    0.062147 0.171195 0.558862 0.231022
H9    H     H_    0.090561 0.068232 0.621682 0.261051
H10   H     H_    0.117805 0.064058 0.482577 0.245739
N4    N     N_R   0.753367 0.044355 0.560827 0.146246
O9    O     O_R   0.800183 0.017308 0.631261 -0.391609
O10   O     O_R   0.816043 0.111591 0.497650 -0.319634
N5    N     N_2   0.232283 0.944285 0.542911 -0.429216
H11   H     H_    0.210396 0.885738 0.490333 0.266784
C38   C     C_3   0.206682 0.913050 0.646119 -0.723196
H12   H     H_    0.115626 0.868828 0.663559 0.228619
H13   H     H_    0.212796 0.982836 0.700002 0.250431
H14   H     H_    0.270161 0.863567 0.656782 0.233358
N6    N     N_2   0.381866 0.815650 0.399271 -0.448740
H15   H     H_    0.323420 0.749200 0.420002 0.269183
C39   C     C_3   0.447278 0.806800 0.296507 -0.630521
H16   H     H_    0.385065 0.778023 0.244683 0.230304
H17   H     H_    0.509579 0.750641 0.290055 0.213599
H18   H     H_    0.496959 0.884360 0.272942 0.243336
N7    N     N_2   0.201547 0.638352 0.590030 -0.409098
H19   H     H_    0.197570 0.709372 0.565158 0.220194
C40   C     C_3   0.168317 0.635403 0.699191 -0.568498
H20   H     H_    0.129190 0.705234 0.732750 0.202374
H21   H     H_    0.247876 0.636524 0.731170 0.242817
H22   H     H_    0.101852 0.565648 0.721804 0.280489
N8    N     N_2   0.221359 0.311358 0.392417 -0.379189
H23   H     H_    0.168094 0.241400 0.410060 0.256939
C41   C     C_3   0.274635 0.308424 0.286715 -0.568049
H24   H     H_    0.240061 0.232648 0.249948 0.205178
H25   H     H_    0.371155 0.312752 0.278112 0.250822
H26   H     H_    0.255164 0.373049 0.248437 0.232782
N9    N     N_2   0.759282 0.665556 0.641870 -0.392939
H27   H     H_    0.701862 0.628116 0.700440 0.282557
C42   C     C_3   0.811563 0.769077 0.675082 -0.676248
H28   H     H_    0.740521 0.815195 0.707926 0.255346
H29   H     H_    0.870379 0.810042 0.610294 0.241621
H30   H     H_    0.861491 0.764394 0.735191 0.247785
N10   N     N_R   0.826744 0.493540 0.820779 0.133558
O11   O     O_R   0.867913 0.431726 0.745688 -0.399782
O12   O     O_R   0.884639 0.587388 0.832425 -0.386533
N11   N     N_R   0.808732 0.378532 0.388282 0.132534
O13   O     O_R   0.775142 0.281497 0.410047 -0.333662
O14   O     O_R   0.838296 0.399384 0.293438 -0.337878
N12   N     N_R   0.880026 0.492413 0.007736 0.171141
O15   O     O_R   0.910625 0.406078 0.962741 -0.285767
O16   O     O_R   0.959636 0.563641 0.038944 -0.325815
N13   N     N_2   0.194421 0.444575 0.808031 -0.419223
H31   H     H_    0.135856 0.485245 0.856740 0.310358
C43   C     C_3   0.135927 0.354122 0.756456 -0.475219
H32   H     H_    0.145062 0.369395 0.675739 0.216990
H33   H     H_    0.040420 0.339035 0.790171 0.289656
H34   H     H_    0.172531 0.282674 0.762294 0.201893
N14   N     N_2   0.333266 0.296672 0.066902 -0.447360
H35   H     H_    0.246292 0.263734 0.089410 0.297399
C44   C     C_3   0.406193 0.215962 0.037725 -0.656937
H36   H     H_    0.382292 0.156980 0.095740 0.227461
H37   H     H_    0.500899 0.248773 0.032494 0.252900
H38   H     H_    0.392063 0.176351 0.963726 0.229970
N15   N     N_R   0.140954 0.351010 0.994991 0.145630
O17   O     O_R   0.083283 0.265151 0.960309 -0.330005
O18   O     O_R   0.099074 0.391269 0.084059 -0.296187
N16   N     N_2   0.621176 0.196944 0.617641 -0.358939
H39   H     H_    0.669140 0.268543 0.598427 0.310958
C45   C     C_3   0.566948 0.193100 0.723826 -0.662528
H40   H     H_    0.632701 0.228901 0.770487 0.258269
H41   H     H_    0.535469 0.110826 0.744188 0.235736
H42   H     H_    0.491429 0.236556 0.741085 0.200889

loop_
_geom_bond_atom_site_label_1
_geom_bond_atom_site_label_2
_geom_bond_distance
_ccdc_geom_bond_type
H1    C17   1.081325 S    
C38   H13   1.111372 S    
N3    H7    1.025222 S    
C11   C18   1.447163 A    
C3    C19   1.492617 S    
C8    C9    1.400216 A    
C41   H26   1.111634 S    
C5    N12   1.431870 S    
N11   O13   1.298809 A    
C5    C17   1.395381 A    
Cu1   Cu2   2.692022 S    
C29   C30   1.413040 A    
Cu1   O7    1.972855 S    
C43   H33   1.109550 S    
C23   C24   1.406662 A    
N7    C40   1.449076 S    
C7    C8    1.406237 A    
C32   C36   1.397468 A    
N14   C44   1.450642 S    
O4    C2    1.291969 A    
O7    C4    1.304157 A    
C40   H21   1.107861 S    
C37   H9    1.107629 S    
C38   H14   1.110359 S    
C1    C20   1.472640 S    
N15   O17   1.300504 A    
C20   C23   1.409595 A    
C21   C22   1.393360 A    
C19   C26   1.419221 A    
N4    O10   1.299977 A    
C22   H4    1.078433 S    
O5    C3    1.309165 A    
N16   H39   1.025963 S    
N13   C43   1.449353 S    
C44   H36   1.110542 S    
C45   H41   1.111340 S    
N15   O18   1.301181 A    
C12   C13   1.421879 A    
N6    H15   1.026063 S    
C12   C16   1.409703 A    
C45   H42   1.111130 S    
N9    H27   1.026463 S    
C36   H6    1.082695 S    
C38   H12   1.109990 S    
C29   H5    1.074811 S    
C15   H3    1.072241 S    
C21   C25   1.421314 A    
C10   C11   1.405211 A    
C16   H2    1.077692 S    
C4    C6    1.480160 S    
N10   O11   1.301260 A    
C39   H18   1.112047 S    
N11   O14   1.299376 A    
C23   N6    1.426871 S    
C30   N9    1.429392 S    
N7    H19   1.027762 S    
C43   H34   1.110854 S    
C35   C36   1.404989 A    
C6    C16   1.398875 A    
C13   C14   1.414528 A    
C39   H17   1.111972 S    
C40   H20   1.109773 S    
C37   H10   1.110400 S    
N2    C30   1.376737 A    
O3    Cu1   1.975628 S    
C14   C15   1.393923 A    
C21   N4    1.434954 S    
O1    C1    1.298444 A    
N5    C38   1.448020 S    
C24   C25   1.416616 A    
C34   N7    1.421189 S    
C42   H29   1.111310 S    
C31   C32   1.424662 A    
C8    N15   1.433416 S    
Cu2   O8    1.975628 S    
C27   N3    1.438081 S    
N12   O16   1.301309 A    
C29   C33   1.402045 A    
C44   H37   1.108740 S    
C7    C18   1.423279 A    
C5    C13   1.422004 A    
C41   H24   1.110826 S    
N10   O12   1.301032 A    
C35   N8    1.412689 S    
O3    C2    1.322772 A    
C32   C33   1.399203 A    
N9    C42   1.449507 S    
N8    H23   1.026867 S    
N8    C41   1.436018 S    
N3    C37   1.450387 S    
C45   H40   1.110083 S    
C42   H30   1.110753 S    
Cu1   N1    2.022526 S    
Cu1   O5    1.972465 S    
C27   C28   1.416286 A    
O1    Cu1   1.964135 S    
C6    C17   1.396879 A    
O2    Cu2   1.972463 S    
Cu2   N2    2.022292 S    
C41   H25   1.108328 S    
C39   H16   1.110609 S    
O6    C3    1.302641 A    
O4    Cu2   1.972855 S    
N2    C31   1.378686 A    
N1    C34   1.381650 A    
C26   N16   1.428386 S    
C43   H32   1.108900 S    
C31   N11   1.430602 S    
N5    H11   1.027714 S    
C10   C12   1.423144 A    
O2    C1    1.303613 A    
O8    C4    1.301456 A    
N14   H35   1.029226 S    
C40   H22   1.108355 S    
N1    C35   1.372088 A    
C42   H28   1.109979 S    
C25   C26   1.409324 A    
N12   O15   1.300121 A    
C20   C22   1.396189 A    
C44   H38   1.111790 S    
C7    N13   1.420460 S    
C19   C27   1.421107 A    
C24   C28   1.416678 A    
N4    O9    1.300930 A    
N16   C45   1.446345 S    
C9    N14   1.426860 S    
C14   N10   1.433625 S    
C2    C18   1.504828 S    
C9    C10   1.406151 A    
Cu2   O6    1.964136 S    
C33   C34   1.434099 A    
C11   C15   1.414789 A    
N13   H31   1.031709 S    
N6    C39   1.446098 S    
C28   N5    1.423120 S    
C37   H8    1.110662 S    
