data_mof_unit_33310.cif
_audit_creation_date              2012-12-11T16:28:25-0500
_audit_creation_method            fapswitch 2.2
_symmetry_space_group_name_H-M    P1
_symmetry_Int_Tables_number       1
_space_group_crystal_system       triclinic
_cell_length_a                    16.570506
_cell_length_b                    7.253033
_cell_length_c                    15.20052
_cell_angle_alpha                 89.983827
_cell_angle_beta                  94.760108
_cell_angle_gamma                 90.008864
_cell_volume                      1820.59490909

loop_
_atom_site_label
_atom_site_type_symbol
_atom_type_description
_atom_site_fract_x
_atom_site_fract_y
_atom_site_fract_z
_atom_type_partial_charge
O1    O     O_R   0.663460 0.361760 0.165970 -0.531449
O2    O     O_R   0.336540 0.638240 0.834030 -0.531449
O3    O     O_R   0.836540 0.861760 0.334030 -0.532766
O4    O     O_R   0.163460 0.138240 0.665970 -0.532765
O5    O     O_R   0.827100 0.689870 0.163730 -0.531310
O6    O     O_R   0.172900 0.310130 0.836270 -0.531306
O7    O     O_R   0.672900 0.189870 0.336270 -0.532245
O8    O     O_R   0.327100 0.810130 0.663730 -0.532244
H1    H     H_    0.208271 0.097605 0.504449 0.111315
H2    H     H_    0.791729 0.902387 0.495548 0.111316
H3    H     H_    0.291068 0.588409 0.996716 0.109707
H4    H     H_    0.708931 0.411584 0.003285 0.109710
C1    C     C_R   0.853254 0.522942 0.143542 0.710261
C2    C     C_R   0.146746 0.477058 0.856458 0.710260
C3    C     C_R   0.646749 0.022904 0.356456 0.710425
C4    C     C_R   0.353251 0.977096 0.643543 0.710423
O9    O     O_R   0.663490 0.691370 0.155500 -0.534498
O10   O     O_R   0.336510 0.308630 0.844500 -0.534497
O11   O     O_R   0.836510 0.191370 0.344500 -0.535947
O12   O     O_R   0.163490 0.808630 0.655500 -0.535950
O13   O     O_R   0.671770 0.863320 0.325740 -0.537752
O14   O     O_R   0.328230 0.136680 0.674260 -0.537752
O15   O     O_R   0.828230 0.363320 0.174260 -0.536704
O16   O     O_R   0.171770 0.636680 0.825740 -0.536708
C5    C     C_R   0.636144 0.522938 0.133769 0.682197
C6    C     C_R   0.363855 0.477062 0.866232 0.682195
C7    C     C_R   0.863852 0.022914 0.366236 0.680637
C8    C     C_R   0.136148 0.977086 0.633764 0.680638
O17   O     O_3   0.752910 0.528800 0.305860 -0.375472
O18   O     O_3   0.247090 0.471200 0.694140 -0.375472
O19   O     O_3   0.747090 0.028800 0.194140 -0.372238
O20   O     O_3   0.252910 0.971200 0.805860 -0.372237
V1    V     V_3+5 0.749460 0.803010 0.239640 1.433575
V2    V     V_3+5 0.250540 0.196990 0.760360 1.433585
V3    V     V_3+5 0.750540 0.303010 0.260360 1.430326
V4    V     V_3+5 0.249460 0.696990 0.739640 1.430323
C9    C     C_1   0.468794 0.994803 0.530076 0.010068
C10   C     C_1   0.531205 0.005197 0.469923 0.010068
C11   C     C_1   0.031208 0.494758 0.969930 0.007324
C12   C     C_1   0.968792 0.505241 0.030071 0.007324
C13   C     C_R   0.025421 0.135874 0.329728 -0.236562
C14   C     C_R   0.974586 0.864033 0.670254 -0.236566
C15   C     C_R   0.473950 0.628446 0.171325 -0.242150
C16   C     C_R   0.526047 0.371571 0.828677 -0.242155
C17   C     C_R   0.102890 0.188977 0.308582 0.248905
C18   C     C_R   0.897122 0.810864 0.691387 0.248956
C19   C     C_R   0.396138 0.677248 0.193074 0.255819
C20   C     C_R   0.603860 0.322781 0.806924 0.255824
C21   C     C_R   0.168542 0.175733 0.372573 0.261553
C22   C     C_R   0.831468 0.824148 0.627402 0.261539
C23   C     C_R   0.330363 0.662267 0.129300 0.257989
C24   C     C_R   0.669635 0.337750 0.870699 0.257995
C25   C     C_R   0.156161 0.108656 0.456948 -0.230846
C26   C     C_R   0.843842 0.891316 0.543043 -0.230862
C27   C     C_R   0.343155 0.599952 0.044228 -0.225757
C28   C     C_R   0.656842 0.400048 0.955775 -0.225779
C29   C     C_R   0.078390 0.055627 0.479587 0.033116
C30   C     C_R   0.921612 0.944367 0.520409 0.033121
C31   C     C_R   0.421257 0.551319 0.021014 0.035044
C32   C     C_R   0.578740 0.448679 0.978990 0.035049
C33   C     C_R   0.011722 0.069197 0.414682 0.031233
C34   C     C_R   0.988281 0.930778 0.585311 0.031231
C35   C     C_R   0.487925 0.565156 0.085905 0.034221
C36   C     C_R   0.512073 0.434847 0.914099 0.034226
C37   C     C_R   0.066772 0.986723 0.565051 -0.121110
C38   C     C_R   0.933229 0.013278 0.434948 -0.121109
C39   C     C_R   0.433235 0.486608 0.934944 -0.119117
C40   C     C_R   0.566763 0.513390 0.065060 -0.119116
C41   C     C_1   0.415948 0.986275 0.581409 -0.193626
C42   C     C_1   0.584051 0.013725 0.418590 -0.193626
C43   C     C_1   0.084054 0.486186 0.918600 -0.193026
C44   C     C_1   0.915946 0.513814 0.081401 -0.193026
H5    H     H_    0.976208 0.146004 0.278567 0.121547
H6    H     H_    0.023800 0.853879 0.721415 0.121558
H7    H     H_    0.523269 0.639617 0.222320 0.119370
H8    H     H_    0.476729 0.360410 0.777680 0.119365
N1    N     N_3   0.115692 0.256877 0.221983 -0.662077
H9    H     H_    0.150395 0.158998 0.191542 0.259646
H10   H     H_    0.060715 0.267347 0.183252 0.221821
N2    N     N_3   0.884327 0.742872 0.777971 -0.662049
H11   H     H_    0.849603 0.840696 0.808424 0.259620
H12   H     H_    0.939305 0.732425 0.816707 0.221811
N3    N     N_3   0.383270 0.743830 0.279861 -0.621129
H13   H     H_    0.351373 0.642177 0.311285 0.221643
H14   H     H_    0.438500 0.760587 0.317538 0.220863
N4    N     N_3   0.616727 0.256231 0.720133 -0.621164
H15   H     H_    0.648599 0.357929 0.688709 0.221653
H16   H     H_    0.561493 0.239433 0.682467 0.220866
N5    N     N_3   0.752015 0.770773 0.649274 -0.630732
H17   H     H_    0.752634 0.628066 0.658991 0.228327
H18   H     H_    0.708988 0.796851 0.596459 0.222996
N6    N     N_3   0.248004 0.229007 0.350688 -0.630662
H19   H     H_    0.247393 0.371680 0.340861 0.228340
H20   H     H_    0.291018 0.203101 0.403537 0.222970
N7    N     N_3   0.749390 0.287837 0.848454 -0.628046
H21   H     H_    0.767868 0.387051 0.804425 0.242997
H22   H     H_    0.790733 0.293782 0.904232 0.221640
N8    N     N_3   0.250609 0.712200 0.151539 -0.628064
H23   H     H_    0.232126 0.613006 0.195575 0.242944
H24   H     H_    0.209266 0.706254 0.095761 0.221641

loop_
_geom_bond_atom_site_label_1
_geom_bond_atom_site_label_2
_ccdc_geom_bond_type
C30   C34   A    
C16   C20   A    
C10   C42   T    
C27   C31   A    
C2    C43   S    
N7    H21   S    
O10   C6    A    
C13   C33   A    
C15   C35   A    
N1    H9    S    
C16   C36   A    
C22   C26   A    
C6    C39   S    
C9    C41   T    
C14   C18   A    
N4    H16   S    
O13   V1    S    
O3    V1    S    
C1    O15   A    
C24   N7    S    
O8    V4    S    
C2    O16   A    
C16   H8    S    
C31   C39   A    
C33   C38   A    
C30   C38   A    
O5    V1    S    
O19   V1    S    
C19   N3    S    
N5    H18   S    
O11   C7    A    
C14   C34   A    
O5    C1    A    
C23   N8    S    
O7    C3    A    
O8    C4    A    
C11   C43   T    
O1    C5    A    
C5    C40   S    
O9    V1    S    
O4    C8    A    
N1    H10   S    
C15   H7    S    
O14   V2    S    
O4    V2    S    
C14   H6    S    
C36   C39   A    
N2    H12   S    
C11   C12   S    
C25   C29   A    
N4    H15   S    
C19   C23   A    
O12   C8    A    
O6    V2    S    
O20   V2    S    
C9    C10   S    
O6    C2    A    
C22   N5    S    
N3    H13   S    
C17   C21   A    
N6    H20   S    
O2    C6    A    
O16   V4    S    
O10   V2    S    
H4    C28   S    
N3    H14   S    
N8    H24   S    
C20   N4    S    
H1    C25   S    
C21   N6    S    
H3    C27   S    
O1    V3    S    
C26   C30   A    
O2    V4    S    
C3    C42   S    
O17   V3    S    
C35   C40   A    
C4    O14   A    
C12   C44   T    
C34   C37   A    
O7    V3    S    
C4    C41   S    
C29   C37   A    
N2    H11   S    
N7    H22   S    
C29   C33   A    
C1    C44   S    
C18   C22   A    
C31   C35   A    
O18   V4    S    
C32   C36   A    
O9    C5    A    
O3    C7    A    
C8    C37   S    
C7    C38   S    
O11   V3    S    
C18   N2    S    
C3    O13   A    
C21   C25   A    
N6    H19   S    
C23   C27   A    
H2    C26   S    
O15   V3    S    
C13   H5    S    
O12   V4    S    
C28   C32   A    
C20   C24   A    
C32   C40   A    
N8    H23   S    
C13   C17   A    
C17   N1    S    
N5    H17   S    
C15   C19   A    
C24   C28   A    
