data_mof_unit_63453.cif
_audit_creation_date              2012-12-10T17:59:04-0500
_audit_creation_method            fapswitch 2.2
_symmetry_space_group_name_H-M    P1
_symmetry_Int_Tables_number       1
_space_group_crystal_system       triclinic
_cell_length_a                    18.707239
_cell_length_b                    18.709562
_cell_length_c                    18.9365
_cell_angle_alpha                 109.46177
_cell_angle_beta                  110.062815
_cell_angle_gamma                 108.996928
_cell_volume                      5094.99064158

loop_
_atom_site_label
_atom_site_type_symbol
_atom_type_description
_atom_site_fract_x
_atom_site_fract_y
_atom_site_fract_z
_atom_type_partial_charge
C1    C     C_R   0.619131 0.619044 0.500666 0.793184
C2    C     C_3   0.175094 0.428337 0.215559 -0.170604
C3    C     C_3   0.230438 0.499724 0.312515 -0.158158
C4    C     C_3   0.312605 0.500222 0.312596 0.027984
C5    C     C_R   0.669739 0.690605 0.425574 0.097182
C6    C     C_R   0.684838 0.687248 0.501478 -0.073734
C7    C     C_R   0.760516 0.756148 0.580349 -0.213172
C8    C     C_R   0.825194 0.820442 0.580354 -0.210594
C9    C     C_R   0.812998 0.817623 0.501750 -0.085942
C10   C     C_R   0.732377 0.755382 0.425873 0.141630
C11   C     C_3   0.713394 0.693900 0.338937 -0.480980
C12   C     C_R   0.380481 0.500058 0.380564 0.778538
C13   C     C_3   0.644620 0.622679 0.338808 -0.466007
C14   C     C_R   0.766117 0.518890 0.694429 0.115680
C15   C     C_R   0.684467 0.498424 0.685881 -0.075143
C16   C     C_R   0.667736 0.477245 0.745437 -0.213375
C17   C     C_R   0.732815 0.476516 0.810400 -0.204875
C18   C     C_R   0.815993 0.499533 0.817812 -0.099972
C19   C     C_R   0.829415 0.521078 0.758305 0.130724
C20   C     C_3   0.894898 0.550244 0.731782 -0.457965
C21   C     C_3   0.822619 0.548292 0.659241 -0.493509
C22   C     C_R   0.243583 0.243010 0.425609 0.125866
C23   C     C_R   0.381573 0.381229 0.500030 0.797301
C24   C     C_R   0.316956 0.314977 0.501629 -0.086549
C25   C     C_R   0.325318 0.321944 0.580940 -0.212223
C26   C     C_R   0.260826 0.256700 0.581024 -0.211645
C27   C     C_R   0.186095 0.185683 0.501858 -0.090542
C28   C     C_R   0.180274 0.182361 0.425754 0.128530
C29   C     C_3   0.125002 0.130815 0.329302 -0.476668
C30   C     C_3   0.196923 0.200694 0.329190 -0.481056
C31   C     C_R   0.002899 0.619123 0.121381 0.793368
C32   C     C_R   0.123583 0.500184 0.123380 0.778999
C33   C     C_R   0.004372 0.381174 0.885964 0.833413
C34   C     C_R   0.619413 0.499912 0.619352 0.797369
C35   C     C_R   0.883974 0.499944 0.884330 0.795042
C36   C     C_R   0.998386 0.118011 0.617779 0.817258
C37   C     C_R   0.880877 0.881292 0.499894 0.791093
C38   C     C_R   0.001199 0.881288 0.382332 0.792842
C39   C     C_R   0.118886 0.118715 0.500322 0.799383
C40   C     C_R   0.017137 0.687366 0.265352 0.098556
C41   C     C_R   0.005052 0.687415 0.188502 -0.077871
C42   C     C_R   0.003838 0.759315 0.180882 -0.206799
C43   C     C_R   0.002537 0.823408 0.244443 -0.213818
C44   C     C_R   0.005536 0.817361 0.317315 -0.083323
C45   C     C_3   0.329410 0.572226 0.288552 -0.143896
C46   C     C_R   0.018596 0.751973 0.329287 0.139963
C47   C     C_3   0.969671 0.688989 0.349953 -0.486408
C48   C     C_3   0.967953 0.617952 0.279448 -0.459713
C49   C     C_R   0.993516 0.314553 0.744484 0.067553
C50   C     C_R   0.004172 0.313945 0.820364 -0.119575
C51   C     C_R   0.011004 0.243464 0.828717 0.242953
C52   C     C_R   0.007782 0.178109 0.760821 -0.284473
C53   C     C_R   0.996505 0.181739 0.684689 -0.124017
C54   C     C_R   0.988113 0.250742 0.679143 0.122638
C55   C     C_3   0.977453 0.291561 0.623697 -0.449421
C56   C     C_3   0.246133 0.571763 0.287337 -0.146108
C57   C     C_3   0.982036 0.363700 0.697747 -0.475146
C58   C     C_3   0.191800 0.500320 0.191369 0.027081
C59   C     C_3   0.273936 0.500738 0.191414 -0.161089
C60   C     C_3   0.258233 0.428803 0.216549 -0.174040
Cu1   Cu    Cu3+1 0.500490 0.438210 0.438660 0.937601
Cu2   Cu    Cu3+1 0.499510 0.561790 0.561340 0.945070
Cu3   Cu    Cu3+1 0.942090 0.438240 0.003860 0.952522
Cu4   Cu    Cu3+1 0.065700 0.561800 0.003830 0.937021
Cu5   Cu    Cu3+1 0.937720 0.000020 0.437750 0.940263
Cu6   Cu    Cu3+1 0.062280 0.000080 0.562350 0.942186
H1    H     H_    0.239796 0.630297 0.314982 0.125078
H2    H     H_    0.769503 0.683793 0.341915 0.186297
H3    H     H_    0.576493 0.598091 0.288574 0.193224
H4    H     H_    0.660914 0.571278 0.341847 0.211958
H5    H     H_    0.604705 0.460621 0.741229 0.143365
H6    H     H_    0.718618 0.459494 0.855243 0.161682
H7    H     H_    0.950941 0.617076 0.781737 0.204699
H8    H     H_    0.912926 0.500094 0.707225 0.190690
H9    H     H_    0.836782 0.614030 0.667702 0.194137
H10   H     H_    0.799000 0.497082 0.592819 0.207460
H11   H     H_    0.381657 0.376784 0.642214 0.150335
H12   H     H_    0.393996 0.631125 0.319796 0.124685
H13   H     H_    0.268511 0.262524 0.642380 0.155248
H14   H     H_    0.119868 0.065558 0.302080 0.192028
H15   H     H_    0.061796 0.130814 0.305623 0.205139
H16   H     H_    0.232921 0.175670 0.301336 0.207033
H17   H     H_    0.175366 0.241405 0.306044 0.190787
H18   H     H_    0.999494 0.763547 0.124012 0.151144
H19   H     H_    0.997573 0.876416 0.235976 0.150771
H20   H     H_    0.010468 0.702068 0.416271 0.203534
H21   H     H_    0.903700 0.681307 0.334251 0.186554
H22   H     H_    0.007741 0.590092 0.305146 0.193577
H23   H     H_    0.290519 0.501080 0.140538 0.132056
H24   H     H_    0.900927 0.569104 0.222740 0.211260
H25   H     H_    0.014451 0.125070 0.767814 0.156712
H26   H     H_    0.034643 0.314513 0.614583 0.192835
H27   H     H_    0.912189 0.250985 0.563282 0.203680
H28   H     H_    0.041253 0.428558 0.730659 0.205543
H29   H     H_    0.919007 0.363837 0.680349 0.189787
H30   H     H_    0.264085 0.370037 0.188445 0.141634
H31   H     H_    0.110801 0.369164 0.184547 0.143547
H32   H     H_    0.213808 0.499251 0.363338 0.132906
H33   H     H_    0.771440 0.757763 0.641005 0.146786
H34   H     H_    0.885088 0.870959 0.641078 0.153763
H35   H     H_    0.684883 0.710332 0.288762 0.203179
O1    O     O_R   0.590590 0.537990 0.448210 -0.588399
O2    O     O_R   0.055390 0.642370 0.093330 -0.586192
O3    O     O_R   0.042570 0.447840 0.094710 -0.582840
O4    O     O_R   0.146960 0.552180 0.094690 -0.590233
O5    O     O_R   0.952400 0.357670 0.914360 -0.559182
O6    O     O_R   0.056780 0.462020 0.914330 -0.596757
O7    O     O_R   0.860840 0.447860 0.913000 -0.590755
O8    O     O_R   0.965220 0.552200 0.912980 -0.588910
O9    O     O_R   0.946640 0.090180 0.536890 -0.584907
O10   O     O_R   0.051820 0.090220 0.642110 -0.591359
O11   O     O_R   0.857230 0.909860 0.447430 -0.582550
O12   O     O_R   0.589760 0.642350 0.551800 -0.584339
O13   O     O_R   0.962420 0.909900 0.552660 -0.590375
O14   O     O_R   0.948170 0.909880 0.357990 -0.588319
O15   O     O_R   0.053360 0.909920 0.463210 -0.581394
O16   O     O_R   0.037580 0.090200 0.447440 -0.588560
O17   O     O_R   0.142770 0.090240 0.552670 -0.585167
O18   O     O_R   0.409550 0.447830 0.357350 -0.592928
O19   O     O_R   0.408710 0.552190 0.460940 -0.586190
O20   O     O_R   0.410240 0.357650 0.448200 -0.584039
O21   O     O_R   0.409410 0.462010 0.551790 -0.588906
O22   O     O_R   0.591290 0.447810 0.539060 -0.583006
O23   O     O_R   0.590450 0.552170 0.642650 -0.588340
O24   O     O_R   0.951010 0.538020 0.093350 -0.589793
N1    N     N_2   0.021813 0.238076 0.904574 -0.411026
H36   H     H_    0.995504 0.174915 0.893234 0.247261
C61   C     C_3   0.110478 0.293350 0.977690 -0.688475
H37   H     H_    0.155059 0.272534 0.962261 0.218179
H38   H     H_    0.112104 0.288005 0.034783 0.222773
H39   H     H_    0.134057 0.362704 0.994839 0.221233

loop_
_geom_bond_atom_site_label_1
_geom_bond_atom_site_label_2
_ccdc_geom_bond_type
Cu4   O2    S    
C34   O22   A    
Cu1   O18   S    
C41   C42   A    
C54   C55   S    
C19   C20   S    
C33   O6    A    
C32   C58   S    
C55   H27   S    
C61   H37   S    
Cu2   O23   S    
C7    C8    A    
C23   O20   A    
C53   C54   A    
C52   C53   A    
C40   C46   A    
C21   H10   S    
C26   C27   A    
N1    H36   S    
Cu6   O15   S    
C25   H11   S    
C14   C21   S    
C28   C29   S    
C5    C6    A    
C2    C60   S    
C13   H4    S    
C49   C54   A    
C49   C57   S    
Cu1   O20   S    
C18   C19   A    
C59   H23   S    
C30   H17   S    
C37   O11   A    
C35   O7    A    
C33   C50   S    
C12   O19   A    
C2    H31   S    
C27   C39   S    
C8    C9    A    
C34   O23   A    
C23   C24   S    
C48   H22   S    
C45   H12   S    
C36   C53   S    
Cu6   O10   S    
C4    C12   S    
Cu6   O13   S    
C18   C35   S    
C15   C34   S    
Cu2   O19   S    
C35   O8    A    
C32   O3    A    
C59   C60   S    
C22   C28   A    
Cu5   O14   S    
C16   H5    S    
C1    O12   A    
C44   C46   A    
C17   C18   A    
C23   O21   A    
C4    C45   S    
C1    C6    S    
C43   H19   S    
C47   H20   S    
C57   H28   S    
Cu4   O4    S    
C42   H18   S    
C24   C25   A    
C45   C56   S    
Cu2   O12   S    
C16   C17   A    
C37   O13   A    
C25   C26   A    
C39   O16   A    
C51   C52   A    
C31   O2    A    
C30   H16   S    
C43   C44   A    
Cu5   O11   S    
C38   C44   S    
C29   C30   S    
C12   O18   A    
C38   O15   A    
C3    C56   S    
C47   C48   S    
C4    C60   S    
C36   O10   A    
C9    C37   S    
C50   C51   A    
C20   H8    S    
C11   H35   S    
Cu3   O5    S    
Cu3   O24   S    
C7    H33   S    
C60   H30   S    
C40   C41   A    
C55   H26   S    
C29   H15   S    
C49   C50   A    
C32   O4    A    
C55   C57   S    
C36   O9    A    
C22   C24   A    
C42   C43   A    
C31   O24   A    
C3    C4    S    
C39   O17   A    
C61   H39   S    
Cu2   O21   S    
C11   H2    S    
Cu4   O6    S    
C9    C10   A    
C57   H29   S    
C40   C48   S    
C46   C47   S    
C45   C59   S    
N1    C61   S    
C31   C41   S    
C51   N1    S    
C5    C13   S    
C14   C19   A    
C33   O5    A    
Cu3   O3    S    
C61   H38   S    
C2    C58   S    
C6    C7    A    
C56   H1    S    
C21   H9    S    
C26   H13   S    
Cu1   O22   S    
Cu1   O1    S    
C58   C59   S    
C5    C10   A    
C22   C30   S    
C38   O14   A    
C11   C13   S    
C3    H32   S    
Cu4   O8    S    
C29   H14   S    
C13   H3    S    
C56   C58   S    
C20   H7    S    
C2    C3    S    
C8    H34   S    
Cu1   Cu2   S    
Cu5   O9    S    
C10   C11   S    
Cu3   Cu4   S    
C20   C21   S    
C17   H6    S    
Cu5   Cu6   S    
Cu6   O17   S    
C27   C28   A    
Cu5   O16   S    
C14   C15   A    
C52   H25   S    
C48   H24   S    
Cu3   O7    S    
C1    O1    A    
C15   C16   A    
C47   H21   S    
