data_mof_unit_34073.cif
_audit_creation_date              2012-12-10T17:25:29-0500
_audit_creation_method            fapswitch 2.2
_symmetry_space_group_name_H-M    P1
_symmetry_Int_Tables_number       1
_space_group_crystal_system       triclinic
_cell_length_a                    10.112575
_cell_length_b                    10.539789
_cell_length_c                    23.388679
_cell_angle_alpha                 89.761804
_cell_angle_beta                  81.877968
_cell_angle_gamma                 95.293005
_cell_volume                      2456.96678125

loop_
_atom_site_label
_atom_site_type_symbol
_atom_type_description
_atom_site_fract_x
_atom_site_fract_y
_atom_site_fract_z
_atom_type_partial_charge
C1    C     C_R   0.556249 0.735104 0.494965 0.880666
C2    C     C_R   0.388338 0.411662 0.306552 -0.044424
C3    C     C_R   0.604993 0.526203 0.759510 -0.081840
C4    C     C_R   0.385530 0.411934 0.246991 -0.072071
C5    C     C_R   0.488964 0.467641 0.792052 0.265522
C6    C     C_R   0.484896 0.484075 0.209874 0.260485
C7    C     C_2   0.587283 0.872064 0.483397 0.063505
C8    C     C_2   0.411111 0.129408 0.494213 0.061215
C9    C     C_2   0.496830 0.931012 0.458642 -0.225595
C10   C     C_2   0.499917 0.068743 0.458393 -0.218634
C11   C     C_2   0.927487 0.510538 0.504844 -0.115310
C12   C     C_R   0.443743 0.265358 0.501690 0.878017
C13   C     C_2   0.072579 0.489278 0.495179 -0.106839
C14   C     C_R   0.501506 0.501240 0.610592 0.849480
C15   C     C_R   0.497969 0.496759 0.389690 0.834284
C16   C     C_R   0.516504 0.372788 0.120363 0.511319
C17   C     C_R   0.439641 0.571081 0.882410 0.513311
C18   C     C_R   0.444529 0.582612 0.122122 0.526327
C19   C     C_R   0.512118 0.361468 0.880577 0.527424
C20   C     C_R   0.441519 0.581020 0.062691 -0.028127
C21   C     C_R   0.509763 0.361002 0.940387 -0.028833
C22   C     C_R   0.475348 0.471519 0.031681 -0.061541
C23   C     C_R   0.379868 0.420877 0.765658 -0.084597
C24   C     C_R   0.474725 0.470093 0.971498 -0.061690
C25   C     C_R   0.510486 0.364005 0.060741 -0.048481
C26   C     C_R   0.440399 0.577965 0.942408 -0.049558
C27   C     C_R   0.406998 0.687149 0.033935 -0.234569
C28   C     C_R   0.542186 0.254143 0.969308 -0.234763
C29   C     C_R   0.408381 0.688004 0.974197 0.221847
C30   C     C_R   0.540427 0.253241 0.029098 0.223414
C31   C     C_3   0.499371 0.885892 0.926342 -0.669778
C32   C     C_3   0.447644 0.057646 0.078585 -0.670032
C33   C     C_2   0.734359 0.612315 0.667123 0.403172
C34   C     C_R   0.588427 0.557112 0.231408 -0.085066
C35   C     C_2   0.286889 0.326837 0.344691 0.401776
C36   C     C_3   0.277844 0.070525 0.586760 -0.728063
C37   C     C_3   0.779140 0.885988 0.539842 -0.741689
C38   C     C_R   0.386018 0.433662 0.706355 -0.192386
C39   C     C_R   0.592358 0.558851 0.290412 -0.197312
C40   C     C_R   0.501341 0.493631 0.672900 -0.135546
C41   C     C_R   0.492407 0.487971 0.328160 -0.123722
C42   C     C_R   0.612966 0.541108 0.699635 -0.034392
H1    H     H_    0.381740 0.771764 0.057579 0.182223
H2    H     H_    0.307849 0.354402 0.228804 0.175951
H3    H     H_    0.589304 0.120977 0.435157 0.167542
H4    H     H_    0.409524 0.877738 0.445186 0.166963
H5    H     H_    0.108304 0.420402 0.463679 0.168690
H6    H     H_    0.891869 0.579292 0.536381 0.156587
H7    H     H_    0.307657 0.849083 0.970620 0.217156
H8    H     H_    0.470383 0.968278 0.902772 0.257792
H9    H     H_    0.571521 0.835737 0.896326 0.263542
H10   H     H_    0.549194 0.921508 0.963324 0.197938
H11   H     H_    0.638107 0.090074 0.032538 0.216680
H12   H     H_    0.567499 0.169592 0.945645 0.181636
H13   H     H_    0.476175 0.974902 0.102064 0.258889
H14   H     H_    0.394776 0.022289 0.042404 0.199033
H15   H     H_    0.378392 0.109808 0.109069 0.262786
H16   H     H_    0.734438 0.647002 0.623570 0.062294
H17   H     H_    0.299597 0.307607 0.389041 0.067057
H18   H     H_    0.259704 0.977604 0.509541 0.241300
H19   H     H_    0.179128 0.022501 0.605998 0.241914
H20   H     H_    0.283726 0.170721 0.601465 0.241932
H21   H     H_    0.358614 0.020687 0.602264 0.246223
H22   H     H_    0.757632 0.004203 0.469569 0.241093
H23   H     H_    0.120232 0.615905 0.553099 0.180910
H24   H     H_    0.849123 0.960725 0.555698 0.245222
H25   H     H_    0.839307 0.813323 0.517386 0.240920
H26   H     H_    0.711028 0.843044 0.577739 0.227465
H27   H     H_    0.879720 0.384182 0.446848 0.181436
H28   H     H_    0.289756 0.376529 0.791279 0.146679
H29   H     H_    0.665715 0.612137 0.202326 0.147941
H30   H     H_    0.300475 0.395954 0.686462 0.167679
H31   H     H_    0.672369 0.616960 0.306789 0.162787
H32   H     H_    0.686852 0.563895 0.781689 0.172476
N1    N     N_R   0.482220 0.479958 0.149247 -0.359132
N2    N     N_R   0.478427 0.465687 0.853290 -0.360269
N3    N     N_2   0.842710 0.448880 0.476480 -0.187872
N4    N     N_2   0.157290 0.551120 0.523520 -0.191961
N5    N     N_2   0.380823 0.801493 0.946751 -0.252383
N6    N     N_2   0.567016 0.139553 0.056685 -0.252973
N7    N     N_2   0.290053 0.065893 0.524440 -0.302001
N8    N     N_2   0.702639 0.943222 0.500539 -0.295507
O1    O     O_R   0.431060 0.692470 0.504730 -0.614418
O2    O     O_2   0.400146 0.667777 0.852932 -0.515492
O3    O     O_2   0.410368 0.685844 0.152789 -0.559086
O4    O     O_2   0.548271 0.259161 0.849694 -0.556319
O5    O     O_2   0.836394 0.634801 0.689127 -0.567574
O6    O     O_2   0.187915 0.275615 0.326693 -0.567514
O7    O     O_R   0.568940 0.307530 0.495270 -0.609760
O8    O     O_R   0.651120 0.659650 0.489640 -0.604055
O9    O     O_R   0.348880 0.340350 0.510360 -0.599441
O10   O     O_R   0.389950 0.516450 0.591390 -0.591331
O11   O     O_R   0.610050 0.483550 0.408610 -0.597290
O12   O     O_R   0.610020 0.483630 0.576300 -0.616841
O13   O     O_R   0.389980 0.516370 0.423700 -0.622681
O14   O     O_2   0.558523 0.276911 0.149468 -0.517724
Zn1   Zn    Zn3+2 0.353060 0.521920 0.510080 0.953688
Zn2   Zn    Zn3+2 0.646940 0.478080 0.489920 0.952293

loop_
_geom_bond_atom_site_label_1
_geom_bond_atom_site_label_2
_ccdc_geom_bond_type
C2    C35   S    
C3    C42   A    
C18   N1    A    
C27   C29   A    
C16   N1    A    
C12   O9    A    
H27   N3    S    
C31   H10   S    
C19   O4    S    
C6    N1    S    
C39   C41   A    
C33   H16   S    
C17   C26   A    
C19   N2    A    
C19   C21   A    
C24   C26   A    
C15   O13   A    
O12   Zn2   S    
C2    C41   A    
C37   H26   S    
C25   C30   A    
C35   H17   S    
C35   O6    D    
C3    H32   S    
C11   N3    D    
C34   C39   A    
C22   C25   A    
C5    C23   A    
C17   N2    A    
C36   H21   S    
C9    C10   S    
C32   H13   S    
C30   N6    S    
C40   C42   A    
C9    H4    S    
C23   H28   S    
C11   H6    S    
C32   H15   S    
C10   H3    S    
C36   H20   S    
O10   Zn1   S    
C38   H30   S    
C16   O14   S    
C18   O3    S    
C8    N7    S    
C12   O7    A    
H11   N6    S    
C15   C41   S    
C4    C6    A    
C13   H5    S    
C28   H12   S    
C4    H2    S    
C6    C34   A    
C2    C4    A    
C27   H1    S    
C32   N6    S    
H18   N7    S    
C29   N5    S    
C36   N7    S    
C8    C12   S    
C14   O10   A    
C37   H24   S    
N4    Zn1   S    
N3    Zn2   S    
O8    Zn2   S    
O9    Zn1   S    
H22   N8    S    
C21   C28   A    
C20   C22   A    
C22   C24   A    
C37   N8    S    
C33   C42   S    
C31   H8    S    
C36   H19   S    
C1    O8    A    
C16   C25   A    
C7    C9    D    
C13   N4    D    
H23   N4    S    
C1    C7    S    
C31   H9    S    
C3    C5    A    
C15   O11   A    
O13   Zn1   S    
C31   N5    S    
C20   C27   A    
C1    O1    A    
C23   C38   A    
O7    Zn2   S    
C17   O2    S    
O11   Zn2   S    
C5    N2    S    
C28   C30   A    
C33   O5    D    
C38   C40   A    
C11   C13   S    
C37   H25   S    
C14   O12   A    
C18   C20   A    
C39   H31   S    
C14   C40   S    
H7    N5    S    
C7    N8    S    
C26   C29   A    
C8    C10   D    
O1    Zn1   S    
C21   C24   A    
C34   H29   S    
C32   H14   S    
