data_mof_unit_39211.cif
_audit_creation_date              2012-10-26T20:19:01-0400
_audit_creation_method            fapswitch 2.2
_symmetry_space_group_name_H-M    P1
_symmetry_Int_Tables_number       1
_space_group_crystal_system       triclinic
_cell_length_a                    15.076943
_cell_length_b                    12.985719
_cell_length_c                    11.673482
_cell_angle_alpha                 99.896968
_cell_angle_beta                  93.961849
_cell_angle_gamma                 90.4932
_cell_volume                      2245.6119791

loop_
_atom_site_label
_atom_site_type_symbol
_atom_type_description
_atom_site_fract_x
_atom_site_fract_y
_atom_site_fract_z
_atom_type_partial_charge
C1    C     C_R   0.499656 0.299374 0.478601 0.575683
C2    C     C_R   0.446794 0.870347 0.620237 0.192486
C3    C     C_R   0.462500 0.135613 0.546594 0.225290
C4    C     C_R   0.537474 0.864387 0.453409 0.225300
C5    C     C_R   0.475157 0.028550 0.543704 -0.046154
C6    C     C_R   0.524795 0.971443 0.456279 -0.046165
C7    C     C_R   0.415621 0.402567 0.020735 -0.149607
C8    C     C_R   0.584392 0.597406 0.979268 -0.149454
C9    C     C_R   0.424545 0.409653 0.143698 0.435796
C10   C     C_R   0.575480 0.590314 0.856311 0.435631
C11   C     C_R   0.536446 0.541986 0.157301 0.011291
C12   C     C_R   0.500330 0.700625 0.521398 0.575716
C13   C     C_R   0.463543 0.458021 0.842698 0.011340
C14   C     C_R   0.530630 0.535236 0.034487 -0.049603
C15   C     C_R   0.469363 0.464761 0.965514 -0.049570
C16   C     C_R   0.328524 0.499690 0.500162 0.528888
C17   C     C_R   0.671476 0.500309 0.499837 0.528866
C18   C     C_R   0.820403 0.512605 0.605687 -0.137008
C19   C     C_R   0.179597 0.487392 0.394312 -0.137025
C20   C     C_R   0.768308 0.500525 0.499698 -0.024914
C21   C     C_R   0.231692 0.499473 0.500302 -0.024919
C22   C     C_R   0.808935 0.488460 0.393808 -0.156716
C23   C     C_R   0.034830 0.475562 0.287824 -0.136130
C24   C     C_R   0.191065 0.511538 0.606191 -0.156731
C25   C     C_R   0.901316 0.488124 0.393184 0.008013
C26   C     C_R   0.098684 0.511873 0.606815 0.008005
C27   C     C_R   0.953508 0.500156 0.499932 0.061145
C28   C     C_R   0.046492 0.499841 0.500067 0.061145
C29   C     C_R   0.912820 0.512493 0.606551 0.006117
C30   C     C_R   0.087180 0.487504 0.393449 0.006123
C31   C     C_R   0.942354 0.475878 0.287695 -0.139107
C32   C     C_R   0.057646 0.524119 0.712305 -0.139113
C33   C     C_3   0.674155 0.800611 0.415592 -0.131140
C34   C     C_R   0.965170 0.524435 0.712176 -0.136123
C35   C     C_3   0.325843 0.199427 0.584486 -0.131131
C36   C     C_3   0.318306 0.796401 0.660312 -0.105104
C37   C     C_3   0.681532 0.203561 0.339367 -0.105073
C38   C     C_3   0.622817 0.756570 0.843891 -0.110057
C39   C     C_3   0.376976 0.243361 0.155779 -0.109995
C40   C     C_R   0.496250 0.813645 0.533483 0.014387
C41   C     C_R   0.503712 0.186351 0.466502 0.014403
C42   C     C_R   0.561449 0.022255 0.373446 -0.110900
C43   C     C_R   0.438470 0.977728 0.626504 -0.110865
C44   C     C_R   0.553108 0.129632 0.379691 0.192599
Cu1   Cu    Cu3+1 0.506660 0.507730 0.615930 1.020759
Cu2   Cu    Cu3+1 0.493340 0.492270 0.384070 1.020897
H1    H     H_    0.789187 0.522174 0.687698 0.155388
H2    H     H_    0.934593 0.533976 0.794578 0.110330
H3    H     H_    0.598611 0.979693 0.304968 0.175222
H4    H     H_    0.401277 0.020277 0.694958 0.175201
H5    H     H_    0.416673 0.403497 0.788915 0.151383
H6    H     H_    0.583311 0.596518 0.211083 0.151387
H7    H     H_    0.713317 0.756319 0.347161 0.133436
H8    H     H_    0.676623 0.757129 0.489975 0.121336
H9    H     H_    0.706374 0.879252 0.443181 0.104954
H10   H     H_    0.323362 0.242881 0.510079 0.121346
H11   H     H_    0.286714 0.243760 0.652929 0.133407
H12   H     H_    0.210813 0.477823 0.312301 0.155303
H13   H     H_    0.293595 0.120798 0.556945 0.104942
H14   H     H_    0.313487 0.744657 0.573419 0.114460
H15   H     H_    0.279330 0.868330 0.656858 0.102176
H16   H     H_    0.287849 0.753140 0.722272 0.143587
H17   H     H_    0.720520 0.131640 0.342810 0.102126
H18   H     H_    0.686421 0.255352 0.426228 0.114454
H19   H     H_    0.711918 0.246782 0.277316 0.143574
H20   H     H_    0.665662 0.779506 0.925759 0.095310
H21   H     H_    0.552752 0.779597 0.857465 0.160685
H22   H     H_    0.647021 0.801238 0.778900 0.137550
H23   H     H_    0.366653 0.349564 0.968821 0.093130
H24   H     H_    0.446879 0.220205 0.141188 0.159866
H25   H     H_    0.333526 0.220675 0.074402 0.095391
H26   H     H_    0.353302 0.198592 0.220999 0.137858
H27   H     H_    0.633387 0.650373 0.031178 0.093239
H28   H     H_    0.768808 0.479027 0.311797 0.124269
H29   H     H_    0.231192 0.520971 0.688203 0.124277
H30   H     H_    0.902949 0.466558 0.205208 0.106512
H31   H     H_    0.097050 0.533439 0.794791 0.106509
H32   H     H_    0.065407 0.466020 0.205422 0.110301
N1    N     N_R   0.516670 0.519360 0.790130 -0.216758
N2    N     N_R   0.483330 0.480640 0.209870 -0.216721
O1    O     O_R   0.504720 0.354460 0.582000 -0.483432
O2    O     O_3   0.413741 0.191801 0.631732 -0.571193
O3    O     O_3   0.407545 0.821285 0.700644 -0.563149
O4    O     O_3   0.592264 0.178669 0.299190 -0.562854
O5    O     O_3   0.630081 0.648849 0.800207 -0.542886
O6    O     O_3   0.370020 0.351054 0.199840 -0.542725
O7    O     O_R   0.495280 0.645540 0.418000 -0.483413
O8    O     O_R   0.493480 0.341410 0.386200 -0.440715
O9    O     O_R   0.506520 0.658590 0.613800 -0.441072
O10   O     O_R   0.375880 0.506510 0.597910 -0.524926
O11   O     O_R   0.624120 0.493490 0.402090 -0.524962
O12   O     O_R   0.364640 0.493450 0.402110 -0.470124
O13   O     O_R   0.635360 0.506550 0.597890 -0.470052
O14   O     O_3   0.586266 0.808209 0.368301 -0.571206

loop_
_geom_bond_atom_site_label_1
_geom_bond_atom_site_label_2
_ccdc_geom_bond_type
C33   H9    S    
C13   N1    A    
C10   O5    S    
C25   C31   A    
C16   C21   S    
C27   C29   A    
C17   O11   A    
Cu1   O13   S    
C18   H1    S    
Cu1   Cu2   S    
C26   C32   A    
C16   O10   A    
C19   C21   A    
C24   C26   A    
C5    C6    A    
C11   C14   A    
Cu2   O12   S    
C36   O3    S    
C1    O1    A    
C17   C20   S    
C35   H13   S    
C11   H6    S    
C32   H31   S    
C13   H5    S    
C38   H20   S    
C22   C25   A    
C37   H19   S    
C39   H26   S    
C37   O4    S    
Cu1   O9    S    
C1    O8    A    
C7    C15   A    
C5    C43   A    
C33   O14   S    
C2    O3    S    
C42   C44   A    
C36   H16   S    
C37   H17   S    
C35   O2    S    
Cu2   O8    S    
C19   H12   S    
C33   H7    S    
C38   O5    S    
C23   C30   A    
C4    C40   A    
C12   O9    A    
C4    C6    A    
Cu2   O11   S    
C36   H14   S    
C29   C34   A    
C9    N2    A    
C32   C34   A    
C12   C40   S    
C9    O6    S    
C2    C43   A    
C3    O2    S    
Cu1   N1    S    
C18   C29   A    
Cu1   O10   S    
C4    O14   S    
C1    C41   S    
C38   H22   S    
C16   O12   A    
C13   C15   A    
C41   C44   A    
C17   O13   A    
C22   H28   S    
C36   H15   S    
C43   H4    S    
C37   H18   S    
Cu2   O7    S    
C33   H8    S    
C7    C9    A    
C3    C41   A    
C8    C14   A    
C12   O7    A    
C35   H10   S    
Cu1   O1    S    
C20   C22   A    
C3    C5    A    
C7    H23   S    
C10   N1    A    
C24   H29   S    
C25   C27   A    
C26   C28   A    
C44   O4    S    
C35   H11   S    
C28   C30   A    
Cu2   N2    S    
C31   H30   S    
C8    H27   S    
C39   H24   S    
C18   C20   A    
C23   H32   S    
C11   N2    A    
C42   H3    S    
C2    C40   A    
C34   H2    S    
C38   H21   S    
C8    C10   A    
C6    C42   A    
C21   C24   A    
C27   C28   A    
C39   H25   S    
C14   C15   A    
C39   O6    S    
C19   C30   A    
C23   C31   A    
