data_mof_unit_59467.cif
_audit_creation_date              2012-12-11T19:09:39-0500
_audit_creation_method            fapswitch 2.2
_symmetry_space_group_name_H-M    P1
_symmetry_Int_Tables_number       1
_space_group_crystal_system       triclinic
_cell_length_a                    8.385977
_cell_length_b                    15.146669
_cell_length_c                    27.09186
_cell_angle_alpha                 98.953909
_cell_angle_beta                  93.153239
_cell_angle_gamma                 81.0162
_cell_volume                      3355.89970983

loop_
_atom_site_label
_atom_site_type_symbol
_atom_type_description
_atom_site_fract_x
_atom_site_fract_y
_atom_site_fract_z
_atom_type_partial_charge
Ba1   Ba    Ba6+2 0.860050 0.456430 0.522540 1.673869
Ba2   Ba    Ba6+2 0.329780 0.543490 0.477450 1.697556
C1    C     C_3   0.607625 0.178982 0.700201 -0.012445
C2    C     C_R   0.891153 0.580671 0.182310 0.585661
C3    C     C_2   0.740722 0.524495 0.272106 -0.076390
C4    C     C_3   0.133977 0.270958 0.651241 0.328341
C5    C     C_3   0.700008 0.517363 0.325397 -0.073097
C6    C     C_1   0.987001 0.485437 0.343885 0.051193
C7    C     C_2   0.026413 0.485125 0.296849 -0.078789
C8    C     C_2   0.896914 0.506375 0.257767 0.207333
C9    C     C_R   0.011706 0.500837 0.104349 -0.078046
C10   C     C_R   0.059065 0.424502 0.128524 -0.041081
C11   C     C_R   0.143050 0.346376 0.101464 -0.053192
C12   C     C_3   0.630011 0.229884 0.656564 0.543775
C13   C     C_R   0.927530 0.579478 0.131636 -0.030784
C14   C     C_2   0.845453 0.526492 0.360093 -0.278939
C15   C     C_2   0.361429 0.510510 0.651315 -0.187927
C16   C     C_3   0.134869 0.247899 0.703772 -0.333219
C17   C     C_R   0.163748 0.414841 0.973990 0.020353
C18   C     C_R   0.041201 0.574691 0.978163 0.019541
C19   C     C_R   0.120628 0.493544 0.950647 0.050546
C20   C     C_R   0.238163 0.335200 0.944407 -0.101296
C21   C     C_R   0.272089 0.333437 0.894469 -0.062411
C22   C     C_R   0.233789 0.410856 0.871285 -0.021923
C23   C     C_3   0.462291 0.719038 0.635843 0.655148
C24   C     C_R   0.157601 0.491035 0.899202 -0.079969
C25   C     C_R   0.118840 0.568680 0.875683 -0.039228
C26   C     C_R   0.158784 0.565555 0.825037 0.609391
C27   C     C_R   0.270205 0.409117 0.820639 0.571971
C28   C     C_3   0.200073 0.256591 0.404031 0.275375
C29   C     C_2   0.428778 0.447056 0.729964 -0.057322
C30   C     C_3   0.459325 0.436308 0.674840 -0.054332
C31   C     C_1   0.207215 0.531377 0.662005 -0.009616
C32   C     C_2   0.158755 0.523316 0.707329 -0.092611
C33   C     C_2   0.277862 0.483939 0.745669 0.209883
C34   C     C_3   0.358974 0.787984 0.672498 -0.292761
C35   C     C_R   0.130764 0.417926 0.025652 0.019289
C36   C     C_R   0.048295 0.498471 0.052892 0.051220
C37   C     C_R   0.001904 0.576626 0.029264 0.019219
C38   C     C_R   0.178206 0.343027 0.051445 -0.098527
C39   C     C_R   0.880892 0.655473 0.107692 -0.059560
C40   C     C_3   0.178864 0.158318 0.387456 -0.302247
C41   C     C_R   0.004405 0.651448 0.953296 -0.097556
C42   C     C_R   0.042458 0.648373 0.903480 -0.053543
C43   C     C_R   0.916921 0.654260 0.057907 -0.097664
C44   C     C_R   0.337802 0.172372 0.523752 0.023027
C45   C     C_3   0.920526 0.759429 0.351716 0.307064
C46   C     C_R   0.568448 0.207587 0.484232 0.049078
C47   C     C_R   0.754501 0.770770 0.484532 -0.246535
C48   C     C_R   0.846588 0.829866 0.469690 0.053307
C49   C     C_R   0.786497 0.922349 0.473317 -0.036734
C50   C     C_R   0.633632 0.957689 0.494187 0.074361
C51   C     C_R   0.548506 0.896594 0.513495 0.005906
C52   C     C_3   0.942092 0.730551 0.588191 0.335797
C53   C     C_R   0.563451 0.051311 0.497622 0.028814
C54   C     C_R   0.411009 0.081012 0.520644 -0.050156
C55   C     C_R   0.336055 0.019368 0.541009 -0.059103
C56   C     C_3   0.854027 0.811467 0.309157 0.002861
C57   C     C_R   0.404948 0.930043 0.538375 -0.029181
C58   C     C_R   0.639061 0.116582 0.479211 -0.152386
C59   C     C_R   0.416490 0.234246 0.504905 -0.080883
C60   C     C_R   0.609966 0.803060 0.508165 0.047859
C61   C     C_3   0.893371 0.831697 0.605920 0.129786
C62   C     C_3   0.725119 0.328321 0.371165 0.335351
C63   C     C_3   0.729631 0.299851 0.314531 0.240067
C64   C     C_3   0.805558 0.095328 0.612809 -0.126521
C65   C     C_3   0.758031 0.070642 0.750116 -0.232514
C66   C     C_3   0.853413 0.973793 0.339430 -0.141469
C67   C     C_3   0.397708 0.766862 0.345769 0.703488
C68   C     C_3   0.387608 0.380810 0.554773 0.012319
C69   C     C_3   0.315184 0.800432 0.299270 -0.310329
C70   C     C_R   0.021182 0.427521 0.179244 0.597470
Cl1   Cl    Cl    0.035873 0.894657 0.587750 -0.828046
Cl2   Cl    Cl    0.831774 0.187569 0.298573 -0.675769
Cl3   Cl    Cl    0.609023 0.655206 0.671408 -0.689760
Cl4   Cl    Cl    0.458484 0.859968 0.386847 -0.735159
H1    H     H_    0.236790 0.132364 0.351090 0.163982
H2    H     H_    0.538633 0.122592 0.685947 0.066091
H3    H     H_    0.795678 0.344383 0.297324 0.012813
H4    H     H_    0.604610 0.304153 0.298307 0.062443
H5    H     H_    0.506861 0.264646 0.649249 -0.117790
H6    H     H_    0.534245 0.225863 0.728988 0.092843
H7    H     H_    0.381801 0.675526 0.613576 -0.010495
H8    H     H_    0.271541 0.832490 0.651928 0.150752
H9    H     H_    0.291374 0.752926 0.695674 0.114770
H10   H     H_    0.435793 0.830708 0.697379 0.127166
H11   H     H_    0.096896 0.310202 0.730387 0.113336
H12   H     H_    0.235804 0.116579 0.415786 0.066587
H13   H     H_    0.978439 0.690802 0.335423 -0.003373
H14   H     H_    0.816077 0.752116 0.373614 0.044049
H15   H     H_    0.952518 0.819114 0.285062 0.076270
H16   H     H_    0.771779 0.770520 0.285428 0.131081
H17   H     H_    0.309619 0.739536 0.365857 0.088867
H18   H     H_    0.403357 0.825209 0.277628 0.129299
H19   H     H_    0.215911 0.856705 0.309983 0.114833
H20   H     H_    0.016210 0.312030 0.643933 0.116692
H21   H     H_    0.264410 0.744469 0.275262 0.077294
H22   H     H_    0.151503 0.468074 0.286205 0.126349
H23   H     H_    0.048450 0.152141 0.383676 0.150047
H24   H     H_    0.182432 0.286700 0.118976 0.131868
H25   H     H_    0.521497 0.419580 0.755284 0.101029
H26   H     H_    0.329495 0.270346 0.873948 0.118488
H27   H     H_    0.270909 0.271946 0.958428 0.069950
H28   H     H_    0.244799 0.280247 0.034291 0.072250
H29   H     H_    0.643508 0.536851 0.244729 0.099074
H30   H     H_    0.815392 0.716961 0.127504 0.122749
H31   H     H_    0.947237 0.716058 0.971372 0.070935
H32   H     H_    0.231965 0.311530 0.649026 -0.046329
H33   H     H_    0.011454 0.709514 0.886720 0.125317
H34   H     H_    0.832562 0.698179 0.582094 0.021472
H35   H     H_    0.035202 0.549087 0.717706 0.152924
H36   H     H_    0.874400 0.715752 0.042923 0.072077
H37   H     H_    0.834078 0.565068 0.397375 0.073749
H38   H     H_    0.410412 0.534462 0.620745 0.042187
H39   H     H_    0.222025 0.038820 0.559256 0.151719
H40   H     H_    0.752697 0.099017 0.460776 0.085763
H41   H     H_    0.801535 0.699387 0.480866 0.030149
H42   H     H_    0.861588 0.964367 0.459757 0.058191
H43   H     H_    0.050359 0.199269 0.705384 0.137141
H44   H     H_    0.341537 0.887186 0.555653 0.161217
H45   H     H_    0.007825 0.719352 0.552698 0.045677
H46   H     H_    0.257277 0.216430 0.714656 0.126804
H47   H     H_    0.331082 0.258922 0.409794 0.007753
H48   H     H_    0.131202 0.280495 0.438615 0.050670
H49   H     H_    0.685531 0.204498 0.581405 0.195142
H50   H     H_    0.839674 0.064214 0.574277 0.151576
H51   H     H_    0.764990 0.042615 0.631245 0.126882
H52   H     H_    0.912767 0.118941 0.633159 0.181945
H53   H     H_    0.814470 0.196793 0.744232 0.221450
H54   H     H_    0.881179 0.048982 0.765303 0.123965
H55   H     H_    0.719914 0.012406 0.724502 0.125207
H56   H     H_    0.774764 0.856861 0.589589 0.014904
H57   H     H_    0.673988 0.090869 0.781595 0.116938
H58   H     H_    0.658033 0.914597 0.307776 0.235918
H59   H     H_    0.771522 0.035381 0.355253 0.149681
H60   H     H_    0.951820 0.960701 0.367526 0.139564
H61   H     H_    0.905250 0.986512 0.304796 0.148996
H62   H     H_    0.317782 0.357890 0.478972 0.195273
H63   H     H_    0.284277 0.420108 0.572415 0.089563
H64   H     H_    0.454633 0.433943 0.547400 0.139450
H65   H     H_    0.438723 0.337742 0.582720 -0.015131
H66   H     H_    0.883244 0.845449 0.647218 0.122750
H67   H     H_    0.849438 0.331412 0.386172 0.023077
H68   H     H_    0.650180 0.395636 0.379658 -0.055832
N1    N     N_R   0.937544 0.505063 0.205712 -0.425918
N2    N     N_R   0.233945 0.486173 0.797739 -0.423955
N3    N     N_2   0.675919 0.169785 0.610631 -0.461613
N4    N     N_2   0.760742 0.145831 0.723359 -0.422959
N5    N     N_2   0.763069 0.898695 0.328292 -0.395342
N6    N     N_2   0.343584 0.325934 0.509728 -0.426531
O1    O     O_2   0.906490 0.548660 0.619040 -0.403659
O2    O     O_2   0.184158 0.825551 0.467819 -0.418613
O3    O     O_3   0.037648 0.804227 0.380217 -0.627826
O4    O     O_3   0.138490 0.548590 0.558860 -0.521342
O5    O     O_3   0.572560 0.389970 0.472910 -0.504726
O6    O     O_2   0.345680 0.723560 0.528460 -0.454242
O7    O     O_3   0.544560 0.764995 0.606749 -0.670978
O8    O     O_2   0.359752 0.573147 0.325451 -0.526966
O9    O     O_3   0.535284 0.703926 0.331581 -0.629831
O10   O     O_2   0.060826 0.360469 0.199574 -0.566795
O11   O     O_2   0.333703 0.338346 0.796885 -0.636903
O12   O     O_3   0.656762 0.265096 0.392024 -0.613192
O13   O     O_2   0.818994 0.649441 0.205661 -0.618137
O14   O     O_2   0.128911 0.634174 0.805655 -0.580785
O15   O     O_3   0.686290 0.382320 0.585720 -0.496415
O16   O     O_2   0.792303 0.457299 0.675991 -0.439192
O17   O     O_3   0.039710 0.693863 0.625441 -0.625131
O18   O     O_3   0.743715 0.290406 0.669980 -0.627614
O19   O     O_2   0.844020 0.276410 0.471510 -0.473740
O20   O     O_3   0.101490 0.335510 0.560360 -0.492825
O21   O     O_2   0.999787 0.176191 0.530456 -0.491374
O22   O     O_3   0.156108 0.190667 0.617018 -0.621433
O23   O     O_2   0.283210 0.451320 0.380930 -0.471784
O24   O     O_3   0.051220 0.451340 0.441130 -0.512431
O25   O     O_3   0.503420 0.617610 0.414270 -0.458135
O26   O     O_3   0.142716 0.307111 0.366166 -0.599487
O27   O     O_3   0.617160 0.609950 0.527080 -0.475523
O28   O     O_3   0.088220 0.664410 0.439630 -0.489595
P1    P     P_3+3 0.071960 0.575810 0.612130 1.003685
P2    P     P_3+3 0.664360 0.290070 0.457280 0.992857
P3    P     P_3+3 0.145757 0.217815 0.556291 0.953661
P4    P     P_3+3 0.117760 0.424110 0.387870 0.983001
P5    P     P_3+3 0.041298 0.781631 0.441550 1.003583
P6    P     P_3+3 0.669789 0.395925 0.651532 0.979048
P7    P     P_3+3 0.529786 0.724496 0.542426 0.950429
P8    P     P_3+3 0.521816 0.598837 0.349266 0.953480

loop_
_geom_bond_atom_site_label_1
_geom_bond_atom_site_label_2
_ccdc_geom_bond_type
O17   P1    S    
C53   C54   A    
C68   H64   S    
C7    H22   S    
C63   H3    S    
C31   P1    S    
C5    P8    S    
C48   P5    S    
C68   N6    S    
C52   O17   S    
C19   C24   A    
C59   N6    S    
C14   H37   S    
O24   P4    S    
C51   C57   A    
C43   H36   S    
C55   H39   S    
C69   H18   S    
C4    O22   S    
O6    P7    D    
C54   C55   A    
O26   P4    S    
C69   H21   S    
C24   C25   A    
Ba2   O5    S    
C29   H25   S    
C44   P3    S    
C17   C19   A    
O7    P7    S    
C32   C33   S    
C35   C38   A    
C67   H17   S    
Ba2   O23   S    
C36   C37   A    
Ba1   P2    S    
C55   C57   A    
C21   H26   S    
C69   H19   S    
C52   C61   S    
C70   N1    Am   
Ba1   O20   S    
C49   H42   S    
O27   P7    S    
C64   H51   S    
C52   H34   S    
C67   Cl4   S    
Ba1   O5    S    
Ba1   Ba2   S    
Ba2   P4    S    
C67   C69   S    
C22   C27   A    
H53   N4    S    
C66   N5    S    
C17   C35   A    
C45   C56   S    
C9    C13   A    
O22   P3    S    
C47   H41   S    
O3    P5    S    
C6    C7    D    
O18   P6    S    
C21   C22   A    
Ba2   O27   S    
C7    C8    S    
O19   P2    D    
O12   P2    S    
O28   P5    S    
C50   C53   A    
C37   C43   A    
C42   H33   S    
C10   C70   A    
C68   H63   S    
Ba2   O4    S    
C63   H4    S    
C53   C58   A    
C45   O3    S    
C32   H35   S    
C45   H13   S    
C66   H61   S    
C15   C31   D    
O8    P8    D    
C28   O26   S    
O21   P3    D    
C15   H38   S    
C46   C58   A    
C57   H44   S    
C4    C16   S    
Ba1   O24   S    
C39   H30   S    
C44   C59   A    
C49   C50   A    
C27   O11   D    
C66   H60   S    
C17   C20   A    
O16   P6    D    
C13   C39   A    
C62   O12   S    
H49   N3    S    
C27   N2    Am   
C3    C5    S    
C18   C37   A    
C3    H29   S    
C62   H68   S    
C34   H10   S    
H58   N5    S    
C12   N3    S    
H62   N6    S    
C63   Cl2   S    
C64   H50   S    
C23   Cl3   S    
C33   N2    S    
C9    C36   A    
C41   C42   A    
C35   C36   A    
Ba2   O25   S    
C38   H28   S    
C51   C60   A    
O1    P1    D    
C29   C30   S    
Ba1   O15   S    
C1    H6    S    
C31   C32   D    
C2    O13   D    
O4    P1    S    
C48   C49   A    
C41   H31   S    
C61   H56   S    
C10   C11   A    
O2    P5    D    
C28   H47   S    
C64   N3    S    
C1    C12   S    
C16   H46   S    
C60   P7    S    
C5    C14   S    
C52   H45   S    
C28   H48   S    
O23   P4    D    
C4    H20   S    
O20   P3    S    
C23   O7    S    
C45   H14   S    
C29   C33   D    
C58   H40   S    
C65   H54   S    
C40   H12   S    
C12   O18   S    
C11   C38   A    
C46   P2    S    
C18   C41   A    
O5    P2    S    
C26   O14   D    
C56   H15   S    
C6    P4    S    
C68   H65   S    
Ba2   O6    S    
C47   C60   A    
C65   H57   S    
C23   C34   S    
O15   P6    S    
C30   P6    S    
C66   H59   S    
C65   H55   S    
C34   H8    S    
C22   C24   A    
C9    C10   A    
C56   N5    S    
C62   H67   S    
C34   H9    S    
C61   Cl1   S    
C26   N2    Am   
C16   H11   S    
C70   O10   D    
C62   C63   S    
C11   H24   S    
C3    C8    D    
C39   C43   A    
C40   H23   S    
Ba2   O24   S    
O25   P8    S    
Ba1   P1    S    
C46   C59   A    
C56   H16   S    
C2    C13   A    
C2    N1    Am   
Ba1   O19   S    
C67   O9    S    
C61   H66   S    
C64   H52   S    
Ba1   O1    S    
Ba1   O4    S    
C20   H27   S    
C8    N1    S    
O9    P8    S    
C1    N4    S    
C18   C19   A    
C40   H1    S    
C6    C14   D    
C47   C48   A    
C44   C54   A    
C65   N4    S    
C23   H7    S    
C15   C30   S    
C4    H32   S    
C20   C21   A    
C28   C40   S    
Ba2   O28   S    
C12   H5    S    
C25   C42   A    
C1    H2    S    
Ba1   O27   S    
C16   H43   S    
C50   C51   A    
C25   C26   A    
