data_mof_unit_46684.cif
_audit_creation_date              2012-12-11T15:41:18-0500
_audit_creation_method            fapswitch 2.2
_symmetry_space_group_name_H-M    P1
_symmetry_Int_Tables_number       1
_space_group_crystal_system       triclinic
_cell_length_a                    19.037417
_cell_length_b                    10.988028
_cell_length_c                    18.840894
_cell_angle_alpha                 90.136341
_cell_angle_beta                  89.939485
_cell_angle_gamma                 90.011746
_cell_volume                      3941.19393508

loop_
_atom_site_label
_atom_site_type_symbol
_atom_type_description
_atom_site_fract_x
_atom_site_fract_y
_atom_site_fract_z
_atom_type_partial_charge
C1    C     C_R   0.725752 0.958488 0.854739 0.555623
C2    C     C_R   0.312162 0.427622 0.033381 0.119373
C3    C     C_R   0.774473 0.810227 0.360689 0.539704
C4    C     C_2   0.495176 0.173468 0.917614 0.429283
C5    C     C_2   0.465770 0.168742 0.071924 0.485915
C6    C     C_2   0.995151 0.673482 0.917604 0.429143
C7    C     C_2   0.965726 0.668755 0.071910 0.485816
C8    C     C_2   0.508660 0.092337 0.038299 -0.117543
C9    C     C_2   0.508393 0.079169 0.960955 -0.115586
C10   C     C_2   0.008519 0.592197 0.038267 -0.117633
C11   C     C_2   0.008247 0.579089 0.960916 -0.115745
C12   C     C_R   0.762253 0.429019 0.070981 0.031058
C13   C     C_R   0.188199 0.921352 0.966988 0.022217
C14   C     C_R   0.240363 0.422596 0.927419 0.015197
C15   C     C_R   0.262251 0.929020 0.070980 0.031053
C16   C     C_R   0.740382 0.922549 0.927407 0.015149
C17   C     C_R   0.812160 0.927667 0.033384 0.119442
C18   C     C_R   0.814058 0.411198 0.953431 -0.066781
C19   C     C_R   0.187826 0.390902 0.043256 -0.107092
C20   C     C_R   0.314060 0.911161 0.953434 -0.066754
C21   C     C_R   0.687840 0.890779 0.043233 -0.107137
C22   C     C_R   0.821439 0.415497 0.026615 -0.084378
C23   C     C_R   0.182422 0.391008 0.970047 -0.134043
C24   C     C_R   0.321438 0.915457 0.026618 -0.084317
C25   C     C_R   0.274849 0.959716 0.144768 0.562240
C26   C     C_R   0.682452 0.890852 0.970023 -0.134120
C27   C     C_3   0.636626 0.519160 0.046481 0.280361
C28   C     C_3   0.359199 0.536877 0.956559 0.273169
C29   C     C_3   0.136653 0.019270 0.046464 0.280371
C30   C     C_3   0.859174 0.036964 0.956571 0.273155
C31   C     C_3   0.630009 0.512548 0.966481 0.301747
C32   C     C_3   0.366138 0.526090 0.036490 0.306127
C33   C     C_3   0.130038 0.012648 0.966464 0.301761
C34   C     C_3   0.866105 0.026183 0.036504 0.306122
C35   C     C_R   0.747159 0.415188 0.922663 -0.006190
C36   C     C_R   0.225747 0.458497 0.854743 0.555626
C37   C     C_R   0.252858 0.410471 0.076196 -0.030873
C38   C     C_R   0.247164 0.915190 0.922662 -0.006244
C39   C     C_R   0.752856 0.910447 0.076189 -0.030919
C40   C     C_R   0.504549 0.161460 0.422443 -0.035494
C41   C     C_R   0.513208 0.172791 0.570065 -0.029331
C42   C     C_R   0.004550 0.661461 0.422443 -0.035497
C43   C     C_R   0.013208 0.672790 0.570065 -0.029331
C44   C     C_R   0.537859 0.259707 0.454932 -0.076001
C45   C     C_R   0.540952 0.264971 0.527243 -0.054505
C46   C     C_R   0.037858 0.759708 0.454932 -0.076000
C47   C     C_R   0.774848 0.459714 0.144769 0.562189
C48   C     C_R   0.040951 0.764972 0.527243 -0.054504
C49   C     C_R   0.490331 0.065458 0.537923 0.335588
C50   C     C_R   0.488379 0.058001 0.464117 0.359243
C51   C     C_R   0.990334 0.565456 0.537922 0.335587
C52   C     C_R   0.988383 0.558000 0.464116 0.359234
C53   C     C_R   0.528280 0.177963 0.848904 0.557495
C54   C     C_R   0.466032 0.177745 0.147613 0.546045
C55   C     C_R   0.028277 0.677964 0.848902 0.557463
C56   C     C_R   0.966013 0.677747 0.147602 0.546058
C57   C     C_3   0.530860 0.395371 0.448686 -0.223302
C58   C     C_R   0.695546 0.430102 0.040067 -0.048816
C59   C     C_3   0.530882 0.399672 0.529099 -0.220964
C60   C     C_3   0.030857 0.895372 0.448686 -0.223297
C61   C     C_3   0.030880 0.899673 0.529100 -0.220963
C62   C     C_R   0.748273 0.415097 0.422048 0.008853
C63   C     C_R   0.249065 0.391284 0.581822 0.027609
C64   C     C_R   0.248273 0.915095 0.422048 0.008855
C65   C     C_R   0.749064 0.891286 0.581822 0.027613
C66   C     C_R   0.774428 0.309649 0.453613 -0.054775
C67   C     C_R   0.195258 0.340360 0.540940 -0.061631
C68   C     C_R   0.274428 0.809648 0.453613 -0.054773
C69   C     C_R   0.305680 0.437744 0.960333 0.034468
C70   C     C_R   0.695256 0.840368 0.540939 -0.061626
C71   C     C_R   0.775446 0.300344 0.526486 0.076167
C72   C     C_R   0.204812 0.311347 0.470860 0.019527
C73   C     C_R   0.275447 0.800344 0.526485 0.076166
C74   C     C_R   0.704811 0.811356 0.470858 0.019534
C75   C     C_R   0.710575 0.486028 0.539308 -0.170513
C76   C     C_R   0.327451 0.355924 0.481422 -0.138580
C77   C     C_R   0.210574 0.986026 0.539308 -0.170509
C78   C     C_R   0.827450 0.855920 0.481423 -0.138581
C79   C     C_R   0.710807 0.498074 0.465275 -0.158993
C80   C     C_R   0.195546 0.930154 0.040061 -0.048788
C81   C     C_R   0.317505 0.386129 0.553936 -0.075158
C82   C     C_R   0.210805 0.998071 0.465274 -0.158991
C83   C     C_R   0.817504 0.886126 0.553937 -0.075158
C84   C     C_3   0.842601 0.243051 0.446022 -0.199433
C85   C     C_3   0.122590 0.385627 0.528120 -0.145670
C86   C     C_3   0.342601 0.743050 0.446022 -0.199435
C87   C     C_3   0.622590 0.885643 0.528118 -0.145680
C88   C     C_3   0.846422 0.243383 0.526314 0.271175
C89   C     C_3   0.132913 0.353192 0.450868 0.289567
C90   C     C_3   0.346422 0.743384 0.526314 0.271177
C91   C     C_R   0.805686 0.937780 0.960336 0.034506
C92   C     C_3   0.632914 0.853208 0.450866 0.289565
C93   C     C_R   0.747092 0.389895 0.570812 0.009283
C94   C     C_R   0.269147 0.329870 0.437605 -0.027181
C95   C     C_R   0.247092 0.889895 0.570812 0.009285
C96   C     C_R   0.769147 0.829872 0.437605 -0.027184
C97   C     C_R   0.738289 0.365614 0.851976 0.556815
C98   C     C_R   0.261833 0.364645 0.147659 0.573061
C99   C     C_R   0.238289 0.865614 0.851976 0.556789
C100  C     C_R   0.761833 0.864643 0.147658 0.573013
C101  C     C_R   0.728576 0.951727 0.648475 0.551965
C102  C     C_R   0.688197 0.421303 0.966995 0.022192
C103  C     C_R   0.271526 0.955252 0.352299 0.537283
C104  C     C_R   0.228576 0.451727 0.648475 0.551969
C105  C     C_R   0.771526 0.455252 0.352299 0.537284
C106  C     C_R   0.531026 0.176995 0.644007 0.578203
C107  C     C_R   0.470799 0.175561 0.354597 0.551907
C108  C     C_R   0.031026 0.676995 0.644007 0.578189
C109  C     C_R   0.970799 0.675561 0.354597 0.551919
C110  C     C_R   0.739289 0.360112 0.645482 0.542224
C111  C     C_R   0.274473 0.310227 0.360689 0.539705
C112  C     C_R   0.239289 0.860112 0.645482 0.542228
Cr1   Cr    Cr6+3 0.769260 0.163750 0.750730 1.117784
Cr2   Cr    Cr6+3 0.385810 0.322400 0.252290 1.074766
Cr3   Cr    Cr6+3 0.114190 0.822400 0.747710 1.072114
Cr4   Cr    Cr6+3 0.885810 0.822400 0.252290 1.074796
Cr5   Cr    Cr6+3 0.230740 0.163750 0.249270 1.107006
Cr6   Cr    Cr6+3 0.269260 0.663750 0.750730 1.117800
Cr7   Cr    Cr6+3 0.730740 0.663750 0.249270 1.107002
Cr8   Cr    Cr6+3 0.612640 0.009910 0.748780 1.053285
Cr9   Cr    Cr6+3 0.387360 0.009910 0.251220 1.079283
Cr10  Cr    Cr6+3 0.112640 0.509910 0.748780 1.053284
Cr11  Cr    Cr6+3 0.887360 0.509910 0.251220 1.079256
Cr12  Cr    Cr6+3 0.614190 0.322400 0.747710 1.072086
F1    F     F_    0.845499 0.128776 0.554971 -0.650309
F2    F     F_    0.830237 0.147128 0.937503 -0.662965
F3    F     F_    0.658691 0.632540 0.068714 -0.640884
F4    F     F_    0.330295 0.647070 0.937493 -0.662968
F5    F     F_    0.567166 0.461292 0.945321 -0.562911
F6    F     F_    0.431072 0.481311 0.056532 -0.557267
F7    F     F_    0.067181 0.961443 0.945303 -0.562865
F8    F     F_    0.931049 0.981464 0.056556 -0.557253
F9    F     F_    0.470072 0.968896 0.577712 -0.639609
F10   F     F_    0.465685 0.953184 0.434261 -0.602657
F11   F     F_    0.970077 0.468892 0.577711 -0.639610
F12   F     F_    0.090616 0.257212 0.429798 -0.602632
F13   F     F_    0.965692 0.453181 0.434259 -0.602658
F14   F     F_    0.345500 0.628778 0.554972 -0.650312
F15   F     F_    0.590614 0.757233 0.429795 -0.602622
F16   F     F_    0.406843 0.211872 0.039960 -0.568057
F17   F     F_    0.471279 0.282246 0.942197 -0.521011
F18   F     F_    0.906844 0.712102 0.039960 -0.568000
F19   F     F_    0.971355 0.782312 0.942217 -0.520915
F20   F     F_    0.158754 0.132634 0.068687 -0.640847
H1    H     H_    0.686102 0.577117 0.442376 0.193258
H2    H     H_    0.082380 0.329193 0.555428 0.229526
H3    H     H_    0.334906 0.650628 0.423077 0.163055
H4    H     H_    0.582379 0.829213 0.555425 0.229530
H5    H     H_    0.887955 0.302884 0.548609 0.227275
H6    H     H_    0.132173 0.432549 0.414340 0.138527
H7    H     H_    0.387956 0.802887 0.548607 0.227281
H8    H     H_    0.632177 0.932565 0.414338 0.138517
H9    H     H_    0.874248 0.414691 0.048003 0.152044
H10   H     H_    0.131103 0.374263 0.947513 0.147999
H11   H     H_    0.374246 0.914620 0.048009 0.152096
H12   H     H_    0.361782 0.412663 0.586326 0.170049
H13   H     H_    0.631149 0.874008 0.947480 0.148028
H14   H     H_    0.590700 0.482945 0.076186 0.196824
H15   H     H_    0.407034 0.511401 0.926108 0.229283
H16   H     H_    0.090713 0.983108 0.076168 0.196843
H17   H     H_    0.907022 0.011534 0.926128 0.229238
H18   H     H_    0.546999 0.040100 0.068152 0.042595
H19   H     H_    0.533018 0.997616 0.940143 0.081242
H20   H     H_    0.046796 0.539803 0.068109 0.042704
H21   H     H_    0.032780 0.497464 0.940082 0.081268
H22   H     H_    0.981229 0.929219 0.425561 0.175362
H23   H     H_    0.186099 0.077113 0.442375 0.193268
H24   H     H_    0.076186 0.948389 0.552074 0.171706
H25   H     H_    0.481232 0.429219 0.425561 0.175361
H26   H     H_    0.576188 0.448387 0.552073 0.171707
H27   H     H_    0.578318 0.436862 0.424639 0.171503
H28   H     H_    0.479422 0.426433 0.551965 0.157013
H29   H     H_    0.078315 0.936866 0.424640 0.171508
H30   H     H_    0.979420 0.926432 0.551966 0.157014
H31   H     H_    0.683697 0.553018 0.571693 0.136011
H32   H     H_    0.379389 0.357743 0.459140 0.128568
H33   H     H_    0.183695 0.053016 0.571693 0.136013
H34   H     H_    0.861782 0.912655 0.586327 0.170039
H35   H     H_    0.879389 0.857733 0.459142 0.128564
H36   H     H_    0.860653 0.400138 0.920939 0.160866
H37   H     H_    0.141235 0.370354 0.074073 0.184352
H38   H     H_    0.360656 0.900071 0.920946 0.160936
H39   H     H_    0.641250 0.870181 0.074040 0.184488
H40   H     H_    0.643426 0.598103 0.938048 0.136918
H41   H     H_    0.349082 0.607708 0.067016 0.117390
H42   H     H_    0.143482 0.098186 0.938026 0.136936
H43   H     H_    0.849018 0.107785 0.067028 0.117384
H44   H     H_    0.885227 0.295347 0.420890 0.231675
H45   H     H_    0.119421 0.485226 0.537408 0.099414
H46   H     H_    0.385227 0.795344 0.420888 0.231676
H47   H     H_    0.619424 0.985242 0.537406 0.099402
H48   H     H_    0.834907 0.150631 0.423076 0.163059
O1    O     O_R   0.784290 0.290360 0.830540 -0.452398
O2    O     O_R   0.456020 0.282110 0.333230 -0.550535
O3    O     O_R   0.043980 0.782110 0.666770 -0.533590
O4    O     O_R   0.956020 0.782110 0.333230 -0.550529
O5    O     O_R   0.679070 0.374030 0.674430 -0.518433
O6    O     O_R   0.320930 0.374030 0.325570 -0.512921
O7    O     O_R   0.179070 0.874030 0.674430 -0.518432
O8    O     O_R   0.820930 0.874030 0.325570 -0.512917
O9    O     O_3   0.665360 0.165350 0.749070 -0.283596
O10   O     O_3   0.334640 0.165350 0.250930 -0.297064
O11   O     O_3   0.165360 0.665350 0.749070 -0.283604
O12   O     O_R   0.215710 0.290360 0.169460 -0.450867
O13   O     O_3   0.834640 0.665350 0.250930 -0.297090
O14   O     O_R   0.762610 0.041070 0.825230 -0.451164
O15   O     O_R   0.237390 0.041070 0.174770 -0.437840
O16   O     O_R   0.262610 0.541070 0.825230 -0.451164
O17   O     O_R   0.737390 0.541070 0.174770 -0.437816
O18   O     O_R   0.667390 0.924160 0.829970 -0.535827
O19   O     O_R   0.332610 0.924160 0.170030 -0.534181
O20   O     O_R   0.167390 0.424160 0.829970 -0.535808
O21   O     O_R   0.832610 0.424160 0.170030 -0.534188
O22   O     O_R   0.553980 0.081420 0.821780 -0.552679
O23   O     O_R   0.284290 0.790360 0.830540 -0.452433
O24   O     O_R   0.446020 0.081420 0.178220 -0.536540
O25   O     O_R   0.053980 0.581420 0.821780 -0.552671
O26   O     O_R   0.946020 0.581420 0.178220 -0.536614
O27   O     O_R   0.543210 0.283170 0.826740 -0.419546
O28   O     O_R   0.456790 0.283170 0.173260 -0.448083
O29   O     O_R   0.043210 0.783170 0.826740 -0.419525
O30   O     O_R   0.956790 0.783170 0.173260 -0.448027
O31   O     O_R   0.678350 0.375000 0.822720 -0.486967
O32   O     O_R   0.321650 0.375000 0.177280 -0.467945
O33   O     O_R   0.178350 0.875000 0.822720 -0.486932
O34   O     O_R   0.715710 0.790360 0.169460 -0.450934
O35   O     O_R   0.821650 0.875000 0.177280 -0.467895
O36   O     O_R   0.785060 0.289300 0.670580 -0.472631
O37   O     O_R   0.214940 0.289300 0.329420 -0.486013
O38   O     O_R   0.285060 0.789300 0.670580 -0.472623
O39   O     O_R   0.714940 0.789300 0.329420 -0.486002
O40   O     O_R   0.763330 0.040090 0.676940 -0.453351
O41   O     O_R   0.236670 0.040090 0.323060 -0.524090
O42   O     O_R   0.263330 0.540090 0.676940 -0.453348
O43   O     O_R   0.736670 0.540090 0.323060 -0.524085
O44   O     O_R   0.668160 0.923110 0.670000 -0.523703
O45   O     O_R   0.554690 0.080440 0.673480 -0.451750
O46   O     O_R   0.331840 0.923110 0.330000 -0.490048
O47   O     O_R   0.168160 0.423110 0.670000 -0.523699
O48   O     O_R   0.831840 0.423110 0.330000 -0.490045
O49   O     O_R   0.445310 0.080440 0.326520 -0.432286
O50   O     O_R   0.054690 0.580440 0.673480 -0.451754
O51   O     O_R   0.945310 0.580440 0.326520 -0.432275
O52   O     O_R   0.543980 0.282110 0.666770 -0.533586

loop_
_geom_bond_atom_site_label_1
_geom_bond_atom_site_label_2
_ccdc_geom_bond_type
C53   O27   A    
C64   C103  S    
C56   O30   A    
C21   C26   A    
C30   F2    S    
C53   O22   A    
Cr8   O9    S    
Cr10  O25   S    
C29   C33   S    
C4    C53   S    
C7    C10   D    
C32   F6    S    
C68   C86   S    
C88   H5    S    
C19   C23   A    
Cr6   O11   S    
C17   C91   A    
C65   C101  S    
C6    C55   S    
C35   C102  A    
C86   H3    S    
C19   H37   S    
C56   O26   A    
C39   C100  S    
Cr10  O50   S    
C62   C105  S    
C27   H14   S    
C54   O24   A    
C30   C34   S    
C81   H12   S    
C32   H41   S    
C109  O4    A    
C74   C92   S    
C64   C68   A    
C20   H38   S    
C42   C109  S    
C73   C90   S    
Cr3   O33   S    
C35   C97   S    
C95   C112  S    
C111  O6    A    
C36   O16   A    
C31   H40   S    
C40   C50   A    
C65   C83   A    
C109  O51   A    
C85   H45   S    
C65   C70   A    
C12   C22   A    
C94   C111  S    
C112  O38   A    
Cr11  O13   S    
C26   H13   S    
C2    C32   S    
C67   C72   A    
C17   C39   A    
C97   O1    A    
C25   O19   A    
Cr6   O42   S    
C70   C74   A    
C3    C96   S    
C86   C90   S    
C19   C37   A    
C71   C88   S    
C76   C94   A    
C104  O47   A    
C51   F11   S    
C78   C83   A    
C20   C24   A    
C78   C96   A    
C8    C9    S    
C106  O45   A    
C98   O32   A    
C92   H8    S    
Cr2   O10   S    
Cr6   O23   S    
C58   C102  A    
Cr1   O9    S    
Cr12  O52   S    
Cr5   O12   S    
C18   C35   A    
C112  O7    A    
Cr4   O13   S    
C24   H11   S    
Cr7   O39   S    
Cr8   O45   S    
C55   O29   A    
C12   C58   A    
C33   F7    S    
C104  O42   A    
Cr12  O27   S    
C18   H36   S    
C103  O41   A    
C89   F12   S    
C87   C92   S    
C110  O5    A    
Cr8   O18   S    
C60   H29   S    
C105  O43   A    
C27   F3    S    
C7    C56   S    
C79   H1    S    
C12   C47   S    
C70   C87   S    
C41   C49   A    
C37   C98   S    
C90   F14   S    
C52   F13   S    
C29   H16   S    
C57   H25   S    
C82   H23   S    
C16   C26   A    
C59   H28   S    
C46   C48   A    
Cr7   O17   S    
C67   C85   S    
C87   H4    S    
C62   C66   A    
Cr4   O35   S    
C75   H31   S    
C78   H35   S    
C31   C102  S    
C74   C96   A    
C5    C54   S    
C28   C32   S    
C76   H32   S    
C85   H2    S    
C55   O25   A    
C41   C106  S    
C86   H46   S    
C3    O39   A    
C6    C11   D    
C85   C89   S    
C38   C99   S    
Cr1   O36   S    
C68   C73   A    
C29   F20   S    
Cr3   O7    S    
Cr12  O5    S    
C77   C95   A    
C28   H15   S    
C77   H33   S    
C90   H7    S    
Cr3   O11   S    
C60   C61   S    
C66   C84   S    
C14   C23   A    
C100  O35   A    
Cr6   O16   S    
C66   C71   A    
Cr9   O24   S    
C63   C67   A    
C13   C33   S    
C88   F1    S    
C106  O52   A    
C20   C38   A    
C62   C79   A    
C42   C46   A    
C15   C80   A    
C21   C39   A    
Cr12  O31   S    
Cr5   O41   S    
C44   C57   S    
C63   C104  S    
C43   C48   A    
C101  O44   A    
C3    O8    A    
C1    C16   S    
C15   C24   A    
C108  O3    A    
C100  O34   A    
C1    O14   A    
C64   C82   A    
C13   C38   A    
C99   O33   A    
C36   O20   A    
C40   C107  S    
Cr7   O13   S    
C33   H42   S    
Cr7   O43   S    
C89   H6    S    
Cr11  O26   S    
C63   C81   A    
C2    C69   A    
Cr10  O47   S    
Cr11  O21   S    
C27   C31   S    
C50   F10   S    
C111  O37   A    
C14   C69   A    
Cr10  O20   S    
C84   H44   S    
Cr10  O11   S    
C75   C79   A    
C17   C34   S    
C73   C95   A    
C108  O50   A    
Cr5   O10   S    
C59   H26   S    
C107  O2    A    
C4    F17   S    
C44   C45   A    
C75   C93   A    
C5    F16   S    
C87   H47   S    
Cr11  O48   S    
Cr9   O49   S    
C98   O12   A    
C21   H39   S    
Cr3   O3    S    
C45   C59   S    
C10   H20   S    
Cr2   O2    S    
C83   H34   S    
C46   C60   S    
C1    O18   A    
C18   C22   A    
Cr1   O1    S    
Cr3   O29   S    
C61   H30   S    
C84   C88   S    
Cr2   O28   S    
C30   C91   S    
Cr5   O15   S    
C27   C58   S    
C76   C81   A    
Cr9   O10   S    
C5    C8    D    
C54   O28   A    
C71   C93   A    
C28   C69   S    
C93   C110  S    
Cr12  O9    S    
C61   H24   S    
Cr1   O14   S    
C47   O17   A    
C6    F19   S    
C72   C94   A    
C51   C52   A    
C31   F5    S    
C8    H18   S    
Cr8   O44   S    
C14   C36   S    
C72   C89   S    
C2    C37   A    
C43   C51   A    
C48   C61   S    
C29   C80   S    
C99   O23   A    
C77   C82   A    
Cr6   O38   S    
C103  O46   A    
Cr4   O8    S    
Cr11  O51   S    
C47   O21   A    
Cr5   O37   S    
C105  O48   A    
C9    H19   S    
Cr9   O46   S    
C84   H48   S    
C101  O40   A    
C43   C108  S    
Cr9   O19   S    
Cr4   O30   S    
C34   H43   S    
C60   H22   S    
C13   C80   A    
C57   C59   S    
C10   C11   S    
C34   F8    S    
Cr1   O40   S    
Cr4   O4    S    
C97   O31   A    
C16   C91   A    
C40   C44   A    
C15   C25   S    
C49   C50   A    
Cr2   O6    S    
C23   H10   S    
C49   F9    S    
C11   H21   S    
C41   C45   A    
C107  O49   A    
C110  O36   A    
C30   H17   S    
Cr2   O32   S    
C4    C9    D    
C25   O15   A    
C92   F15   S    
Cr8   O22   S    
C7    F18   S    
C28   F4    S    
Cr7   O34   S    
C42   C52   A    
C57   H27   S    
C22   H9    S    
