data_mof_unit_5442.cif
_audit_creation_date              2012-12-11T15:42:43-0500
_audit_creation_method            fapswitch 2.2
_symmetry_space_group_name_H-M    P1
_symmetry_Int_Tables_number       1
_space_group_crystal_system       triclinic
_cell_length_a                    6.934704
_cell_length_b                    14.551918
_cell_length_c                    16.190212
_cell_angle_alpha                 90.45866
_cell_angle_beta                  89.893844
_cell_angle_gamma                 89.980303
_cell_volume                      1633.75155558

loop_
_atom_site_label
_atom_site_type_symbol
_atom_type_description
_atom_site_fract_x
_atom_site_fract_y
_atom_site_fract_z
_atom_type_partial_charge
O1    O     O_R   0.505810 0.583360 0.413880 -0.540339
O2    O     O_R   0.175870 0.595480 0.585520 -0.542152
O3    O     O_R   0.005540 0.416640 0.586120 -0.544568
C1    C     C_R   0.344348 0.618651 0.613925 0.693388
O4    O     O_R   0.176100 0.594390 0.414490 -0.541019
O5    O     O_R   0.005770 0.415540 0.413870 -0.545082
C2    C     C_R   0.345260 0.616534 0.385790 0.694252
O6    O     O_R   0.505580 0.584460 0.586130 -0.523436
O7    O     O_3   0.339190 0.441320 0.500000 -0.376532
V1    V     V_3+5 0.064350 0.510890 0.500000 1.448699
O8    O     O_R   0.676050 0.404520 0.414480 -0.547208
C3    C     C_R   0.845208 0.382096 0.385740 0.676195
O9    O     O_R   0.675830 0.405610 0.585510 -0.542771
C4    C     C_R   0.845006 0.383701 0.613734 0.735764
V2    V     V_3+5 0.564340 0.489110 0.500000 1.437931
O10   O     O_3   0.839370 0.558680 0.500000 -0.348711
C5    C     C_2   0.720618 0.208867 0.786075 -0.121739
C6    C     C_2   0.885838 0.181755 0.822521 -0.307945
H1    H     H_    0.584670 0.180166 0.807031 0.137689
H2    H     H_    0.023488 0.209741 0.803670 0.127093
C7    C     C_2   0.708125 0.277333 0.718146 -0.131630
C8    C     C_2   0.861546 0.315494 0.680531 -0.305206
H3    H     H_    0.564062 0.296278 0.698303 0.134105
H4    H     H_    0.006754 0.297237 0.698521 0.130176
C9    C     C_R   0.047318 0.222821 0.219323 -0.153042
H5    H     H_    0.188085 0.204115 0.195516 0.116805
C10   C     C_R   0.036147 0.286837 0.284148 -0.148619
H6    H     H_    0.168841 0.315655 0.308132 0.117377
C11   C     C_R   0.856516 0.313315 0.317362 -0.042418
C12   C     C_R   0.688362 0.274045 0.283914 -0.152462
H7    H     H_    0.547596 0.292750 0.307723 0.116789
C13   C     C_R   0.699532 0.210028 0.219089 -0.147914
H8    H     H_    0.566840 0.181208 0.195105 0.119520
C14   C     C_R   0.879164 0.183554 0.185872 -0.045261
C15   C     C_R   0.216662 0.759265 0.692778 -0.100484
C16   C     C_R   0.230336 0.820525 0.760152 -0.171816
H9    H     H_    0.124996 0.875242 0.766508 0.123531
C17   C     C_R   0.379868 0.813335 0.818165 -0.052743
C18   C     C_R   0.517177 0.743350 0.807725 -0.148999
H10   H     H_    0.633800 0.735922 0.851575 0.110427
C19   C     C_R   0.502367 0.680519 0.741882 -0.104598
H11   H     H_    0.606618 0.625315 0.737525 0.101847
C20   C     C_R   0.353271 0.687209 0.683242 -0.101924
C21   C     C_R   0.188577 0.723530 0.284120 -0.139022
H12   H     H_    0.047820 0.705334 0.307961 0.121264
C22   C     C_R   0.199784 0.786619 0.219351 -0.147108
H13   H     H_    0.067101 0.815199 0.195498 0.119682
C23   C     C_R   0.379346 0.812500 0.186002 -0.048788
C24   C     C_R   0.547391 0.773529 0.219405 -0.152645
H14   H     H_    0.688148 0.791747 0.195579 0.116625
C25   C     C_R   0.536183 0.710433 0.284172 -0.139252
H15   H     H_    0.668861 0.681861 0.308039 0.120658
C26   C     C_R   0.356608 0.684497 0.317471 -0.044247
O11   O     O_R   0.230120 0.912300 0.917180 -0.539972
O12   O     O_R   0.559740 0.902430 0.088770 -0.544369
O13   O     O_R   0.729930 0.081310 0.089370 -0.541457
C27   C     C_R   0.390626 0.880343 0.117572 0.686472
O14   O     O_R   0.559840 0.901330 0.917750 -0.540412
O15   O     O_R   0.730030 0.080210 0.917120 -0.536553
C28   C     C_R   0.391066 0.879523 0.888546 0.693170
O16   O     O_R   0.230020 0.913400 0.089430 -0.540779
O17   O     O_3   0.396460 0.055470 0.003290 -0.371013
V3    V     V_3+5 0.671360 0.985960 0.003250 1.410238
O18   O     O_R   0.059740 0.091300 0.917690 -0.545087
C29   C     C_R   0.891073 0.113209 0.889455 0.748317
O19   O     O_R   0.059640 0.092400 0.088720 -0.544510
C30   C     C_R   0.890481 0.114782 0.117486 0.685980
V4    V     V_3+5 0.171350 0.007820 0.003190 1.404906
O20   O     O_3   0.896380 0.938200 0.003220 -0.371026
C31   C     C_2   0.061958 0.775526 0.631916 0.813540
O21   O     O_2   0.078057 0.838314 0.582876 -0.525816
O22   O     O_R   0.894958 0.722001 0.631207 -0.626183
H16   H     H_    0.897278 0.672874 0.675147 0.244418

loop_
_geom_bond_atom_site_label_1
_geom_bond_atom_site_label_2
_ccdc_geom_bond_type
O19   V4    S    
C3    C11   S    
C10   C11   A    
C19   H11   S    
C15   C16   A    
C1    O6    A    
C23   C27   S    
C18   C19   A    
O11   C28   A    
C6    C29   S    
O17   V3    S    
O18   V4    S    
C16   H9    S    
O5    C3    A    
C17   C18   A    
O11   V4    S    
O14   C28   A    
V2    O10   S    
O8    V2    S    
C21   C26   A    
V3    O20   S    
C15   C31   S    
V4    O20   S    
C24   C25   A    
O12   V3    S    
C31   O21   D    
O1    V2    S    
C15   C20   A    
O7    V1    S    
C9    C14   A    
O19   C30   A    
O9    C4    A    
C19   C20   A    
C21   C22   A    
C7    H3    S    
C22   C23   A    
C25   H15   S    
C18   H10   S    
O4    C2    A    
C9    H5    S    
C5    C7    S    
C25   C26   A    
C13   C14   A    
O2    C1    A    
C11   C12   A    
C5    C6    D    
O13   V3    S    
O3    C4    A    
C17   C28   S    
C23   C24   A    
O6    V2    S    
O9    V2    S    
C8    H4    S    
C2    C26   S    
O2    V1    S    
C21   H12   S    
O14   V3    S    
C22   H13   S    
O1    C2    A    
O22   H16   S    
C14   C30   S    
O5    V1    S    
O8    C3    A    
C27   O16   A    
C1    C20   S    
C9    C10   A    
O13   C30   A    
O15   V3    S    
O17   V4    S    
C13   H8    S    
C4    C8    S    
O12   C27   A    
O7    V2    S    
O4    V1    S    
O3    V1    S    
V1    O10   S    
O18   C29   A    
C12   C13   A    
O16   V4    S    
C12   H7    S    
C16   C17   A    
C5    H1    S    
C6    H2    S    
C24   H14   S    
C10   H6    S    
C31   O22   S    
C7    C8    D    
O15   C29   A    
