data_mof_unit_13002.cif
_audit_creation_date              2012-12-10T18:20:38-0500
_audit_creation_method            fapswitch 2.2
_symmetry_space_group_name_H-M    P1
_symmetry_Int_Tables_number       1
_space_group_crystal_system       triclinic
_cell_length_a                    14.033656
_cell_length_b                    13.588502
_cell_length_c                    14.873913
_cell_angle_alpha                 89.811388
_cell_angle_beta                  90.565221
_cell_angle_gamma                 82.569941
_cell_volume                      2812.41844506

loop_
_atom_site_label
_atom_site_type_symbol
_atom_type_description
_atom_site_fract_x
_atom_site_fract_y
_atom_site_fract_z
_atom_type_partial_charge
C1    C     C_R   0.499471 0.501078 0.326920 0.890525
C2    C     C_R   0.546011 0.303778 0.956402 0.079325
C3    C     C_R   0.806119 0.441442 0.559368 -0.043368
C4    C     C_R   0.193645 0.559369 0.441154 -0.053769
C5    C     C_R   0.789506 0.559533 0.440820 -0.069566
C6    C     C_R   0.210097 0.441893 0.560430 -0.063151
C7    C     C_R   0.890192 0.562918 0.439354 -0.011883
C8    C     C_R   0.109183 0.440105 0.563041 -0.011525
C9    C     C_R   0.949137 0.501334 0.500204 0.050100
C10   C     C_R   0.050448 0.500590 0.501052 0.049285
C11   C     C_R   0.906518 0.440682 0.560729 0.000067
C12   C     C_R   0.500879 0.499589 0.673116 0.872965
C13   C     C_R   0.092988 0.561161 0.440318 0.003653
C14   C     C_R   0.933685 0.625455 0.379615 0.110265
C15   C     C_R   0.064775 0.380696 0.625122 0.109588
C16   C     C_R   0.517569 0.314079 0.499332 0.883996
C17   C     C_R   0.482570 0.685871 0.498716 0.895521
C18   C     C_R   0.034573 0.622928 0.380529 -0.249661
C19   C     C_R   0.964267 0.381392 0.622274 -0.249086
C20   C     C_1   0.469240 0.789134 0.488432 -0.221957
C21   C     C_1   0.532081 0.210205 0.500868 -0.219349
C22   C     C_2   0.464730 0.979955 0.470794 0.093654
C23   C     C_R   0.535928 0.484602 0.953509 -0.084127
C24   C     C_2   0.543073 0.017800 0.502099 0.092595
C25   C     C_1   0.541298 0.122230 0.502056 -0.045234
C26   C     C_1   0.462819 0.876374 0.478761 -0.043584
C27   C     C_R   0.517349 0.398298 0.811328 0.024359
C28   C     C_R   0.501529 0.585208 0.182842 0.036137
C29   C     C_R   0.507007 0.492434 0.769008 -0.152824
C30   C     C_R   0.500806 0.496831 0.231052 -0.131148
C31   C     C_R   0.519662 0.579519 0.814712 0.036233
C32   C     C_R   0.515881 0.403192 0.190652 0.011883
C33   C     C_R   0.539306 0.575295 0.906758 0.103072
C34   C     C_R   0.533064 0.486000 0.047981 -0.065297
C35   C     C_R   0.528783 0.396797 0.096917 0.073707
C36   C     C_3   0.629469 0.955528 0.544868 -0.414079
C37   C     C_3   0.611958 0.935889 0.644591 -0.332241
C38   C     C_3   0.694554 0.865437 0.685624 -0.877656
C39   C     C_3   0.379928 0.041456 0.424828 -0.408657
C40   C     C_3   0.403657 0.064472 0.327123 -0.338487
C41   C     C_3   0.319597 0.128110 0.280917 -0.887670
C42   C     C_3   0.505439 0.306612 0.754201 -0.356333
C43   C     C_3   0.407942 0.270562 0.770505 -0.324894
C44   C     C_3   0.399067 0.174128 0.720716 -0.915534
C45   C     C_R   0.532788 0.393989 0.906247 0.062108
C46   C     C_3   0.456047 0.683060 0.224408 -0.396881
C47   C     C_3   0.346158 0.687281 0.227494 -0.357578
C48   C     C_3   0.300140 0.779087 0.277355 -0.899320
C49   C     C_3   0.874991 0.695794 0.314651 -0.429358
C50   C     C_3   0.824212 0.786980 0.363666 -0.339867
C51   C     C_3   0.753193 0.849594 0.301511 -0.894181
C52   C     C_3   0.119869 0.319538 0.698584 -0.439759
C53   C     C_3   0.138376 0.385305 0.779022 -0.326657
C54   C     C_3   0.165726 0.323395 0.863424 -0.903470
C55   C     C_R   0.531616 0.578137 0.093209 0.082706
C56   C     C_R   0.564321 0.658768 0.953648 0.082358
C57   C     C_R   0.541535 0.305086 0.050350 0.059697
C58   C     C_R   0.563478 0.658574 0.047692 0.021328
H1    H     H_    0.772253 0.395367 0.605677 0.131060
H2    H     H_    0.604819 0.007208 0.681852 0.219111
H3    H     H_    0.544320 0.902403 0.652561 0.230077
H4    H     H_    0.646299 0.884270 0.508291 0.210062
H5    H     H_    0.693868 0.994916 0.538670 0.198297
H6    H     H_    0.254924 0.088799 0.280409 0.262627
H7    H     H_    0.302974 0.200087 0.316335 0.266658
H8    H     H_    0.338674 0.143190 0.210377 0.245529
H9    H     H_    0.467611 0.104871 0.324972 0.229132
H10   H     H_    0.420450 0.993906 0.289409 0.220151
H11   H     H_    0.316503 0.000037 0.425413 0.202540
H12   H     H_    0.227379 0.605817 0.395219 0.135128
H13   H     H_    0.358996 0.111382 0.462420 0.205731
H14   H     H_    0.402727 0.185944 0.647057 0.268484
H15   H     H_    0.457316 0.115328 0.742180 0.263984
H16   H     H_    0.328856 0.148878 0.736085 0.247012
H17   H     H_    0.396616 0.258987 0.843207 0.230075
H18   H     H_    0.350313 0.328460 0.746261 0.225215
H19   H     H_    0.508783 0.321298 0.681426 0.180196
H20   H     H_    0.567015 0.247703 0.762648 0.214031
H21   H     H_    0.325230 0.776893 0.348399 0.274277
H22   H     H_    0.318499 0.847669 0.244595 0.263594
H23   H     H_    0.741305 0.604093 0.395288 0.152883
H24   H     H_    0.220797 0.780959 0.276441 0.242071
H25   H     H_    0.317028 0.689278 0.157619 0.222040
H26   H     H_    0.325165 0.620468 0.260917 0.237297
H27   H     H_    0.486300 0.691773 0.292805 0.192932
H28   H     H_    0.469215 0.749347 0.186144 0.223729
H29   H     H_    0.439343 0.684082 0.737549 0.175585
H30   H     H_    0.559681 0.672798 0.718286 0.203553
H31   H     H_    0.448507 0.320360 0.278257 0.198413
H32   H     H_    0.569779 0.312360 0.293321 0.190675
H33   H     H_    0.664591 0.749807 0.925037 0.173310
H34   H     H_    0.257994 0.397410 0.606197 0.140299
H35   H     H_    0.548791 0.805888 0.922820 0.184501
H36   H     H_    0.610330 0.205026 0.140093 0.210825
H37   H     H_    0.487970 0.200224 0.127192 0.210726
H38   H     H_    0.678729 0.727800 0.080873 0.187563
H39   H     H_    0.572412 0.803255 0.077977 0.171820
H40   H     H_    0.636258 0.176750 0.936515 0.195930
H41   H     H_    0.517761 0.163119 0.931532 0.201320
H42   H     H_    0.790849 0.874920 0.242063 0.262359
H43   H     H_    0.695969 0.805773 0.278625 0.269462
H44   H     H_    0.719032 0.915737 0.338271 0.248026
H45   H     H_    0.067843 0.670271 0.334789 0.136130
H46   H     H_    0.784513 0.764419 0.422912 0.219626
H47   H     H_    0.878833 0.833182 0.388265 0.223288
H48   H     H_    0.922020 0.722082 0.262359 0.195638
H49   H     H_    0.822514 0.655799 0.277873 0.200065
H50   H     H_    0.102793 0.289309 0.887516 0.261450
H51   H     H_    0.224972 0.263411 0.849530 0.264128
H52   H     H_    0.189087 0.371603 0.917317 0.252738
H53   H     H_    0.196743 0.430201 0.762780 0.211992
H54   H     H_    0.072594 0.437406 0.793783 0.230959
H55   H     H_    0.077554 0.260460 0.721484 0.208032
H56   H     H_    0.930402 0.336546 0.669830 0.139939
H57   H     H_    0.188114 0.279629 0.672958 0.189128
H58   H     H_    0.701121 0.792496 0.651106 0.266465
H59   H     H_    0.763221 0.897352 0.679602 0.257670
H60   H     H_    0.680490 0.853645 0.757948 0.256661
N1    N     N_R   0.750030 0.500040 0.500070 -0.102944
N2    N     N_R   0.249970 0.499960 0.499930 -0.100491
N3    N     N_3   0.507421 0.673448 0.767968 -0.437487
N4    N     N_3   0.514437 0.315981 0.245380 -0.493022
N5    N     N_3   0.594188 0.741567 0.906049 -0.442439
N6    N     N_3   0.551986 0.210489 0.095324 -0.484165
N7    N     N_3   0.605927 0.732973 0.096970 -0.487843
N8    N     N_3   0.568712 0.209277 0.913661 -0.474102
O1    O     O_R   0.580280 0.500020 0.367860 -0.619138
O2    O     O_R   0.419720 0.499980 0.632140 -0.620606
O3    O     O_R   0.419730 0.500030 0.367840 -0.627672
O4    O     O_R   0.580270 0.499970 0.632160 -0.620379
O5    O     O_R   0.591830 0.359650 0.500030 -0.612054
O6    O     O_R   0.408170 0.640350 0.499970 -0.609035
O7    O     O_R   0.431280 0.359660 0.500010 -0.613193
O8    O     O_R   0.568720 0.640340 0.499990 -0.617377
Zn1   Zn    Zn3+2 0.607200 0.499990 0.500020 0.932865
Zn2   Zn    Zn3+2 0.392800 0.500010 0.499980 0.929905

loop_
_geom_bond_atom_site_label_1
_geom_bond_atom_site_label_2
_ccdc_geom_bond_type
H37   N6    S    
C49   H48   S    
C50   H46   S    
C16   C21   S    
C23   C45   A    
C12   C29   S    
C27   C29   A    
C14   C18   A    
O4    Zn1   S    
C4    H12   S    
C2    C57   A    
C49   H49   S    
C53   C54   S    
C51   H44   S    
C15   C19   A    
C28   C46   S    
C24   C36   S    
C12   O4    A    
C13   C18   A    
C5    N1    A    
C48   H21   S    
C36   C37   S    
O1    Zn1   S    
C1    O3    A    
O2    Zn2   S    
C14   C49   S    
H31   N4    S    
C43   H18   S    
C17   C20   S    
C5    H23   S    
C54   H52   S    
C47   H26   S    
C34   C35   A    
C4    C13   A    
C16   O5    A    
C38   H59   S    
C7    C14   A    
C48   H24   S    
C23   C33   A    
C40   H9    S    
O7    Zn2   S    
C31   C33   A    
C47   H25   S    
C36   H5    S    
C9    C10   A    
C46   H27   S    
C53   H53   S    
C33   C56   A    
C34   C55   A    
H33   N5    S    
C17   O6    A    
H32   N4    S    
C1    O1    A    
C36   H4    S    
C16   O7    A    
C6    N2    A    
C28   C55   A    
H41   N8    S    
C2    C45   A    
C43   H17   S    
C56   N5    S    
C32   N4    S    
C24   C25   S    
C31   N3    S    
H39   N7    S    
C39   C40   S    
C5    C7    A    
C6    C8    A    
C19   H56   S    
C52   H55   S    
N1    Zn1   S    
C54   H51   S    
N2    Zn2   S    
C43   C44   S    
C32   C35   A    
C37   C38   S    
C50   H47   S    
O3    Zn2   S    
C38   H58   S    
C47   C48   S    
O6    Zn2   S    
C23   C34   A    
C11   C19   A    
C50   C51   S    
C39   H11   S    
C15   C52   S    
C44   H16   S    
C9    C11   A    
O8    Zn1   S    
C3    N1    A    
C58   N7    S    
C2    N8    S    
C53   H54   S    
C40   C41   S    
C42   H20   S    
C8    C15   A    
C22   C26   S    
C22   C24   D    
C42   C43   S    
C52   C53   S    
H29   N3    S    
C52   H57   S    
C51   H42   S    
C7    C9    A    
C21   C25   T    
C46   C47   S    
H35   N5    S    
H30   N3    S    
C10   C13   A    
C37   H3    S    
C41   H8    S    
C12   O2    A    
C51   H43   S    
O5    Zn1   S    
C54   H50   S    
C35   C57   A    
C48   H22   S    
C28   C30   A    
C29   C31   A    
C57   N6    S    
C30   C32   A    
C27   C42   S    
C27   C45   A    
C20   C26   T    
C6    H34   S    
C22   C39   S    
C1    C30   S    
C56   C58   A    
H38   N7    S    
C44   H14   S    
C18   H45   S    
C41   H7    S    
C44   H15   S    
C37   H2    S    
C3    C11   A    
C38   H60   S    
H40   N8    S    
C42   H19   S    
C8    C10   A    
C49   C50   S    
C40   H10   S    
C55   C58   A    
C17   O8    A    
C39   H13   S    
C4    N2    A    
C41   H6    S    
H36   N6    S    
C46   H28   S    
C3    H1    S    
