data_mof_unit_53979.cif
_audit_creation_date              2012-12-11T15:39:26-0500
_audit_creation_method            fapswitch 2.2
_symmetry_space_group_name_H-M    P1
_symmetry_Int_Tables_number       1
_space_group_crystal_system       triclinic
_cell_length_a                    14.294324
_cell_length_b                    14.802433
_cell_length_c                    33.30268
_cell_angle_alpha                 97.950903
_cell_angle_beta                  90.425061
_cell_angle_gamma                 118.632253
_cell_volume                      6103.33107608

loop_
_atom_site_label
_atom_site_type_symbol
_atom_type_description
_atom_site_fract_x
_atom_site_fract_y
_atom_site_fract_z
_atom_type_partial_charge
C1    C     C_R   0.616388 0.910749 0.436760 0.541599
C2    C     C_R   0.711906 0.436732 0.949338 0.560160
C3    C     C_R   0.584381 0.824987 0.772213 -0.084848
C4    C     C_R   0.593419 0.840577 0.731637 0.081537
C5    C     C_R   0.621897 0.778763 0.703760 0.075597
C6    C     C_R   0.635348 0.698150 0.716225 0.079175
C7    C     C_R   0.629076 0.686026 0.757396 -0.120288
C8    C     C_R   0.606990 0.751469 0.785680 -0.006082
C9    C     C_R   0.556804 0.731622 0.630722 -0.103706
C10   C     C_R   0.555518 0.762735 0.593212 -0.130074
C11   C     C_R   0.718494 0.925072 0.615885 -0.124877
C12   C     C_R   0.710773 0.739348 0.950050 0.541288
C13   C     C_R   0.818596 0.428760 0.165045 -0.131119
C14   C     C_R   0.827794 0.456702 0.126352 0.076089
C15   C     C_R   0.721203 0.290371 0.236525 0.079578
C16   C     C_R   0.714762 0.277854 0.277774 0.107121
C17   C     C_R   0.705464 0.352037 0.306487 0.019351
C18   C     C_R   0.703362 0.437725 0.294301 -0.146154
C19   C     C_R   0.709565 0.450698 0.253512 0.098155
C20   C     C_R   0.717055 0.375913 0.224631 0.092066
C21   C     C_R   0.720045 0.387820 0.181679 0.095941
C22   C     C_R   0.592517 0.323639 0.364340 -0.124089
C23   C     C_R   0.593724 0.205148 0.456614 0.540339
C24   C     C_R   0.565334 0.288862 0.401433 -0.129209
C25   C     C_R   0.732994 0.286244 0.409151 -0.123710
C26   C     C_R   0.760096 0.321171 0.372059 -0.085347
C27   C     C_R   0.687776 0.335450 0.348746 0.060601
C28   C     C_R   0.633221 0.265333 0.423208 0.023479
C29   C     C_R   0.247871 0.880430 0.392684 0.035847
C30   C     C_R   0.252307 0.968868 0.379483 -0.139095
C31   C     C_R   0.232506 0.969636 0.338254 0.107944
C32   C     C_R   0.719382 0.893980 0.653549 -0.093856
C33   C     C_R   0.205346 0.879751 0.309849 0.049706
C34   C     C_R   0.193046 0.789080 0.322892 -0.130069
C35   C     C_R   0.296021 0.893006 0.434185 0.561434
C36   C     C_R   0.213901 0.788436 0.364063 0.087615
C37   C     C_R   0.203329 0.808697 0.161572 0.110725
C38   C     C_R   0.173054 0.787962 0.119708 -0.111034
C39   C     C_R   0.093858 0.901205 0.129562 -0.142881
C40   C     C_R   0.123594 0.922181 0.171248 -0.146593
C41   C     C_R   0.174387 0.873023 0.187509 0.065260
C42   C     C_1   0.186633 0.879939 0.230903 0.005108
C43   C     C_R   0.635871 0.799209 0.661614 0.060352
C44   C     C_1   0.194674 0.880837 0.266966 0.009735
C45   C     C_R   0.113541 0.829789 0.103786 -0.000647
C46   C     C_R   0.634548 0.881443 0.394511 -0.002648
C47   C     C_R   0.614236 0.904864 0.551396 0.544145
C48   C     C_R   0.548469 0.803997 0.367591 -0.110671
C49   C     C_R   0.557067 0.793950 0.325389 0.116910
C50   C     C_R   0.653212 0.862115 0.310335 0.065945
C51   C     C_R   0.741206 0.934226 0.337155 -0.141986
C52   C     C_R   0.732173 0.943741 0.378957 -0.132324
C53   C     C_R   0.760443 0.933369 0.172448 -0.109662
C54   C     C_R   0.633141 0.862198 0.586223 0.018169
C55   C     C_R   0.779411 0.918385 0.131354 0.095310
C56   C     C_R   0.621312 0.746986 0.122072 -0.155485
C57   C     C_R   0.603496 0.762751 0.162810 -0.113746
C58   C     C_R   0.675311 0.853950 0.188345 0.018560
C59   C     C_R   0.590182 0.200312 0.571066 0.577946
C60   C     C_1   0.667388 0.860410 0.231376 -0.018787
C61   C     C_1   0.661121 0.861799 0.267388 0.004647
C62   C     C_R   0.712294 0.821778 0.106212 0.056671
C63   C     C_R   0.623598 0.251944 0.614478 0.052934
C64   C     C_R   0.559020 0.286585 0.636853 0.127429
C65   C     C_R   0.052759 0.781493 0.063626 0.542076
C66   C     C_R   0.570662 0.303794 0.679891 0.115798
C67   C     C_R   0.649223 0.291067 0.700128 0.002058
C68   C     C_R   0.721054 0.270354 0.678165 -0.134753
C69   C     C_R   0.709867 0.251630 0.635662 0.054632
C70   C     C_R   0.763536 0.346546 0.845159 -0.123970
C71   C     C_R   0.290236 0.887856 0.549025 0.561854
C72   C     C_R   0.774643 0.376030 0.887235 -0.158339
C73   C     C_R   0.586696 0.329768 0.886376 0.093758
C74   C     C_R   0.576510 0.300056 0.844007 -0.110671
C75   C     C_R   0.665739 0.312768 0.823403 0.019996
C76   C     C_R   0.744287 0.486558 0.066082 0.564958
C77   C     C_1   0.659903 0.302138 0.779913 -0.029827
C78   C     C_1   0.655647 0.297012 0.743561 -0.029856
C79   C     C_R   0.688335 0.373833 0.908145 0.058893
C80   C     C_R   0.064208 0.750927 0.907768 0.023645
C81   C     C_R   0.090477 0.845826 0.894691 -0.125906
C82   C     C_R   0.106534 0.855805 0.854052 -0.085920
C83   C     C_R   0.735994 0.442636 0.103858 0.033164
C84   C     C_R   0.095346 0.770717 0.826009 0.061807
C85   C     C_R   0.077141 0.678569 0.839552 -0.125532
C86   C     C_R   0.062006 0.668779 0.880275 -0.126790
C87   C     C_R   0.742878 0.789537 0.066471 0.559454
C88   C     C_R   0.170508 0.752559 0.760941 -0.142843
C89   C     C_R   0.180351 0.761088 0.719807 0.077387
C90   C     C_R   0.117520 0.794122 0.699806 0.071752
C91   C     C_R   0.044457 0.816937 0.720884 0.085585
C92   C     C_R   0.034289 0.806811 0.762334 0.106592
C93   C     C_R   0.099800 0.776950 0.782401 0.022067
C94   C     C_R   0.185484 0.918175 0.651053 -0.086865
C95   C     C_R   0.635968 0.395139 0.119908 -0.139193
C96   C     C_R   0.229015 0.943835 0.614100 0.079248
C97   C     C_R   0.167354 0.759379 0.590113 -0.156950
C98   C     C_R   0.021019 0.731489 0.947313 0.542133
C99   C     C_R   0.124004 0.735174 0.626875 -0.101040
C100  C     C_R   0.137347 0.815002 0.658024 0.060461
C101  C     C_R   0.224574 0.863777 0.583981 0.042885
C102  C     C_R   0.663390 0.743737 0.911425 0.000944
C103  C     C_R   0.592131 0.652077 0.885396 -0.140400
C104  C     C_R   0.569931 0.655565 0.844864 -0.148823
C105  C     C_R   0.618640 0.750568 0.829786 0.059322
C106  C     C_R   0.685968 0.843880 0.856520 0.115954
C107  C     C_R   0.627237 0.367624 0.158790 0.130705
C108  C     C_R   0.705809 0.839524 0.897207 -0.097853
Cr1   Cr    Cr6+3 0.424820 0.846020 0.489780 1.025049
Cr2   Cr    Cr6+3 0.657880 0.078580 0.505700 1.034457
Cr3   Cr    Cr6+3 0.417280 0.075360 0.504550 1.031400
Cr4   Cr    Cr6+3 0.903360 0.812540 0.006510 1.029259
Cr5   Cr    Cr6+3 0.914630 0.587050 0.006280 1.031209
Cr6   Cr    Cr6+3 0.673560 0.582680 0.008540 1.024198
H1    H     H_    0.889618 0.443740 0.182996 0.105896
H2    H     H_    0.645391 0.628246 0.767676 0.108047
H3    H     H_    0.695717 0.493869 0.316684 0.109810
H4    H     H_    0.564986 0.382722 0.102741 0.126970
H5    H     H_    0.488153 0.273858 0.411619 0.126198
H6    H     H_    0.787333 0.269798 0.425563 0.125016
H7    H     H_    0.189304 0.733285 0.100031 0.124079
H8    H     H_    0.280288 0.721507 0.154753 0.222088
H9    H     H_    0.203681 0.703373 0.193960 0.220718
H10   H     H_    0.170485 0.719352 0.300855 0.109794
H11   H     H_    0.254182 0.674249 0.359987 0.220082
H12   H     H_    0.277600 0.040092 0.400886 0.128899
H13   H     H_    0.124776 0.635722 0.367986 0.221074
H14   H     H_    0.101411 0.972037 0.191092 0.116650
H15   H     H_    0.981558 0.571846 0.131748 0.225738
H16   H     H_    0.962252 0.452926 0.110589 0.220694
H17   H     H_    0.257730 0.119849 0.349894 0.218190
H18   H     H_    0.311482 0.091811 0.308701 0.235412
H19   H     H_    0.859136 0.065671 0.119639 0.229692
H20   H     H_    0.937968 0.017973 0.134054 0.213417
H21   H     H_    0.815083 0.004993 0.192284 0.100493
H22   H     H_    0.799856 0.004057 0.398905 0.136438
H23   H     H_    0.047783 0.934083 0.118115 0.142553
H24   H     H_    0.472635 0.755578 0.379108 0.128989
H25   H     H_    0.567020 0.672843 0.103668 0.132887
H26   H     H_    0.487624 0.663780 0.283313 0.229029
H27   H     H_    0.400886 0.677998 0.313578 0.213075
H28   H     H_    0.853437 0.408435 0.902828 0.129562
H29   H     H_    0.834777 0.331785 0.360528 0.120347
H30   H     H_    0.832919 0.355961 0.829383 0.114583
H31   H     H_    0.784183 0.264900 0.694082 0.121089
H32   H     H_    0.861273 0.292585 0.622426 0.218847
H33   H     H_    0.783241 0.164503 0.624402 0.230358
H34   H     H_    0.815707 0.986146 0.325651 0.114178
H35   H     H_    0.432991 0.319009 0.635039 0.263373
H36   H     H_    0.523144 0.367055 0.601118 0.224180
H37   H     H_    0.465492 0.362599 0.893784 0.219809
H38   H     H_    0.436099 0.241226 0.900913 0.221400
H39   H     H_    0.458057 0.273433 0.720268 0.230034
H40   H     H_    0.547409 0.401534 0.722402 0.229782
H41   H     H_    0.093449 0.910515 0.915431 0.120001
H42   H     H_    0.041352 0.594574 0.889543 0.124673
H43   H     H_    0.086256 0.654980 0.632039 0.136455
H44   H     H_    0.782916 0.186711 0.282945 0.219435
H45   H     H_    0.536736 0.701246 0.174868 0.130700
H46   H     H_    0.647335 0.120975 0.274983 0.242442
H47   H     H_    0.316739 0.811444 0.691637 0.228596
H48   H     H_    0.294803 0.714347 0.717322 0.227151
H49   H     H_    0.220438 0.729664 0.776700 0.109393
H50   H     H_    0.123810 0.928568 0.844175 0.120004
H51   H     H_    0.901366 0.800890 0.701979 0.228047
H52   H     H_    0.000458 0.925914 0.714513 0.221328
H53   H     H_    0.880642 0.772789 0.769757 0.235321
H54   H     H_    0.972316 0.900880 0.783039 0.218215
H55   H     H_    0.195137 0.979443 0.675423 0.111852
H56   H     H_    0.500135 0.272124 0.827045 0.101060
H57   H     H_    0.235313 0.061338 0.588103 0.234089
H58   H     H_    0.293706 0.100611 0.635703 0.228194
H59   H     H_    0.069336 0.612519 0.818258 0.105488
H60   H     H_    0.798095 0.211862 0.214022 0.221717
H61   H     H_    0.662591 0.142645 0.206269 0.239022
H62   H     H_    0.781361 0.946548 0.677279 0.121058
H63   H     H_    0.508713 0.883590 0.697628 0.229811
H64   H     H_    0.557713 0.960301 0.742979 0.227248
H65   H     H_    0.563728 0.873116 0.793789 0.144164
H66   H     H_    0.518113 0.583433 0.824772 0.108974
H67   H     H_    0.161356 0.696669 0.567311 0.133017
H68   H     H_    0.729199 0.674869 0.675595 0.228598
H69   H     H_    0.665280 0.575646 0.701364 0.228548
H70   H     H_    0.491976 0.658253 0.636612 0.132403
H71   H     H_    0.489444 0.711684 0.570723 0.129319
H72   H     H_    0.781440 0.003295 0.865573 0.222996
H73   H     H_    0.798893 0.938402 0.823430 0.235482
H74   H     H_    0.505718 0.247091 0.179445 0.232821
H75   H     H_    0.465824 0.317105 0.155722 0.219655
H76   H     H_    0.780364 0.000980 0.611075 0.120826
H77   H     H_    0.782185 0.586369 0.231512 0.222927
H78   H     H_    0.559227 0.577095 0.895547 0.134756
H79   H     H_    0.695451 0.583403 0.265598 0.223902
H80   H     H_    0.536127 0.334823 0.346599 0.109780
H81   H     H_    0.760949 0.910691 0.917130 0.124683
N1    N     N_3   0.258029 0.760347 0.178141 -0.618233
N2    N     N_3   0.500745 0.331450 0.702720 -0.649213
N3    N     N_3   0.712813 0.188227 0.290522 -0.631528
N4    N     N_3   0.257159 0.740576 0.698545 -0.636977
N5    N     N_3   0.982307 0.851478 0.699986 -0.647055
N6    N     N_3   0.956800 0.824739 0.784075 -0.637298
N7    N     N_3   0.284188 0.051225 0.608491 -0.568636
N8    N     N_3   0.729293 0.215812 0.206308 -0.647377
N9    N     N_3   0.575946 0.920409 0.718606 -0.631202
N10   N     N_3   0.656191 0.629962 0.687127 -0.632999
N11   N     N_3   0.740816 0.941520 0.841592 -0.642919
N12   N     N_3   0.203361 0.695166 0.376282 -0.602692
N13   N     N_3   0.525671 0.323190 0.175920 -0.598315
N14   N     N_3   0.706941 0.538694 0.240971 -0.600244
N15   N     N_3   0.931460 0.504451 0.111245 -0.587760
N16   N     N_3   0.243481 0.062332 0.324919 -0.627651
N17   N     N_3   0.869086 0.999569 0.116035 -0.603668
N18   N     N_3   0.467344 0.718669 0.297673 -0.619505
N19   N     N_3   0.784781 0.228972 0.614361 -0.595250
N20   N     N_3   0.481125 0.302026 0.615464 -0.581763
N21   N     N_3   0.494959 0.319696 0.906661 -0.605005
O1    O     O_R   0.318160 0.824460 0.443680 -0.471456
O2    O     O_R   0.668160 0.499860 0.053480 -0.530170
O3    O     O_R   0.689170 0.693840 0.050110 -0.515949
O4    O     O_R   0.525040 0.857250 0.449830 -0.503986
O5    O     O_R   0.803860 0.812940 0.962540 -0.517159
O6    O     O_R   0.982950 0.787950 0.964120 -0.499644
O7    O     O_R   0.007050 0.649970 0.960540 -0.523492
O8    O     O_R   0.807910 0.482370 0.965590 -0.518358
O9    O     O_R   0.643310 0.460980 0.963840 -0.472585
O10   O     O_R   0.666140 0.657800 0.967020 -0.499600
O11   O     O_3   0.830520 0.660760 0.007110 -0.249144
O12   O     O_R   0.645130 0.163230 0.552140 -0.462969
O13   O     O_R   0.684760 0.998800 0.456360 -0.516332
O14   O     O_R   0.647540 0.166310 0.470260 -0.503623
O15   O     O_R   0.500960 0.181750 0.467450 -0.526454
O16   O     O_R   0.331100 0.981120 0.457080 -0.521261
O17   O     O_R   0.315560 0.821140 0.532010 -0.525473
O18   O     O_R   0.522630 0.854180 0.531710 -0.503287
O19   O     O_R   0.682160 0.995480 0.544690 -0.505366
O20   O     O_R   0.498360 0.178430 0.555780 -0.471025
O21   O     O_R   0.328690 0.978040 0.538950 -0.468986
O22   O     O_3   0.499990 0.999990 0.500010 -0.249252
O23   O     O_R   0.828710 0.851830 0.052170 -0.471033
O24   O     O_R   0.005980 0.823990 0.047210 -0.499711
O25   O     O_R   0.031900 0.688850 0.050170 -0.501976
O26   O     O_R   0.830940 0.518420 0.048680 -0.452689

loop_
_geom_bond_atom_site_label_1
_geom_bond_atom_site_label_2
_ccdc_geom_bond_type
C30   H12   S    
Cr4   O5    S    
H64   N9    S    
Cr3   O15   S    
C41   C42   S    
C64   N20   S    
C59   O20   A    
C53   H21   S    
Cr6   O3    S    
H33   N19   S    
C8    C105  S    
C39   H23   S    
C81   C82   A    
C90   C91   A    
C7    C8    A    
C104  H66   S    
C77   C78   T    
H54   N6    S    
C25   C28   A    
C72   H28   S    
H38   N21   S    
C29   C36   A    
C26   C27   A    
Cr3   O21   S    
C82   H50   S    
C71   O21   A    
C22   C24   A    
C92   C93   A    
C37   C38   A    
C18   C19   A    
C72   C79   A    
C94   H55   S    
C85   C86   A    
C5    C6    A    
C3    H65   S    
C1    C46   S    
C4    N9    S    
H39   N2    S    
H75   N13   S    
C58   C60   S    
C15   C16   A    
C40   H14   S    
C55   C62   A    
C46   C52   A    
C10   H71   S    
C56   C57   A    
H73   N11   S    
C17   C18   A    
C35   O16   A    
C73   C74   A    
C86   H42   S    
Cr5   O7    S    
C38   C45   A    
H13   N12   S    
C2    C79   S    
Cr2   O14   S    
Cr6   O11   S    
H79   N14   S    
H74   N13   S    
C63   C69   A    
C49   N18   S    
C76   O2    A    
C16   C17   A    
C6    N10   S    
C85   H59   S    
C31   C33   A    
C65   O24   A    
C102  C108  A    
C87   O3    A    
C103  C104  A    
C9    C10   A    
C3    C4    A    
C39   C45   A    
C47   O18   A    
Cr1   O18   S    
H53   N6    S    
C66   C67   A    
C57   H45   S    
Cr4   O11   S    
C13   C14   A    
Cr3   O16   S    
C67   C78   S    
C42   C44   T    
C14   C83   A    
Cr6   O2    S    
H18   N16   S    
C35   O1    A    
C76   C83   S    
C90   C100  S    
C104  C105  A    
C97   C99   A    
Cr3   O20   S    
C47   O19   A    
C53   C55   A    
C95   H4    S    
C15   C20   A    
C89   N4    S    
C46   C48   A    
C9    C43   A    
Cr3   O22   S    
H20   N17   S    
C74   C75   A    
H72   N11   S    
C67   C68   A    
C23   O14   A    
C37   N1    S    
C87   O23   A    
C84   C85   A    
C3    C8    A    
H51   N5    S    
H27   N18   S    
C91   C92   A    
H40   N2    S    
C14   N15   S    
C68   C69   A    
H46   N3    S    
Cr4   O24   S    
C25   C26   A    
Cr1   O22   S    
C65   O25   A    
H48   N4    S    
H11   N12   S    
C38   H7    S    
C51   C52   A    
C60   C61   T    
C36   N12   S    
C17   C27   S    
C7    H2    S    
C76   O26   A    
H35   N20   S    
Cr5   O8    S    
C12   C102  S    
C29   C30   A    
C71   C101  S    
Cr2   O13   S    
Cr6   O10   S    
C32   H62   S    
C97   C101  A    
C12   O10   A    
C99   C100  A    
C94   C100  A    
Cr4   O23   S    
C83   C95   A    
C98   O7    A    
C2    O8    A    
C50   C51   A    
C73   C79   A    
H63   N9    S    
C13   C21   A    
C73   N21   S    
C21   C107  A    
H36   N20   S    
C88   C89   A    
C108  H81   S    
C94   C96   A    
C59   O12   A    
C75   C77   S    
C18   H3    S    
C107  N13   S    
H32   N19   S    
C11   C54   A    
C95   C107  A    
H26   N18   S    
H77   N14   S    
C47   C54   S    
C91   N5    S    
C74   H56   S    
C40   C41   A    
C11   C32   A    
Cr5   O26   S    
C82   C84   A    
C22   C27   A    
C99   H43   S    
C45   C65   S    
H69   N10   S    
C56   C62   A    
H9    N1    S    
H16   N15   S    
C23   C28   S    
C26   H29   S    
C25   H6    S    
C39   C40   A    
C16   N3    S    
Cr2   O19   S    
Cr1   O1    S    
C62   C87   S    
C59   C63   S    
C56   H25   S    
C88   C93   A    
C48   C49   A    
C24   H5    S    
C34   H10   S    
C80   C98   S    
C19   N14   S    
C33   C44   S    
Cr4   O6    S    
C22   H80   S    
C69   N19   S    
C24   C28   A    
H8    N1    S    
C80   C81   A    
C106  N11   S    
C15   N8    S    
C53   C58   A    
Cr2   O22   S    
C97   H67   S    
C6    C7    A    
C13   H1    S    
C88   H49   S    
C105  C106  A    
C29   C35   S    
Cr5   O25   S    
C81   H41   S    
C48   H24   S    
H37   N21   S    
C11   H76   S    
H68   N10   S    
C19   C20   A    
H15   N15   S    
H61   N8    S    
C96   N7    S    
C9    H70   S    
Cr2   O12   S    
H58   N7    S    
Cr6   O9    S    
H17   N16   S    
C57   C58   A    
C30   C31   A    
C106  C108  A    
C51   H34   S    
H57   N7    S    
C52   H22   S    
C98   O6    A    
H47   N4    S    
H60   N8    S    
H44   N3    S    
C32   C43   A    
C33   C34   A    
C1    O4    A    
C34   C36   A    
C84   C93   S    
C71   O17   A    
C70   H30   S    
C37   C41   A    
C102  C103  A    
C10   C54   A    
H52   N5    S    
C12   O5    A    
C55   N17   S    
C66   N2    S    
Cr5   O11   S    
C68   H31   S    
C63   C64   A    
C1    O13   A    
C80   C86   A    
C4    C5    A    
C31   N16   S    
C20   C21   S    
C49   C50   A    
C70   C75   A    
Cr1   O4    S    
C50   C61   S    
C5    C43   S    
C70   C72   A    
C103  H78   S    
C89   C90   A    
C96   C101  A    
C23   O15   A    
C92   N6    S    
H19   N17   S    
C2    O9    A    
C64   C66   A    
Cr1   O17   S    
