data_mof_unit_7790.cif
_audit_creation_date              2012-12-11T15:36:49-0500
_audit_creation_method            fapswitch 2.2
_symmetry_space_group_name_H-M    P1
_symmetry_Int_Tables_number       1
_space_group_crystal_system       triclinic
_cell_length_a                    8.359756
_cell_length_b                    17.37502
_cell_length_c                    18.963782
_cell_angle_alpha                 98.352835
_cell_angle_beta                  93.990463
_cell_angle_gamma                 97.911236
_cell_volume                      2688.0472261

loop_
_atom_site_label
_atom_site_type_symbol
_atom_type_description
_atom_site_fract_x
_atom_site_fract_y
_atom_site_fract_z
_atom_type_partial_charge
Ba1   Ba    Ba6+2 0.162080 0.538580 0.468810 1.622284
Ba2   Ba    Ba6+2 0.648090 0.461410 0.531130 1.620938
C1    C     C_3   0.380841 0.782560 0.239630 -0.374298
C2    C     C_3   0.616859 0.778328 0.507111 -0.044285
C3    C     C_2   0.686384 0.863840 0.508266 -0.013363
C4    C     C_3   0.917874 0.750597 0.323044 0.283592
C5    C     C_2   0.848966 0.887003 0.512510 0.021546
C6    C     C_2   0.957591 0.826217 0.523509 -0.151671
C7    C     C_1   0.893949 0.751416 0.523551 0.075276
C8    C     C_R   0.097720 0.137628 0.517722 -0.138044
C9    C     C_R   0.161949 0.218074 0.529942 0.025826
C10   C     C_R   0.914441 0.250182 0.478252 0.090252
C11   C     C_R   0.848440 0.169854 0.465460 -0.102483
C12   C     C_3   0.386383 0.736260 0.301641 0.358918
C13   C     C_R   0.936015 0.111725 0.487827 -0.019673
C14   C     C_2   0.921562 0.971839 0.514030 -0.050021
C15   C     C_2   0.860069 0.025435 0.477142 -0.003737
C16   C     C_3   0.980440 0.835534 0.315473 -0.176349
C17   C     C_R   0.068093 0.273901 0.513241 -0.309058
C18   C     C_R   0.618309 0.529452 0.300581 -0.289521
C19   C     C_R   0.460888 0.492396 0.276143 0.094469
C20   C     C_R   0.405979 0.487411 0.203669 -0.058358
C21   C     C_R   0.508555 0.518847 0.155627 -0.000077
C22   C     C_R   0.670439 0.550863 0.180390 -0.133271
C23   C     C_3   0.574465 0.704642 0.649913 0.311295
C24   C     C_R   0.724593 0.556522 0.252835 0.009751
C25   C     C_R   0.447067 0.587518 0.048448 0.078699
C26   C     C_R   0.388696 0.582480 0.975108 0.070392
C27   C     C_R   0.332463 0.507469 0.933259 0.046428
C28   C     C_3   0.820248 0.340378 0.295677 0.249737
C29   C     C_R   0.329095 0.439942 0.965913 -0.100075
C30   C     C_R   0.384509 0.445016 0.037805 -0.100788
C31   C     C_R   0.446540 0.517739 0.079608 0.038717
C32   C     C_R   0.126036 0.457774 0.826688 -0.129308
C33   C     C_R   0.077845 0.451793 0.753229 0.044408
C34   C     C_3   0.613554 0.792869 0.678750 -0.241651
C35   C     C_R   0.340287 0.518929 0.734993 0.053603
C36   C     C_R   0.388917 0.526892 0.808105 -0.134677
C37   C     C_R   0.281283 0.497378 0.855075 -0.015262
C38   C     C_R   0.184631 0.482823 0.708164 -0.280993
C39   C     C_3   0.901063 0.308365 0.228875 -0.170495
C40   C     C_3   0.007054 0.648019 0.699661 0.279605
C41   C     C_3   0.951860 0.681661 0.771734 -0.221421
C42   C     C_3   0.249322 0.300595 0.369032 0.308966
C43   C     C_3   0.216322 0.211342 0.344375 -0.234807
C44   C     C_3   0.929881 0.366742 0.176390 -0.445356
C45   C     C_3   0.920294 0.247887 0.694942 0.212827
C46   C     C_3   0.944189 0.624448 0.825161 -0.502482
C47   C     C_3   0.371631 0.176848 0.330469 -0.364081
C48   C     C_3   0.461656 0.832650 0.676664 -0.346165
C49   C     C_2   0.795493 0.208244 0.634909 0.416889
C50   C     C_2   0.039641 0.119709 0.696979 0.508346
C51   C     C_2   0.873379 0.163777 0.795147 0.592572
C52   C     C_3   0.372908 0.334684 0.740524 -0.377377
C53   C     C_2   0.396993 0.183012 0.802923 0.523956
C54   C     C_2   0.714425 0.000163 0.424802 0.471377
C55   C     C_3   0.382306 0.657856 0.943894 -0.406698
C56   C     C_3   0.986011 0.189630 0.741418 -0.166428
C57   C     C_3   0.505834 0.667767 0.092465 -0.416953
C58   C     C_3   0.911170 0.857796 0.245944 -0.345922
C59   C     C_2   0.650789 0.350713 0.277526 0.466829
C60   C     C_3   0.467055 0.270981 0.708737 0.322150
C61   C     C_3   0.527868 0.225949 0.766680 -0.214218
C62   C     C_2   0.745092 0.725651 0.494494 -0.265958
H1    H     H_    0.260785 0.722307 0.316173 0.099477
H2    H     H_    0.288919 0.750566 0.196476 0.092073
H3    H     H_    0.155884 0.182013 0.385443 0.066377
H4    H     H_    0.132483 0.197302 0.294742 0.124829
H5    H     H_    0.434155 0.680557 0.284280 -0.004191
H6    H     H_    0.501339 0.790568 0.218517 0.109698
H7    H     H_    0.689386 0.682246 0.638497 -0.009563
H8    H     H_    0.491521 0.694140 0.600003 0.038471
H9    H     H_    0.669239 0.801728 0.734834 0.137086
H10   H     H_    0.704146 0.821753 0.647232 0.082680
H11   H     H_    0.347945 0.841540 0.257547 0.136416
H12   H     H_    0.826894 0.253093 0.200376 0.146817
H13   H     H_    0.948115 0.875444 0.361576 0.133896
H14   H     H_    0.025828 0.275908 0.670296 -0.085662
H15   H     H_    0.095438 0.222386 0.773324 0.045870
H16   H     H_    0.573951 0.300334 0.686860 0.113930
H17   H     H_    0.611179 0.266540 0.808340 0.089380
H18   H     H_    0.594683 0.181742 0.739586 0.138307
H19   H     H_    0.965520 0.742917 0.377238 0.047644
H20   H     H_    0.087301 0.844475 0.534540 0.114179
H21   H     H_    0.176267 0.096456 0.531039 0.087686
H22   H     H_    0.031309 0.990275 0.549611 0.093337
H23   H     H_    0.020149 0.293338 0.246237 0.128690
H24   H     H_    0.602738 0.906392 0.509436 0.073057
H25   H     H_    0.729280 0.154143 0.437249 0.071616
H26   H     H_    0.714551 0.667151 0.463348 0.066690
H27   H     H_    0.119547 0.335556 0.522739 0.076093
H28   H     H_    0.509335 0.556644 0.828446 0.079822
H29   H     H_    0.782974 0.740756 0.318859 0.025603
H30   H     H_    0.284386 0.458812 0.184582 0.069401
H31   H     H_    0.286275 0.382389 0.934943 0.091025
H32   H     H_    0.382176 0.391312 0.060732 0.108571
H33   H     H_    0.042413 0.433172 0.861551 0.100814
H34   H     H_    0.128217 0.630354 0.708530 0.005954
H35   H     H_    0.752477 0.573210 0.143814 0.083384
H36   H     H_    0.146661 0.478203 0.651755 0.065852
H37   H     H_    0.661328 0.533312 0.356321 0.064607
H38   H     H_    0.114639 0.844090 0.317701 0.101752
H39   H     H_    0.890242 0.397379 0.321972 0.027958
H40   H     H_    0.814816 0.382530 0.154144 0.171444
H41   H     H_    0.008164 0.420678 0.203315 0.163104
H42   H     H_    0.992443 0.340249 0.131230 0.138802
H43   H     H_    0.907649 0.653221 0.876492 0.141372
H44   H     H_    0.853402 0.572133 0.804822 0.176117
H45   H     H_    0.919354 0.596475 0.673665 0.071106
H46   H     H_    0.064810 0.607091 0.835374 0.132700
H47   H     H_    0.434921 0.204400 0.288809 0.176390
H48   H     H_    0.453699 0.185987 0.380398 0.149207
H49   H     H_    0.341127 0.112594 0.311530 0.114578
H50   H     H_    0.494402 0.896153 0.698571 0.155466
H51   H     H_    0.406824 0.827002 0.620756 0.118534
H52   H     H_    0.370935 0.805613 0.709429 0.163285
H53   H     H_    0.754006 0.243518 0.597088 0.062253
H54   H     H_    0.126870 0.129254 0.658855 0.050061
H55   H     H_    0.778657 0.113506 0.779988 0.056750
H56   H     H_    0.037408 0.735431 0.795592 0.138029
H57   H     H_    0.291517 0.316166 0.780069 0.065304
H58   H     H_    0.460287 0.384974 0.768829 0.125428
H59   H     H_    0.299315 0.353330 0.697501 0.104967
H60   H     H_    0.334724 0.215133 0.843143 -0.007248
H61   H     H_    0.613185 0.032950 0.426415 0.006243
H62   H     H_    0.304938 0.694930 0.974578 0.120301
H63   H     H_    0.506540 0.690843 0.946075 0.121455
H64   H     H_    0.329160 0.648799 0.887909 0.117408
H65   H     H_    0.411479 0.706346 0.089100 0.119322
H66   H     H_    0.531879 0.666162 0.150051 0.111732
H67   H     H_    0.829971 0.698887 0.762994 0.124355
H68   H     H_    0.617850 0.695118 0.072158 0.119446
H69   H     H_    0.945724 0.819554 0.199020 0.138731
H70   H     H_    0.777112 0.851963 0.244141 0.154721
H71   H     H_    0.960005 0.919874 0.242986 0.122762
H72   H     H_    0.588820 0.369426 0.322619 -0.023106
H73   H     H_    0.135660 0.320766 0.385205 -0.008969
H74   H     H_    0.342453 0.314364 0.415527 0.063894
O1    O     O_2   0.166667 0.691630 0.546720 -0.460859
O2    O     O_2   0.744159 0.438552 0.747107 -0.504483
O3    O     O_3   0.849906 0.304439 0.739036 -0.626594
O4    O     O_3   0.893830 0.593690 0.541700 -0.495677
O5    O     O_3   0.426330 0.460710 0.414310 -0.495186
O6    O     O_2   0.638540 0.536570 0.671920 -0.471071
O7    O     O_3   0.501071 0.667220 0.702190 -0.648769
O8    O     O_2   0.490466 0.212389 0.527790 -0.488158
O9    O     O_3   0.373870 0.216860 0.654114 -0.612062
O10   O     O_3   0.390350 0.644650 0.417800 -0.488081
O11   O     O_2   0.288306 0.781262 0.458253 -0.511073
O12   O     O_3   0.300227 0.337211 0.311759 -0.621235
O13   O     O_3   0.022022 0.709603 0.659577 -0.641355
O14   O     O_3   0.488547 0.781646 0.358970 -0.583427
O15   O     O_2   0.171750 0.463380 0.328050 -0.478273
O16   O     O_3   0.965290 0.605410 0.380210 -0.483588
O17   O     O_2   0.063319 0.560489 0.252482 -0.496925
O18   O     O_2   0.738524 0.138699 0.628327 -0.589277
O19   O     O_2   0.986765 0.052059 0.703054 -0.552942
O20   O     O_2   0.889719 0.198188 0.856702 -0.572985
O21   O     O_2   0.364397 0.111436 0.789672 -0.537279
O22   O     O_2   0.706069 0.942213 0.379144 -0.585782
O23   O     O_3   0.975319 0.699078 0.269695 -0.615604
O24   O     O_2   0.581384 0.333784 0.217238 -0.611021
O25   O     O_2   0.643630 0.308330 0.453260 -0.482456
O26   O     O_3   0.916470 0.406310 0.458240 -0.494902
O27   O     O_3   0.419940 0.355340 0.582140 -0.490203
O28   O     O_3   0.810689 0.283581 0.341055 -0.673707
O29   O     O_3   0.383960 0.539280 0.585630 -0.470044
O30   O     O_3   0.845010 0.394580 0.619730 -0.492944
P1    P     P_3+3 0.992230 0.679190 0.566750 0.986141
P2    P     P_3+3 0.339610 0.439630 0.337240 0.995152
P3    P     P_3+3 0.931548 0.602905 0.287917 0.925299
P4    P     P_3+3 0.818060 0.320800 0.433200 0.955387
P5    P     P_3+3 0.880554 0.398499 0.713188 0.915621
P6    P     P_3+3 0.442953 0.746449 0.438284 0.960671
P7    P     P_3+3 0.467782 0.565543 0.674631 0.950729
P8    P     P_3+3 0.366933 0.252326 0.571792 0.937065

loop_
_geom_bond_atom_site_label_1
_geom_bond_atom_site_label_2
_ccdc_geom_bond_type
C47   H49   S    
C52   H59   S    
C57   H66   S    
O28   P4    S    
C42   H73   S    
C58   H70   S    
C7    C62   D    
Ba2   O6    S    
C7    P1    S    
C62   H26   S    
C55   H64   S    
C58   H71   S    
C5    C6    S    
C10   P4    S    
C46   H44   S    
C26   C55   S    
C25   C31   A    
O27   P8    S    
C9    C17   A    
C51   O20   D    
C35   C36   A    
C61   H17   S    
C8    H21   S    
C60   H16   S    
C26   C27   A    
C40   H45   S    
C22   C24   A    
O11   P6    D    
C35   C38   A    
C8    C13   A    
C40   H34   S    
C36   C37   A    
C32   C33   A    
C46   H43   S    
C14   C15   D    
Ba1   O29   S    
C19   P2    S    
C22   H35   S    
C44   H41   S    
C36   H28   S    
Ba1   P2    S    
C32   H33   S    
O6    P7    D    
C48   H51   S    
C16   H38   S    
Ba1   P1    S    
Ba1   O4    S    
C3    H24   S    
C57   H65   S    
O7    P7    S    
Ba1   O26   S    
O2    P5    D    
C21   C31   S    
C53   C61   S    
O15   P2    D    
C43   H3    S    
C39   C44   S    
C28   C39   S    
C23   H7    S    
C1    H11   S    
C41   C46   S    
Ba1   O1    S    
C41   H56   S    
C47   H47   S    
O14   P6    S    
C53   O21   D    
C52   H58   S    
C2    P6    S    
C19   C20   A    
C14   H22   S    
Ba2   O5    S    
C20   H30   S    
C4    C16   S    
O30   P5    S    
C39   H23   S    
C49   O18   D    
C61   H18   S    
C32   C37   A    
C33   P5    S    
C1    H6    S    
C28   O28   S    
C8    C9    A    
Ba2   O26   S    
C55   H62   S    
C3    C5    D    
O9    P8    S    
C6    C7    D    
C45   C49   S    
C18   H37   S    
C52   C60   S    
C44   H40   S    
O10   P6    S    
C59   O24   D    
O8    P8    D    
C48   H50   S    
C28   H39   S    
C55   H63   S    
C60   C61   S    
Ba1   O5    S    
C35   P7    S    
C29   C30   A    
C15   C54   S    
C4    O23   S    
C43   C47   S    
C21   C22   A    
C4    H29   S    
C27   C37   S    
C43   H4    S    
C9    P8    S    
C23   H8    S    
C58   H69   S    
C54   H61   S    
C10   C11   A    
Ba1   O15   S    
C40   O13   S    
Ba2   O27   S    
C1    C12   S    
C50   C56   S    
C56   H15   S    
O4    P1    S    
C16   C58   S    
C5    C14   S    
C30   H32   S    
C52   H57   S    
C24   P3    S    
C60   O9    S    
C47   H48   S    
Ba2   O4    S    
C12   H5    S    
O26   P4    S    
C1    H2    S    
C40   C41   S    
Ba2   O30   S    
C34   C48   S    
C42   C43   S    
O29   P7    S    
O3    P5    S    
C50   O19   D    
C13   C15   S    
C45   O3    S    
C53   H60   S    
C34   H10   S    
C42   H74   S    
C4    H19   S    
C11   H25   S    
C6    H20   S    
O25   P4    D    
O5    P2    S    
C2    C3    S    
Ba2   O25   S    
C38   H36   S    
C51   C56   S    
C51   H55   S    
C2    C62   S    
O13   P1    S    
C30   C31   A    
C11   C13   A    
C33   C38   A    
C54   O22   D    
C25   C57   S    
C39   H12   S    
C57   H68   S    
O12   P2    S    
C18   C24   A    
C16   H13   S    
C29   H31   S    
Ba1   Ba2   S    
C10   C17   A    
C41   H67   S    
C49   H53   S    
C12   H1    S    
O16   P3    S    
O1    P1    D    
C48   H52   S    
Ba1   O16   S    
C42   O12   S    
C17   H27   S    
C34   H9    S    
C44   H42   S    
C23   C34   S    
O23   P3    S    
O17   P3    D    
C18   C19   A    
C27   C29   A    
C28   C59   S    
C12   O14   S    
C25   C26   A    
C20   C21   A    
Ba1   O10   S    
C23   O7    S    
C45   H14   S    
C46   H46   S    
Ba2   O29   S    
C59   H72   S    
Ba2   P4    S    
C45   C56   S    
C50   H54   S    
