data_mof_unit_11078.cif
_audit_creation_date              2013-03-05T16:48:11-0500
_audit_creation_method            fapswitch 2.2
_symmetry_space_group_name_H-M    P1
_symmetry_Int_Tables_number       1
_space_group_crystal_system       triclinic
_cell_length_a                    10.824202
_cell_length_b                    12.336688
_cell_length_c                    13.20863
_cell_angle_alpha                 116.56826
_cell_angle_beta                  77.53813
_cell_angle_gamma                 101.2884
_cell_volume                      1530.41342616

loop_
_atom_site_label
_atom_site_type_symbol
_atom_site_description
_atom_site_fract_x
_atom_site_fract_y
_atom_site_fract_z
_atom_type_partial_charge
O1    O     O_R   0.536940 0.972510 0.318130 -0.590644
O2    O     O_R   0.487330 0.806530 0.359650 -0.579085
C1    C     C_R   0.520036 0.855394 0.287129 0.745758
O3    O     O_R   0.705160 0.082990 0.479250 -0.565614
O4    O     O_R   0.655550 0.917010 0.520760 -0.614885
C2    C     C_R   0.737156 0.000333 0.501206 0.795302
Cu1   Cu    Cu3+1 0.529370 0.098270 0.475420 0.991254
Cu2   Cu    Cu3+1 0.470630 0.901730 0.524580 1.011694
O5    O     O_R   0.512670 0.193470 0.640350 -0.540678
O6    O     O_R   0.463060 0.027490 0.681870 -0.542003
O7    O     O_R   0.344450 0.082990 0.479240 -0.590454
O8    O     O_R   0.294840 0.917010 0.520750 -0.551391
C3    C     C_R   0.483122 0.145560 0.713248 0.861723
C4    C     C_R   0.263220 0.997116 0.495086 0.794170
H1    H     H_    0.589011 0.788459 0.851314 0.183066
C5    C     C_R   0.673869 0.944264 0.816731 0.449703
C6    C     C_R   0.757101 0.984512 0.740471 -0.142103
H2    H     H_    0.771984 0.080716 0.759471 0.178807
C7    C     C_R   0.821708 0.900932 0.640098 0.055423
C8    C     C_R   0.802929 0.776719 0.617261 -0.122142
H3    H     H_    0.852418 0.711189 0.540293 0.171899
C9    C     C_R   0.718380 0.736471 0.693022 -0.178864
H4    H     H_    0.702924 0.640452 0.674416 0.204247
C10   C     C_R   0.653828 0.820088 0.792694 -0.138337
C11   C     C_R   0.039048 0.939319 0.550867 -0.167471
H5    H     H_    0.068108 0.897456 0.596796 0.222463
C12   C     C_R   0.129651 0.992647 0.488570 -0.090128
C13   C     C_R   0.090438 0.044087 0.425919 0.032028
C14   C     C_R   0.961004 0.047270 0.433283 -0.200291
H6    H     H_    0.930370 0.085210 0.384092 0.156156
C15   C     C_R   0.871020 0.998672 0.500216 -0.063717
C16   C     C_R   0.910413 0.944419 0.560143 0.006675
C17   C     C_R   0.188674 0.212362 0.367398 -0.227373
H7    H     H_    0.127158 0.272371 0.438411 0.189727
C18   C     C_R   0.277790 0.257915 0.297077 0.339311
C19   C     C_R   0.358528 0.178978 0.206917 -0.157713
H8    H     H_    0.428124 0.211844 0.151725 0.219044
C20   C     C_R   0.349478 0.056682 0.186925 -0.104795
H9    H     H_    0.411572 0.996178 0.117322 0.207612
C21   C     C_R   0.260827 0.012107 0.257011 -0.109940
H10   H     H_    0.255338 0.917258 0.240858 0.121260
C22   C     C_R   0.180993 0.090063 0.348617 0.057448
C23   C     C_R   0.297980 0.303600 0.998157 -0.116927
H11   H     H_    0.290496 0.122257 0.870437 0.238477
H12   H     H_    0.208214 0.282608 0.044320 0.204322
C24   C     C_R   0.459686 0.231679 0.833929 -0.112874
C25   C     C_R   0.685897 0.798457 0.121863 -0.190558
C26   C     C_R   0.749515 0.703951 0.035605 -0.133214
C27   C     C_R   0.687371 0.585948 0.993370 -0.063385
C28   C     C_R   0.554750 0.561943 0.025810 0.087593
C29   C     C_R   0.492191 0.658252 0.117221 0.014048
C30   C     C_R   0.484422 0.444335 0.976805 -0.067573
C31   C     C_R   0.359117 0.423114 0.031844 0.010523
C32   C     C_R   0.296671 0.521711 0.118720 0.410935
C33   C     C_R   0.363406 0.637575 0.158985 -0.218893
C34   C     C_R   0.530659 0.348292 0.872344 0.292492
C35   C     C_R   0.348031 0.209215 0.900605 -0.180475
C36   C     C_R   0.560604 0.774152 0.168561 -0.069960
H13   H     H_    0.739349 0.887121 0.161304 0.153301
H14   H     H_    0.747314 0.515074 0.939926 0.203431
H15   H     H_    0.850030 0.720560 0.007066 0.195931
H16   H     H_    0.313234 0.712655 0.223927 0.158070
C37   C     C_R   0.703286 0.346054 0.327384 -0.246054
H17   H     H_    0.727335 0.169857 0.310685 0.127055
H18   H     H_    0.744129 0.546652 0.293275 0.176578
H19   H     H_    0.782811 0.345320 0.261293 0.183546
N1    N     N_R   0.573890 0.246290 0.438210 -0.186779
C38   C     C_R   0.332957 0.758503 0.651041 0.461407
C39   C     C_R   0.290114 0.655595 0.673257 0.311896
C40   C     C_R   0.350104 0.551115 0.611614 -0.262023
C41   C     C_R   0.456092 0.547675 0.528205 -0.029310
C42   C     C_R   0.491647 0.651358 0.501553 0.245804
C43   C     C_R   0.527697 0.444725 0.470729 0.010264
C44   C     C_R   0.631692 0.445397 0.385202 0.156495
C45   C     C_R   0.664085 0.545401 0.358417 -0.225456
C46   C     C_R   0.596429 0.646216 0.415753 -0.099311
C47   C     C_R   0.501685 0.340870 0.495369 0.072889
C48   C     C_R   0.672516 0.246848 0.355275 0.099493
N2    N     N_R   0.426890 0.754320 0.561170 -0.286863
H20   H     H_    0.425396 0.332719 0.559768 0.131149
H21   H     H_    0.313189 0.475304 0.633228 0.181796
H22   H     H_    0.631673 0.719000 0.391048 0.190592
N3    N     N_R   0.163744 0.507475 0.163163 0.124153
O9    O     O_R   0.122931 0.574310 0.269804 -0.319640
O10   O     O_R   0.080723 0.447102 0.093348 -0.369156
N4    N     N_R   0.636903 0.371982 0.795579 0.102951
O11   O     O_R   0.730736 0.305205 0.754913 -0.369106
O12   O     O_R   0.632841 0.450677 0.756135 -0.375832
Cl1   Cl    Cl    0.596702 0.050376 0.943103 -0.645738
N5    N     N_R   0.290920 0.871425 0.734741 0.145925
O13   O     O_R   0.181095 0.898008 0.733686 -0.377757
O14   O     O_R   0.336117 0.920474 0.831200 -0.340555
Cl2   Cl    Cl    0.164721 0.658284 0.784204 -0.515366
N6    N     N_R   0.287364 0.383838 0.318016 0.115238
O15   O     O_R   0.202994 0.453399 0.391721 -0.326347
O16   O     O_R   0.383380 0.431273 0.266838 -0.394343

loop_
_geom_bond_atom_site_label_1
_geom_bond_atom_site_label_2
_geom_bond_distance
_ccdc_geom_bond_type
C43   C44   1.413966 A    
C7    C8    1.404106 A    
N1    C47   1.362578 A    
C42   C46   1.408508 A    
N5    O13   1.297980 A    
Cu1   Cu2   2.707669 S    
C31   C32   1.411300 A    
Cu1   O7    1.965129 S    
C27   H14   1.075221 S    
O4    C2    1.298905 A    
C17   C22   1.403502 A    
C13   C14   1.390377 A    
C42   N2    1.393007 A    
C39   Cl2   1.762548 S    
C3    C24   1.466330 S    
O7    C4    1.301334 A    
N4    O12   1.301904 A    
C47   H20   1.075375 S    
C33   H16   1.083425 S    
C40   H21   1.076656 S    
O5    C3    1.296509 A    
C6    C7    1.403298 A    
C34   N4    1.437459 S    
C23   C31   1.402871 A    
C15   C16   1.409836 A    
C5    C6    1.397660 A    
Cu2   N2    2.028609 S    
C28   C30   1.429585 A    
C40   C41   1.401240 A    
C4    C12   1.455667 S    
C11   C16   1.382549 A    
C21   C22   1.403165 A    
C2    C15   1.450280 S    
C37   H19   1.083883 S    
C5    Cl1   1.751941 S    
C5    C10   1.399715 A    
C39   C40   1.380824 A    
N1    C48   1.356049 A    
O3    Cu1   1.961935 S    
C7    C16   1.480742 S    
C32   N3    1.440290 S    
C17   H7    1.083292 S    
N5    O14   1.300880 A    
C44   C45   1.392024 A    
C25   C26   1.385305 A    
O3    C2    1.300012 A    
C46   H22   1.064195 S    
C41   C43   1.434944 A    
N4    O11   1.301936 A    
C38   C39   1.398907 A    
C28   C29   1.416653 A    
C11   H5    1.076991 S    
C25   H13   1.084059 S    
O1    C1    1.299341 A    
C18   C19   1.406027 A    
C45   C46   1.389733 A    
C14   H6    1.084891 S    
C38   N5    1.422445 S    
N3    O9    1.301635 A    
H11   C35   1.077321 S    
Cu2   O8    1.961934 S    
C6    H2    1.083358 S    
C29   C36   1.409787 A    
N6    O16   1.300810 A    
C23   H12   1.081664 S    
Cu2   O6    1.955269 S    
C21   H10   1.083127 S    
N3    O10   1.301488 A    
O8    C4    1.300323 A    
C24   C35   1.393168 A    
C9    C10   1.398531 A    
C30   C31   1.429115 A    
C18   N6    1.437186 S    
Cu1   O5    1.944824 S    
C32   C33   1.388996 A    
H1    C10   1.082886 S    
O1    Cu1   1.955270 S    
H17   C48   1.081911 S    
O2    Cu2   1.944826 S    
C8    C9    1.398870 A    
O6    C3    1.309801 A    
O4    Cu2   1.965130 S    
C37   C44   1.401766 A    
C11   C12   1.398236 A    
H18   C45   1.084507 S    
C19   C20   1.397324 A    
O2    C1    1.301125 A    
C41   C42   1.435173 A    
C14   C15   1.401306 A    
C25   C36   1.398157 A    
C20   C21   1.394846 A    
C26   H15   1.082882 S    
C20   H9    1.081654 S    
C38   N2    1.374922 A    
C26   C27   1.391068 A    
C13   C22   1.481042 S    
C17   C18   1.406081 A    
C29   C33   1.402637 A    
N6    O15   1.301540 A    
C23   C35   1.383191 A    
Cu1   N1    2.040700 S    
C1    C36   1.456526 S    
C8    H3    1.083217 S    
C19   H8    1.082198 S    
C27   C28   1.419016 A    
C24   C34   1.414162 A    
C12   C13   1.412275 A    
C43   C47   1.420902 A    
C9    H4    1.082265 S    
C30   C34   1.424742 A    
C37   C48   1.391155 A    
