data_mof_unit_30970.cif
_audit_creation_date              2012-12-11T17:07:30-0500
_audit_creation_method            fapswitch 2.2
_symmetry_space_group_name_H-M    P1
_symmetry_Int_Tables_number       1
_space_group_crystal_system       triclinic
_cell_length_a                    6.953823
_cell_length_b                    14.491629
_cell_length_c                    16.089473
_cell_angle_alpha                 90.028563
_cell_angle_beta                  89.919896
_cell_angle_gamma                 89.951627
_cell_volume                      1621.36959701

loop_
_atom_site_label
_atom_site_type_symbol
_atom_type_description
_atom_site_fract_x
_atom_site_fract_y
_atom_site_fract_z
_atom_type_partial_charge
O1    O     O_R   0.505720 0.583900 0.413310 -0.543107
O2    O     O_R   0.175940 0.594920 0.586080 -0.531156
O3    O     O_R   0.005640 0.416100 0.586690 -0.511574
C1    C     C_R   0.344305 0.616325 0.615253 0.781030
O4    O     O_R   0.176000 0.594930 0.413930 -0.552570
O5    O     O_R   0.005700 0.416110 0.413310 -0.520000
C2    C     C_R   0.344804 0.616898 0.385125 0.726670
O6    O     O_R   0.505660 0.583890 0.586690 -0.550863
O7    O     O_3   0.339200 0.441330 0.500000 -0.363354
V1    V     V_3+5 0.064350 0.510880 0.500000 1.520103
O8    O     O_R   0.675980 0.405080 0.413920 -0.541528
C3    C     C_R   0.845018 0.383570 0.384813 0.847855
O9    O     O_R   0.675920 0.405070 0.586070 -0.549919
C4    C     C_R   0.844748 0.382503 0.614127 0.831816
V2    V     V_3+5 0.564340 0.489120 0.500000 1.492879
O10   O     O_3   0.839360 0.558670 0.500000 -0.393706
H1    H     H_    0.083482 0.082499 0.508262 0.177235
C5    C     C_R   0.729406 0.428626 0.780813 -0.205740
C6    C     C_R   0.673841 0.454081 0.860839 0.754147
C7    C     C_R   0.685854 0.390870 0.925522 -0.167034
C8    C     C_R   0.753598 0.301885 0.910638 -0.269802
C9    C     C_R   0.809838 0.273681 0.829805 0.065476
C10   C     C_R   0.797299 0.338350 0.763500 -0.034356
C11   C     C_R   0.880768 0.183316 0.815052 -0.123416
C12   C     C_R   0.938878 0.157019 0.733375 -0.108954
C13   C     C_R   0.923671 0.221741 0.666422 -0.102733
C14   C     C_R   0.854526 0.312806 0.681988 -0.114640
C15   C     C_R   0.009065 0.066612 0.715713 0.563694
C16   C     C_R   0.061863 0.041458 0.635461 -0.300146
C17   C     C_R   0.044539 0.103563 0.570647 -0.258743
C18   C     C_R   0.975388 0.192231 0.584947 0.590801
H2    H     H_    0.643476 0.410905 0.987760 0.180342
H3    H     H_    0.114738 0.972434 0.623267 0.164595
C19   C     C_R   0.741049 0.255569 0.183731 -0.084249
C20   C     C_R   0.883132 0.186954 0.181919 -0.178287
C21   C     C_R   0.025073 0.189701 0.244649 0.567611
C22   C     C_R   0.013982 0.254805 0.309699 -0.159424
C23   C     C_R   0.858431 0.317027 0.315233 -0.228617
C24   C     C_R   0.728354 0.318499 0.248904 0.066062
C25   C     C_3   0.514018 0.316077 0.248179 0.523259
C26   C     C_3   0.528030 0.248093 0.176245 -0.398292
H4    H     H_    0.450348 0.287124 0.305906 0.055627
H5    H     H_    0.474770 0.276196 0.116244 0.197616
C27   C     C_R   0.481572 0.758554 0.681502 -0.107093
C28   C     C_R   0.350743 0.685306 0.683021 -0.259306
C29   C     C_R   0.218339 0.682683 0.749732 0.549279
C30   C     C_R   0.232695 0.746068 0.816306 0.678309
C31   C     C_R   0.376570 0.814918 0.816785 -0.231082
C32   C     C_R   0.492611 0.822217 0.745901 -0.121993
C33   C     C_3   0.705144 0.830859 0.736375 0.605457
C34   C     C_3   0.693068 0.760538 0.666250 -0.377470
H6    H     H_    0.763919 0.693639 0.680721 0.242845
H7    H     H_    0.729126 0.790149 0.604462 0.101574
C35   C     C_R   0.505433 0.681301 0.257520 0.088712
C36   C     C_R   0.352687 0.682305 0.314442 -0.099459
C37   C     C_R   0.202166 0.745290 0.299668 -0.178406
H8    H     H_    0.080473 0.748264 0.341435 0.117561
C38   C     C_R   0.213652 0.809665 0.234259 -0.068251
C39   C     C_R   0.375875 0.812935 0.181649 -0.171788
C40   C     C_R   0.516740 0.744967 0.192752 0.119740
C41   C     C_3   0.728516 0.755075 0.203018 0.515817
C42   C     C_3   0.716416 0.685186 0.273205 -0.462149
H9    H     H_    0.771975 0.825505 0.222677 -0.000628
H10   H     H_    0.749845 0.714907 0.335205 0.111063
H11   H     H_    0.788778 0.618544 0.259063 0.224586
O11   O     O_R   0.229140 0.916090 0.913340 -0.485241
O12   O     O_R   0.558860 0.905090 0.086080 -0.543915
O13   O     O_R   0.729100 0.083920 0.086690 -0.564307
C43   C     C_R   0.389801 0.883139 0.114953 0.736045
O14   O     O_R   0.558860 0.905090 0.913930 -0.511242
O15   O     O_R   0.729100 0.083920 0.913310 -0.557453
C44   C     C_R   0.389882 0.882560 0.885599 0.843908
O16   O     O_R   0.229140 0.916080 0.086720 -0.527541
O17   O     O_3   0.395570 0.058660 0.000020 -0.403955
V3    V     V_3+5 0.670450 0.989140 0.000000 1.614162
O18   O     O_R   0.058810 0.094980 0.913910 -0.527986
C45   C     C_R   0.890176 0.116368 0.884998 0.792475
O19   O     O_R   0.058810 0.094980 0.086060 -0.528243
C46   C     C_R   0.890109 0.116862 0.114923 0.710822
V4    V     V_3+5 0.170450 0.010950 0.999970 1.626652
O20   O     O_3   0.895460 0.941370 0.999990 -0.322236
H12   H     H_    0.121516 0.253015 0.358279 0.179400
F1    F     F_    0.437136 0.400099 0.224315 -0.657159
H13   H     H_    0.476120 0.177836 0.191828 0.197517
F2    F     F_    0.084144 0.614816 0.753699 -0.640895
F3    F     F_    0.114974 0.735846 0.883041 -0.548265
F4    F     F_    0.801988 0.797300 0.804925 -0.567518
H14   H     H_    0.750815 0.900676 0.716121 0.059510
H15   H     H_    0.719058 0.480785 0.732947 0.144351
H16   H     H_    0.100155 0.860166 0.227566 0.135984
F5    F     F_    0.827463 0.721462 0.134698 -0.597577
F6    F     F_    0.608902 0.540831 0.875696 -0.614103
H17   H     H_    0.762355 0.255923 0.963461 0.124841
F7    F     F_    0.026277 0.000403 0.774688 -0.702383
F8    F     F_    0.956019 0.247046 0.517362 -0.729305
F9    F     F_    0.165095 0.124563 0.247227 -0.728271

loop_
_geom_bond_atom_site_label_1
_geom_bond_atom_site_label_2
_ccdc_geom_bond_type
C27   C32   A    
C39   C40   A    
C36   C37   A    
C25   C26   S    
C6    C7    A    
C2    C36   S    
C1    O6    A    
C35   C40   A    
C28   C29   A    
O13   V3    S    
C13   C14   A    
C16   C17   A    
C21   C22   A    
C19   C20   A    
O5    C3    A    
C17   C18   A    
O19   V4    S    
V2    O10   S    
C16   H3    S    
C37   H8    S    
C15   F7    S    
C5    C6    A    
C41   H9    S    
C42   H10   S    
C6    F6    S    
C29   C30   A    
O8    V2    S    
O11   C44   A    
C20   C21   A    
C43   O16   A    
O1    V2    S    
C10   C14   A    
C4    C14   S    
O7    V1    S    
C33   H14   S    
C29   F2    S    
O13   C46   A    
C25   H4    S    
C13   C18   A    
O17   V4    S    
C8    C9    A    
C3    C23   S    
H1    C17   S    
C26   H5    S    
C25   F1    S    
C19   C26   S    
C31   C44   S    
C1    C28   S    
O17   V3    S    
C5    C10   A    
C30   F3    S    
C11   C12   A    
C24   C25   S    
O4    C2    A    
O19   C46   A    
V3    O20   S    
C35   C42   S    
C38   C39   A    
C26   H13   S    
C19   C24   A    
C40   C41   S    
C34   H7    S    
O2    C1    A    
C22   C23   A    
C21   F9    S    
C30   C31   A    
C33   C34   S    
O18   C45   A    
C38   H16   S    
O3    C4    A    
C33   F4    S    
C39   C43   S    
C27   C34   S    
C31   C32   A    
O6    V2    S    
O9    V2    S    
C9    C11   A    
C22   H12   S    
O12   V3    S    
O2    V1    S    
O15   C45   A    
C27   C28   A    
C7    H2    S    
C35   C36   A    
C15   C16   A    
C42   H11   S    
O1    C2    A    
C5    H15   S    
O18   V4    S    
V4    O20   S    
O5    V1    S    
O8    C3    A    
O11   V4    S    
C12   C13   A    
C34   H6    S    
O3    V1    S    
V1    O10   S    
O15   V3    S    
C23   C24   A    
C8    H17   S    
C18   F8    S    
C20   C46   S    
O16   V4    S    
C37   C38   A    
O7    V2    S    
C41   C42   S    
C12   C15   A    
C11   C45   S    
O4    V1    S    
C7    C8    A    
C32   C33   S    
O14   V3    S    
C9    C10   A    
O14   C44   A    
O12   C43   A    
O9    C4    A    
C41   F5    S    
