data_mof_unit_9073.cif
_audit_creation_date              2013-03-05T16:12:07-0500
_audit_creation_method            fapswitch 2.2
_symmetry_space_group_name_H-M    P1
_symmetry_Int_Tables_number       1
_space_group_crystal_system       triclinic
_cell_length_a                    10.842987
_cell_length_b                    9.568521
_cell_length_c                    27.709386
_cell_angle_alpha                 90.254593
_cell_angle_beta                  89.750457
_cell_angle_gamma                 89.354345
_cell_volume                      2874.64735974

loop_
_atom_site_label
_atom_site_type_symbol
_atom_site_description
_atom_site_fract_x
_atom_site_fract_y
_atom_site_fract_z
_atom_type_partial_charge
O1    O     O_R   0.317570 0.620260 0.500030 -0.556245
O2    O     O_R   0.317570 0.379740 0.500030 -0.567270
C1    C     C_R   0.260035 0.500467 0.499681 0.867964
O3    O     O_R   0.499900 0.620250 0.430280 -0.601125
O4    O     O_R   0.499900 0.379750 0.430280 -0.556084
C2    C     C_R   0.500646 0.499786 0.407642 0.857244
Cu1   Cu    Cu3+1 0.499860 0.642410 0.500020 1.042827
Cu2   Cu    Cu3+1 0.499860 0.357590 0.500020 1.055227
O5    O     O_R   0.682190 0.620260 0.500010 -0.551107
O6    O     O_R   0.682190 0.379740 0.500010 -0.550393
O7    O     O_R   0.499860 0.620280 0.569750 -0.507442
O8    O     O_R   0.499860 0.379720 0.569750 -0.516354
C3    C     C_R   0.739406 0.499119 0.498382 0.953979
C4    C     C_R   0.498423 0.500241 0.592188 0.915722
C5    C     C_R   0.375402 0.489816 0.178559 0.569645
O9    O     O_2   0.275339 0.451697 0.204272 -0.481473
N1    N     N_R   0.482097 0.522365 0.201805 -0.475035
C6    C     C_R   0.585916 0.560373 0.177107 0.610774
C7    C     C_R   0.549713 0.404837 0.275700 -0.104850
C8    C     C_R   0.555735 0.397198 0.325954 0.383854
C9    C     C_R   0.433405 0.611372 0.331661 -0.236710
C10   C     C_R   0.427604 0.617672 0.281510 -0.054374
C11   C     C_R   0.485910 0.514603 0.253431 0.254105
C12   C     C_R   0.474826 0.534775 0.101666 -0.101632
C13   C     C_R   0.369807 0.494587 0.128133 -0.014240
C14   C     C_R   0.261558 0.459644 0.103778 -0.083907
C15   C     C_R   0.585573 0.566620 0.126112 -0.126830
C16   C     C_R   0.496900 0.501276 0.354517 -0.105087
H1    H     H_    0.387241 0.692314 0.352674 0.175065
H2    H     H_    0.378425 0.703079 0.264408 0.172467
C17   C     C_R   0.490457 0.501406 0.644845 -0.096419
C18   C     C_R   0.366159 0.483022 0.974983 0.021295
C19   C     C_R   0.558790 0.614779 0.973743 -0.065803
C20   C     C_R   0.463187 0.546134 0.948780 0.046061
C21   C     C_R   0.277051 0.407306 0.949470 -0.218049
C22   C     C_R   0.280778 0.394752 0.899499 0.433775
C23   C     C_R   0.374860 0.461148 0.872686 -0.088964
C24   C     C_R   0.464680 0.540516 0.897576 -0.136912
C25   C     C_R   0.556567 0.613171 0.871438 -0.165885
C26   C     C_R   0.559213 0.598708 0.820627 0.658753
N2    N     N_R   0.473414 0.519873 0.797510 -0.475160
C27   C     C_R   0.383277 0.451099 0.821958 0.660348
C28   C     C_R   0.389799 0.584984 0.717947 0.452257
C29   C     C_R   0.396242 0.578329 0.667735 -0.163337
C30   C     C_R   0.576421 0.426978 0.672529 -0.057256
C31   C     C_R   0.569539 0.431833 0.722791 -0.094365
C32   C     C_R   0.476884 0.511415 0.745749 0.197336
O10   O     O_2   0.303295 0.372901 0.796724 -0.395635
C33   C     C_R   0.362854 0.494645 0.026084 0.080092
C34   C     C_R   0.469006 0.541601 0.050588 0.084107
C35   C     C_R   0.570129 0.593181 0.024207 0.019246
C36   C     C_R   0.258252 0.458383 0.053651 -0.173940
H3    H     H_    0.171288 0.432200 0.037345 0.167679
O11   O     O_2   0.687730 0.593439 0.202226 -0.415426
C37   C     C_R   0.691285 0.600061 0.098426 0.417647
H4    H     H_    0.595571 0.325905 0.253717 0.186966
C38   C     C_R   0.636857 0.705112 0.947541 0.287282
C39   C     C_R   0.638843 0.701229 0.896871 0.385816
O12   O     O_2   0.646647 0.661504 0.793981 -0.402744
C40   C     C_R   0.682486 0.611397 0.048439 -0.155329
H5    H     H_    0.650324 0.368072 0.655382 0.241504
C41   C     C_3   0.066347 0.569330 0.545592 0.118078
C42   C     C_3   0.073609 0.346896 0.495019 0.128660
C43   C     C_3   0.924681 0.582893 0.542091 0.191877
C44   C     C_3   0.932020 0.344676 0.499880 0.157414
H6    H     H_    0.898124 0.694012 0.536083 0.232182
H7    H     H_    0.892145 0.282431 0.469927 0.221651
C45   C     C_3   0.073170 0.581014 0.453914 -0.363800
C46   C     C_3   0.121604 0.500482 0.498485 -0.244427
C47   C     C_3   0.877547 0.498065 0.497961 -0.315406
C48   C     C_3   0.930070 0.569919 0.450526 0.563887
C49   C     C_3   0.609476 0.081351 0.475712 -0.271622
C50   C     C_3   0.607598 0.915942 0.474520 -0.241613
C51   C     C_3   0.499113 0.085228 0.551586 0.645864
C52   C     C_3   0.504177 0.916494 0.551560 0.649508
C53   C     C_3   0.391772 0.083401 0.475491 -0.242675
C54   C     C_3   0.389908 0.917948 0.476771 -0.285747
N3    N     N_3   0.500250 0.143650 0.501060 -0.237040
N4    N     N_3   0.500250 0.856350 0.501060 -0.235497
H8    H     H_    0.390940 0.119094 0.437324 0.217932
H9    H     H_    0.383847 0.876812 0.439250 0.182241
Cl1   Cl    Cl    0.839511 0.625403 0.122913 -0.460485
Cl2   Cl    Cl    0.713524 0.845021 0.976756 -0.476167
Cl3   Cl    Cl    0.742984 0.814348 0.867131 -0.328799
H10   H     H_    0.637102 0.375288 0.743999 0.200163
H11   H     H_    0.766673 0.628476 0.028383 0.217872
Cl4   Cl    Cl    0.122513 0.740239 0.558446 -0.455020
Cl5   Cl    Cl    0.119529 0.259689 0.439819 -0.551569
H12   H     H_    0.091936 0.502307 0.576781 0.193430
H13   H     H_    0.115919 0.284806 0.524651 0.210119
Cl6   Cl    Cl    0.852551 0.543767 0.598946 -0.428322
Cl7   Cl    Cl    0.893730 0.248345 0.553117 -0.423066
H14   H     H_    0.101880 0.691928 0.456998 0.229963
H15   H     H_    0.118230 0.541481 0.420341 0.233573
Cl8   Cl    Cl    0.871027 0.742822 0.440014 -0.563855
Cl9   Cl    Cl    0.888363 0.473222 0.397439 -0.449768
H16   H     H_    0.696279 0.116021 0.492776 0.241788
H17   H     H_    0.695040 0.877593 0.490149 0.256289
H18   H     H_    0.613550 0.120833 0.438205 0.237784
H19   H     H_    0.607491 0.878864 0.436401 0.222824
Cl10  Cl    Cl    0.627894 0.149707 0.586026 -0.417226
Cl11  Cl    Cl    0.640874 0.848630 0.582039 -0.405658
H20   H     H_    0.304486 0.122997 0.491479 0.247215
H21   H     H_    0.304003 0.884132 0.494914 0.251151
Cl12  Cl    Cl    0.362892 0.153176 0.583333 -0.457063
Cl13  Cl    Cl    0.378315 0.853973 0.587765 -0.420764
H22   H     H_    0.178984 0.431109 0.123386 0.215818
H23   H     H_    0.326867 0.631985 0.646640 0.233296
Cl14  Cl    Cl    0.273824 0.688829 0.745183 -0.388379
Cl15  Cl    Cl    0.162018 0.294007 0.873782 -0.392936
H24   H     H_    0.205479 0.350794 0.967893 0.181177
Cl16  Cl    Cl    0.643757 0.260003 0.350801 -0.528506

loop_
_geom_bond_atom_site_label_1
_geom_bond_atom_site_label_2
_geom_bond_distance
_ccdc_geom_bond_type
C7    H4    1.083298 S    
C50   H19   1.112739 S    
C42   C44   1.540957 S    
C42   Cl5   1.804547 S    
C44   Cl7   1.792614 S    
N2    C27   1.363769 A    
C21   C22   1.389710 A    
C12   C15   1.416750 A    
C4    C17   1.461238 S    
Cu1   Cu2   2.725305 S    
C30   C31   1.394936 A    
Cu1   O7    1.944679 S    
N1    C11   1.433516 S    
C22   C23   1.417208 A    
C1    C46   1.501522 S    
C53   N3    1.495572 S    
C39   Cl3   1.775709 S    
O4    C2    1.311232 A    
O7    C4    1.308721 A    
C15   C37   1.416892 A    
C5    C13   1.399773 A    
C48   Cl8   1.792733 S    
C3    C47   1.497774 S    
C44   C47   1.577116 S    
C41   H12   1.112721 S    
C5    N1    1.364972 A    
C23   C27   1.410988 A    
O5    C3    1.309050 A    
C41   C43   1.543603 S    
C8    Cl16  1.758917 S    
C2    C16   1.472915 S    
C42   C46   1.567212 S    
C45   C46   1.549146 S    
C44   H7    1.111332 S    
C52   Cl11  1.823716 S    
C49   N3    1.491462 S    
C38   Cl2   1.777598 S    
C47   C48   1.592153 S    
C43   C47   1.556051 S    
C51   N3    1.509890 S    
C31   H10   1.082793 S    
C53   H20   1.105598 S    
C54   N4    1.492142 S    
C26   O12   1.347464 S    
O1    Cu1   1.990272 S    
C37   C40   1.393425 A    
Cu2   N3    2.047377 S    
O3    Cu1   1.943111 S    
C34   C35   1.410184 A    
C49   H16   1.108604 S    
C29   H23   1.081162 S    
C12   C34   1.418796 A    
C50   H17   1.103769 S    
C51   C52   1.614847 S    
C18   C21   1.405487 A    
C12   C13   1.409792 A    
O3    C2    1.309773 A    
C17   C29   1.400336 A    
C25   C26   1.414263 A    
C40   H11   1.080998 S    
C48   Cl9   1.796561 S    
C8    C16   1.414018 A    
C13   C14   1.399515 A    
C25   C39   1.421129 A    
C9    H1    1.083581 S    
C45   H15   1.111747 S    
C41   C46   1.572726 S    
O1    C1    1.311185 A    
C18   C20   1.417848 A    
C7    C11   1.398437 A    
C28   C29   1.393937 A    
C23   C24   1.420847 A    
C14   C36   1.389601 A    
C54   H9    1.112527 S    
Cu2   O8    1.942808 S    
C33   C36   1.412076 A    
N1    C6    1.368416 A    
N2    C32   1.436504 S    
C27   O10   1.347639 S    
C53   C54   1.584046 S    
C37   Cl1   1.766117 S    
C51   Cl10  1.807482 S    
C26   N2    1.364369 A    
C9    C16   1.406504 A    
O8    C4    1.307616 A    
C22   Cl15  1.767806 S    
C21   H24   1.078761 S    
C36   H3    1.078940 S    
Cu1   N4    2.047216 S    
Cu1   O5    1.985952 S    
C31   C32   1.402417 A    
C19   C38   1.416850 A    
C10   H2    1.082855 S    
C20   C24   1.419626 A    
O2    Cu2   1.985522 S    
C6    C15   1.414583 A    
C53   H8    1.112849 S    
C49   C50   1.583273 S    
C50   N4    1.493996 S    
O6    C3    1.306875 A    
C14   H22   1.083511 S    
O4    Cu2   1.944986 S    
C19   C35   1.420085 A    
C41   Cl4   1.786414 S    
C45   H14   1.112390 S    
C7    C8    1.396508 A    
O2    C1    1.306765 A    
C51   Cl12  1.827603 S    
C38   C39   1.404434 A    
C24   C25   1.419264 A    
C28   C32   1.405990 A    
C45   C48   1.559655 S    
C42   H13   1.113142 S    
C30   H5    1.081518 S    
C19   C20   1.414924 A    
C18   C33   1.420114 A    
C6    O11   1.347554 S    
C52   Cl13  1.799598 S    
Cu2   O6    1.990702 S    
C33   C34   1.415439 A    
C17   C30   1.400206 A    
C10   C11   1.397328 A    
C54   H21   1.108708 S    
C35   C40   1.405823 A    
C28   Cl14  1.759299 S    
C43   Cl6   1.798580 S    
C9    C10   1.392889 A    
C52   N4    1.511638 S    
C5    O9    1.349952 S    
C43   H6    1.111849 S    
C49   H18   1.108269 S    
