data_mof_unit_63460.cif
_audit_creation_date              2012-12-10T19:26:17-0500
_audit_creation_method            fapswitch 2.2
_symmetry_space_group_name_H-M    P1
_symmetry_Int_Tables_number       1
_space_group_crystal_system       triclinic
_cell_length_a                    18.722317
_cell_length_b                    18.828587
_cell_length_c                    18.695403
_cell_angle_alpha                 109.556287
_cell_angle_beta                  109.363753
_cell_angle_gamma                 109.442607
_cell_volume                      5076.47745633

loop_
_atom_site_label
_atom_site_type_symbol
_atom_type_description
_atom_site_fract_x
_atom_site_fract_y
_atom_site_fract_z
_atom_type_partial_charge
C1    C     C_R   0.120925 0.000861 0.620442 0.869400
C2    C     C_R   0.265253 0.250174 0.582576 0.066739
C3    C     C_R   0.187531 0.186301 0.501663 -0.134825
C4    C     C_R   0.172899 0.189881 0.424116 -0.017948
C5    C     C_R   0.237878 0.255619 0.427702 -0.286423
C6    C     C_R   0.313887 0.320156 0.506916 -0.116303
C7    C     C_R   0.183743 0.922789 0.676030 0.187071
C8    C     C_R   0.185416 0.000564 0.687887 -0.110086
C9    C     C_R   0.245875 0.077389 0.768924 -0.211617
C10   C     C_R   0.310688 0.077545 0.832862 -0.206899
C11   C     C_R   0.313078 0.000428 0.816107 -0.086459
C12   C     C_R   0.120138 0.119836 0.499998 0.928007
C13   C     C_R   0.246340 0.922560 0.740308 0.134695
C14   C     C_3   0.253433 0.856902 0.675451 -0.548789
C15   C     C_3   0.184796 0.857486 0.604488 -0.417502
C16   C     C_R   0.788111 0.728141 0.454888 0.071909
C17   C     C_R   0.812307 0.815042 0.499599 -0.054013
C18   C     C_R   0.769313 0.837370 0.545329 -0.165003
C19   C     C_R   0.705016 0.772480 0.545401 -0.189764
C20   C     C_R   0.684502 0.685735 0.500608 -0.037344
C21   C     C_R   0.726918 0.666170 0.455654 -0.052489
C22   C     C_3   0.735563 0.594144 0.401423 -0.355492
C23   C     C_R   0.879900 0.999826 0.379959 0.983407
C24   C     C_3   0.806402 0.665585 0.400022 -0.120841
C25   C     C_R   0.747138 0.925084 0.239111 0.036167
C26   C     C_R   0.815631 0.001356 0.314592 -0.069192
C27   C     C_R   0.819688 0.080692 0.325924 -0.153991
C28   C     C_R   0.755317 0.080905 0.261034 -0.222003
C29   C     C_R   0.685947 0.001623 0.186278 -0.068272
C30   C     C_R   0.684347 0.925289 0.177895 0.140706
C31   C     C_3   0.634150 0.828573 0.119934 -0.370759
C32   C     C_3   0.706818 0.828014 0.191040 -0.138332
C33   C     C_R   0.499713 0.619543 0.620229 0.868993
C34   C     C_R   0.879314 0.880082 0.499762 0.942966
C35   C     C_R   0.379926 0.383081 0.503259 0.867071
C36   C     C_R   0.502502 0.382409 0.380161 0.831589
C37   C     C_R   0.619734 0.619295 0.499545 0.859549
C38   C     C_R   0.499630 0.119741 0.119553 0.879319
C39   C     C_R   0.379907 0.999690 0.879841 0.869677
C40   C     C_R   0.500323 0.879935 0.879929 0.905945
C41   C     C_R   0.619945 0.000238 0.120013 0.927946
C42   C     C_R   0.535223 0.769291 0.700163 0.105825
C43   C     C_R   0.501622 0.685495 0.687418 -0.071793
C44   C     C_R   0.480960 0.668776 0.747624 -0.223855
C45   C     C_R   0.282898 0.245291 0.660141 -0.165943
C46   C     C_R   0.481322 0.733153 0.812205 -0.156311
C47   C     C_R   0.505139 0.814671 0.817742 -0.078323
C48   C     C_R   0.537483 0.833512 0.765135 0.166123
C49   C     C_3   0.512155 0.871506 0.709103 -0.490850
C50   C     C_3   0.509521 0.800375 0.637331 -0.488014
C51   C     C_R   0.428885 0.249997 0.241661 0.057030
C52   C     C_R   0.506363 0.319452 0.315353 -0.191220
C53   C     C_R   0.586391 0.322155 0.325484 0.009946
C54   C     C_R   0.582955 0.254848 0.259389 -0.138442
C55   C     C_R   0.502288 0.185443 0.187004 -0.117049
C56   C     C_R   0.356187 0.312721 0.740182 -0.121994
C57   C     C_R   0.426867 0.184809 0.181227 0.072414
C58   C     C_3   0.329783 0.134622 0.126348 -0.445985
C59   C     C_3   0.331419 0.209063 0.196687 -0.042495
C60   C     C_R   0.412896 0.386202 0.744812 -0.134702
C61   C     C_R   0.398613 0.390783 0.668835 -0.171740
C62   C     C_R   0.326893 0.320983 0.586162 0.110965
H1    H     H_    0.230108 0.794198 0.675166 0.222481
H2    H     H_    0.122086 0.794813 0.562859 0.242194
H3    H     H_    0.785055 0.904155 0.580694 0.168937
H4    H     H_    0.672201 0.789828 0.580559 0.133913
H5    H     H_    0.761889 0.565714 0.439383 0.183659
H6    H     H_    0.758876 0.142072 0.269677 0.165980
H7    H     H_    0.568860 0.799602 0.114444 0.145642
H8    H     H_    0.460515 0.605169 0.741892 0.137844
H9    H     H_    0.460871 0.718589 0.855816 0.157699
H10   H     H_    0.565460 0.937670 0.734494 0.217874
H11   H     H_    0.368242 0.308451 0.798971 0.142724
H12   H     H_    0.561291 0.825522 0.621312 0.201845
H13   H     H_    0.307526 0.130555 0.061338 0.206846
H14   H     H_    0.301747 0.071000 0.123672 0.217304
H15   H     H_    0.443413 0.450170 0.676339 0.148905
H16   H     H_    0.228634 0.257257 0.367938 0.167691
H17   H     H_    0.245632 0.137728 0.781020 0.165084
H18   H     H_    0.359633 0.137542 0.894012 0.167223
H19   H     H_    0.318450 0.883548 0.680064 0.197608
O1    O     O_R   0.091620 0.948280 0.539900 -0.615155
O2    O     O_R   0.551680 0.591610 0.643340 -0.620113
O3    O     O_R   0.356630 0.408410 0.448290 -0.625217
O4    O     O_R   0.460070 0.408390 0.551710 -0.623171
O5    O     O_R   0.448260 0.408420 0.356690 -0.611143
O6    O     O_R   0.551700 0.408400 0.460110 -0.637188
O7    O     O_R   0.539880 0.591640 0.448310 -0.621066
O8    O     O_R   0.643310 0.591620 0.551740 -0.616714
O9    O     O_R   0.551750 0.143400 0.091630 -0.613915
O10   O     O_R   0.448300 0.040010 0.091670 -0.622124
O11   O     O_R   0.460120 0.051750 0.908420 -0.621355
O12   O     O_R   0.091590 0.051710 0.643320 -0.633057
O13   O     O_R   0.356670 0.948360 0.908460 -0.616692
O14   O     O_R   0.551700 0.960090 0.908430 -0.609755
O15   O     O_R   0.448250 0.856700 0.908470 -0.632422
O16   O     O_R   0.643330 0.051740 0.091640 -0.609350
O17   O     O_R   0.539880 0.948350 0.091680 -0.629380
O18   O     O_R   0.091630 0.039900 0.448300 -0.596898
O19   O     O_R   0.091610 0.143340 0.551720 -0.634423
O20   O     O_R   0.908410 0.948290 0.356680 -0.588168
O21   O     O_R   0.908380 0.051720 0.460100 -0.633786
O22   O     O_R   0.908390 0.856660 0.448280 -0.589965
O23   O     O_R   0.908370 0.960100 0.551700 -0.636868
O24   O     O_R   0.448240 0.591630 0.539920 -0.622004
Zn1   Zn    Zn3+2 0.000020 0.930940 0.430940 1.080787
Zn2   Zn    Zn3+2 0.999980 0.069060 0.569060 0.985256
Zn3   Zn    Zn3+2 0.430910 0.500030 0.430960 0.972270
Zn4   Zn    Zn3+2 0.569030 0.500000 0.569070 0.975670
Zn5   Zn    Zn3+2 0.569070 0.069080 0.000020 1.006031
Zn6   Zn    Zn3+2 0.430930 0.931020 0.000080 0.974289
C63   C     C_2   0.090863 0.128685 0.338082 0.424278
H20   H     H_    0.091884 0.121750 0.278441 0.113423
O25   O     O_2   0.020995 0.088783 0.332439 -0.587129
H21   H     H_    0.210098 0.884696 0.568049 0.205550
C64   C     C_2   0.652577 0.527470 0.315407 0.373534
H22   H     H_    0.593463 0.531734 0.300722 0.097336
O26   O     O_2   0.651355 0.467882 0.261365 -0.525463
C65   C     C_2   0.896480 0.678256 0.447945 0.500139
H23   H     H_    0.911114 0.628410 0.419075 0.090314
O27   O     O_2   0.952967 0.743279 0.518631 -0.598521
C66   C     C_2   0.783311 0.660689 0.312202 0.531522
H24   H     H_    0.722855 0.657943 0.275381 0.068122
O28   O     O_2   0.831682 0.659831 0.281701 -0.527903
H25   H     H_    0.872553 0.141839 0.383848 0.171980
H26   H     H_    0.240760 0.189543 0.659945 0.132764
C67   C     C_2   0.628900 0.798182 0.031677 0.389376
H27   H     H_    0.600762 0.729215 0.988465 0.072663
O29   O     O_2   0.655610 0.849516 0.007987 -0.563229
C68   C     C_2   0.672792 0.784548 0.236744 0.453439
H28   H     H_    0.624807 0.715721 0.199423 0.065367
O30   O     O_2   0.698845 0.825144 0.314982 -0.607324
C69   C     C_2   0.765393 0.800631 0.164028 0.426821
H29   H     H_    0.801117 0.834859 0.139735 0.107540
O31   O     O_2   0.773300 0.740336 0.168877 -0.545210
H30   H     H_    0.447024 0.865571 0.693352 0.191111
H31   H     H_    0.442792 0.753018 0.579880 0.222769
C70   C     C_2   0.673233 0.393861 0.401770 0.443794
H32   H     H_    0.679849 0.451084 0.449571 0.074789
O32   O     O_2   0.739611 0.390319 0.411952 -0.572137
H33   H     H_    0.642691 0.255874 0.264292 0.188063
C71   C     C_2   0.298261 0.261285 0.164152 0.479828
H34   H     H_    0.244922 0.267588 0.170822 0.064107
O33   O     O_2   0.329941 0.296049 0.129185 -0.561343
C72   C     C_2   0.294142 0.182205 0.249384 0.309098
H35   H     H_    0.333594 0.215460 0.320193 0.074426
O34   O     O_2   0.218598 0.124391 0.213143 -0.574497
H36   H     H_    0.468456 0.439676 0.807407 0.144379

loop_
_geom_bond_atom_site_label_1
_geom_bond_atom_site_label_2
_ccdc_geom_bond_type
C40   C47   S    
C16   C21   A    
O16   Zn5   S    
C1    C8    S    
C11   C13   A    
C37   O7    A    
C19   C20   A    
C31   C67   S    
C63   O25   D    
C72   H35   S    
C50   H31   S    
C58   H14   S    
C7    C8    A    
C53   C54   A    
C64   H22   S    
C18   H3    S    
C26   C27   A    
C28   C29   A    
C28   H6    S    
O4    Zn4   S    
C50   H12   S    
C5    C6    A    
O7    Zn3   S    
C23   O21   A    
O8    Zn4   S    
O13   Zn6   S    
O20   Zn1   S    
C6    C35   S    
C19   H4    S    
C18   C19   A    
C9    H17   S    
C23   C26   S    
O10   Zn6   S    
C12   O18   A    
C3    C12   S    
C72   O34   D    
C46   C47   A    
C38   C55   S    
C31   C32   S    
C45   C56   A    
C61   H15   S    
C8    C9    A    
C24   C65   S    
C49   H10   S    
C15   H2    S    
O2    Zn4   S    
C44   H8    S    
C51   C57   A    
C9    C10   A    
C36   C52   S    
C25   C32   S    
C22   C64   S    
C4    C63   S    
C16   C24   S    
C21   C22   S    
C40   O15   A    
C32   C69   S    
C56   H11   S    
C32   C68   S    
C63   H20   S    
O24   Zn3   S    
C44   C46   A    
C58   H13   S    
C65   O27   D    
C36   O6    A    
O15   Zn6   S    
C71   H34   S    
C53   C70   S    
C33   C43   S    
C41   O16   A    
C33   O24   A    
C59   C71   S    
C10   C11   A    
C10   H18   S    
C16   C17   A    
C36   O5    A    
C1    O1    A    
C38   O10   A    
C34   O23   A    
C3    C4    A    
C56   C60   A    
C60   C61   A    
C68   O30   D    
C43   C44   A    
C67   O29   D    
C39   O13   A    
C29   C30   A    
C47   C48   A    
C7    C13   A    
C45   H26   S    
C35   O3    A    
C24   C66   S    
C17   C18   A    
O21   Zn2   S    
C42   C48   A    
C11   C39   S    
C33   O2    A    
C46   H9    S    
C70   O32   D    
C42   C50   S    
C59   C72   S    
C48   C49   S    
C49   H30   S    
C2    C45   A    
C69   H29   S    
C15   H21   S    
C58   C59   S    
C51   C59   S    
C42   C43   A    
O9    Zn5   S    
C40   O14   A    
C66   O28   D    
C67   H27   S    
C39   O11   A    
C71   O33   D    
C52   C53   A    
C25   C30   A    
O18   Zn1   S    
C54   C55   A    
O19   Zn2   S    
O17   Zn6   S    
C29   C41   S    
C41   O17   A    
O5    Zn3   S    
C4    C5    A    
O14   Zn5   S    
C65   H23   S    
C66   H24   S    
O6    Zn4   S    
C38   O9    A    
C34   O22   A    
C37   O8    A    
C6    C62   A    
C55   C57   A    
C2    C3    A    
C25   C26   A    
C51   C52   A    
O12   Zn2   S    
C20   C37   S    
C35   O4    A    
C30   C31   S    
O11   Zn5   S    
C57   C58   S    
C23   O20   A    
C14   H1    S    
C27   H25   S    
C7    C15   S    
O3    Zn3   S    
C64   O26   D    
C68   H28   S    
O22   Zn1   S    
C22   C24   S    
O1    Zn1   S    
C61   C62   A    
C22   H5    S    
C12   O19   A    
C70   H32   S    
C31   H7    S    
C54   H33   S    
C20   C21   A    
C1    O12   A    
C49   C50   S    
C17   C34   S    
C27   C28   A    
C69   O31   D    
C14   C15   S    
C60   H36   S    
C14   H19   S    
C5    H16   S    
C13   C14   S    
O23   Zn2   S    
C2    C62   A    
