data_mof_unit_8004.cif
_audit_creation_date              2012-12-10T16:50:09-0500
_audit_creation_method            fapswitch 2.2
_symmetry_space_group_name_H-M    P1
_symmetry_Int_Tables_number       1
_space_group_crystal_system       triclinic
_cell_length_a                    23.442394
_cell_length_b                    8.842789
_cell_length_c                    7.59832
_cell_angle_alpha                 101.477323
_cell_angle_beta                  94.970456
_cell_angle_gamma                 91.05036
_cell_volume                      1536.78022525

loop_
_atom_site_label
_atom_site_type_symbol
_atom_type_description
_atom_site_fract_x
_atom_site_fract_y
_atom_site_fract_z
_atom_type_partial_charge
C1    C     C_R   0.498889 0.201925 0.455746 0.770057
C2    C     C_R   0.503209 0.798405 0.544643 0.759832
C3    C     C_R   0.240917 0.620129 0.397258 -0.207134
C4    C     C_R   0.751787 0.430046 0.333417 -0.280828
C5    C     C_R   0.300004 0.625462 0.438369 0.417647
C6    C     C_R   0.696720 0.398089 0.374683 0.399149
C7    C     C_R   0.327941 0.495733 0.481083 -0.210596
C8    C     C_R   0.670736 0.509936 0.495795 -0.199181
C9    C     C_R   0.295320 0.357921 0.461855 -0.395546
C10   C     C_R   0.705403 0.619945 0.618965 -0.417778
C11   C     C_R   0.235401 0.358932 0.449057 0.524942
C12   C     C_R   0.765075 0.620398 0.613318 0.512045
C13   C     C_R   0.207520 0.491916 0.413933 0.134666
C14   C     C_R   0.788924 0.531562 0.461129 0.138097
C15   C     C_2   0.497314 0.035807 0.430746 0.127699
C16   C     C_2   0.507704 0.965029 0.570830 0.143666
C17   C     C_R   0.391197 0.494848 0.497622 0.798895
C18   C     C_R   0.608500 0.502395 0.499312 0.818886
C19   C     C_R   0.883205 0.664914 0.491473 0.617555
C20   C     C_R   0.111460 0.388171 0.295424 0.612745
C21   C     C_R   0.875981 0.392587 0.383877 0.530678
C22   C     C_R   0.122690 0.625556 0.511503 0.540801
C23   C     C_R   0.933451 0.391544 0.347890 -0.058437
C24   C     C_R   0.063332 0.641142 0.504004 -0.049850
C25   C     C_R   0.968168 0.523919 0.417331 -0.085901
C26   C     C_R   0.027747 0.517723 0.407459 -0.086160
C27   C     C_R   0.943430 0.661001 0.500391 -0.129255
C28   C     C_R   0.051673 0.386739 0.305378 -0.131143
C29   C     C_R   0.956878 0.260316 0.247905 -0.280539
C30   C     C_R   0.038974 0.774285 0.597115 -0.276866
C31   C     C_R   0.015441 0.257912 0.221431 0.490765
C32   C     C_R   0.979307 0.788793 0.588419 0.471070
Cu1   Cu    Cu3+1 0.506340 0.517380 0.684380 1.003829
Cu2   Cu    Cu3+1 0.493660 0.482620 0.315620 1.027637
H1    H     H_    0.929340 0.161254 0.184642 0.200902
H2    H     H_    0.066048 0.867641 0.677617 0.198616
H3    H     H_    0.220552 0.721144 0.363992 0.202341
H4    H     H_    0.767814 0.355749 0.218913 0.204597
H5    H     H_    0.316059 0.249979 0.461558 0.170805
H6    H     H_    0.686773 0.698473 0.725125 0.169796
N1    N     N_R   0.850359 0.529950 0.445565 -0.453183
N2    N     N_R   0.145940 0.502105 0.405196 -0.457885
N3    N     N_2   0.484110 0.456420 0.038520 0.109286
N4    N     N_2   0.515890 0.543580 0.961480 0.100515
O1    O     O_R   0.504120 0.286130 0.619770 -0.520049
O2    O     O_R   0.495880 0.713870 0.380230 -0.511448
O3    O     O_R   0.493410 0.256770 0.308360 -0.572404
O4    O     O_R   0.506590 0.743230 0.691640 -0.592109
O5    O     O_R   0.423230 0.514630 0.655730 -0.557880
O6    O     O_R   0.576770 0.485370 0.344270 -0.549837
O7    O     O_R   0.412530 0.485280 0.344320 -0.635024
O8    O     O_R   0.587470 0.514720 0.655680 -0.654859
O9    O     O_2   0.857942 0.802241 0.522999 -0.456655
O10   O     O_2   0.135073 0.276777 0.178907 -0.472202
O11   O     O_2   0.846913 0.256074 0.362248 -0.559743
O12   O     O_2   0.156887 0.731586 0.627487 -0.572795
O13   O     O_3   0.036634 0.133980 0.106691 -0.533458
C33   C     C_3   0.034510 0.001023 0.182643 -0.218644
H7    H     H_    0.989954 0.952999 0.172335 0.140706
H8    H     H_    0.053676 0.023979 0.325056 0.130404
H9    H     H_    0.060039 0.911224 0.104771 0.202497
O14   O     O_3   0.956362 0.916624 0.691052 -0.537419
C34   C     C_3   0.965868 0.046810 0.614856 -0.174015
H10   H     H_    0.948340 0.026018 0.470935 0.155114
H11   H     H_    0.012067 0.082072 0.629340 0.125917
H12   H     H_    0.942898 0.144875 0.688400 0.202911
O15   O     O_3   0.329339 0.761728 0.439939 -0.601303
C35   C     C_3   0.347148 0.829303 0.620456 0.027887
H13   H     H_    0.390903 0.793021 0.654233 0.170234
H14   H     H_    0.317748 0.800384 0.718361 0.157303
C36   C     C_3   0.348851 0.001794 0.643145 -0.821874
H15   H     H_    0.305174 0.041447 0.612123 0.270828
H16   H     H_    0.364083 0.051509 0.785253 0.235164
H17   H     H_    0.378721 0.040196 0.554210 0.222699
O16   O     O_3   0.679341 0.244563 0.355105 -0.588093
C37   C     C_3   0.701782 0.195242 0.514150 0.088935
H18   H     H_    0.680109 0.252983 0.632868 0.118366
H19   H     H_    0.748775 0.221502 0.543652 0.193215
C38   C     C_3   0.693363 0.022511 0.495642 -0.795977
H20   H     H_    0.717119 0.961938 0.383916 0.283533
H21   H     H_    0.710584 0.988128 0.622212 0.224845
H22   H     H_    0.647089 0.989894 0.472235 0.220481
O17   O     O_3   0.205285 0.227391 0.465618 -0.546987
C39   C     C_3   0.184456 0.251313 0.637804 0.029322
H23   H     H_    0.146582 0.325180 0.642035 0.156235
H24   H     H_    0.217598 0.305844 0.747059 0.149587
C40   C     C_3   0.165912 0.096638 0.676288 -0.677545
H25   H     H_    0.203530 0.022897 0.683071 0.265561
H26   H     H_    0.146718 0.114080 0.807095 0.246279
H27   H     H_    0.133660 0.037693 0.567594 0.240077
O18   O     O_3   0.799048 0.708136 0.756283 -0.530742
C41   C     C_3   0.818869 0.611191 0.873737 0.047110
H28   H     H_    0.840058 0.508303 0.801057 0.139525
H29   H     H_    0.782677 0.571943 0.941490 0.134878
C42   C     C_3   0.862869 0.700883 0.017253 -0.705412
H30   H     H_    0.842588 0.799274 0.100819 0.265255
H31   H     H_    0.880537 0.623612 0.105344 0.183064
H32   H     H_    0.898583 0.745595 0.952664 0.264380
O19   O     O_3   0.486816 0.952911 0.255831 -0.543800
C43   C     C_3   0.427020 0.939095 0.213250 0.103339
H33   H     H_    0.407189 0.053919 0.226039 0.119035
H34   H     H_    0.406959 0.871032 0.300523 0.193267
C44   C     C_3   0.414540 0.853391 0.021577 -0.694893
H35   H     H_    0.432309 0.737004 0.004380 0.264275
H36   H     H_    0.367495 0.841292 0.990155 0.165133
H37   H     H_    0.434387 0.918768 0.930930 0.275890
O20   O     O_3   0.518220 0.047902 0.746570 -0.540731
C45   C     C_3   0.578072 0.066714 0.788927 0.058457
H38   H     H_    0.596873 0.138224 0.702401 0.136104
H39   H     H_    0.599081 0.953496 0.771500 0.112617
C46   C     C_3   0.590861 0.150173 0.983594 -0.620105
H40   H     H_    0.569242 0.088459 0.074350 0.280413
H41   H     H_    0.637814 0.155085 0.020003 0.203821
H42   H     H_    0.575635 0.269691 0.000757 0.247775
O21   O     O_3   0.444645 0.366543 0.922618 -0.457234
C47   C     C_3   0.391777 0.385358 0.997224 0.225494
H43   H     H_    0.386469 0.508103 0.062313 0.167567
H44   H     H_    0.387974 0.301284 0.086970 0.163155
C48   C     C_3   0.342122 0.351851 0.854258 -0.928225
H45   H     H_    0.309218 0.275791 0.893023 0.223153
H46   H     H_    0.321601 0.460236 0.834145 0.235646
H47   H     H_    0.358914 0.295328 0.728725 0.285963
O22   O     O_3   0.548551 0.650777 0.080394 -0.443145
C49   C     C_3   0.600297 0.670666 0.007438 0.211625
H48   H     H_    0.593260 0.729602 0.892575 0.176190
H49   H     H_    0.621317 0.558146 0.971139 0.136573
C50   C     C_3   0.640771 0.775107 0.145994 -0.892035
H50   H     H_    0.647191 0.727355 0.270285 0.259787
H51   H     H_    0.682770 0.785622 0.091228 0.216478
H52   H     H_    0.622415 0.890866 0.177174 0.275337

loop_
_geom_bond_atom_site_label_1
_geom_bond_atom_site_label_2
_ccdc_geom_bond_type
C40   H25   S    
C34   H11   S    
Cu1   O1    S    
C45   H38   S    
C12   O18   S    
C42   H30   S    
C39   C40   S    
C5    O15   S    
C17   O7    A    
C42   H32   S    
C18   O8    A    
O22   C49   S    
C2    O2    A    
Cu1   O8    S    
Cu2   O7    S    
C23   C29   A    
C24   C26   A    
C33   H8    S    
O21   C47   S    
C9    H5    S    
C47   H43   S    
C10   H6    S    
C41   H28   S    
C16   O20   S    
N3    O21   S    
C44   H36   S    
O19   C43   S    
C47   H44   S    
C35   H13   S    
C7    C17   S    
O20   C45   S    
C37   C38   S    
C1    C15   S    
C44   H37   S    
C19   C27   A    
C3    C13   A    
C19   O9    S    
C33   H9    S    
C23   C25   A    
C34   H12   S    
Cu1   O4    S    
C43   H34   S    
C13   N2    S    
C48   H46   S    
Cu2   O6    S    
C15   C16   D    
O15   C35   S    
C47   C48   S    
C6    O16   S    
C37   H18   S    
C20   O10   S    
C17   O5    A    
O18   C41   S    
C5    C7    A    
C1    O3    A    
C6    C8    A    
C20   C28   A    
C11   O17   S    
C33   H7    S    
C43   C44   S    
C8    C18   S    
C38   H20   S    
O16   C37   S    
C50   H51   S    
O14   C34   S    
C36   H17   S    
O17   C39   S    
C41   H29   S    
Cu1   Cu2   S    
C46   H41   S    
C39   H23   S    
C9    C11   A    
C10   C12   A    
C49   C50   S    
Cu2   O2    S    
C4    C6    A    
C12   C14   A    
C21   C23   A    
N3    N4    D    
C21   N1    A    
C50   H50   S    
C2    C16   S    
C18   O6    A    
C49   H49   S    
C48   H47   S    
C7    C9    A    
C21   O11   S    
C46   H40   S    
C27   C32   A    
Cu1   N4    S    
C26   C28   A    
C28   C31   A    
Cu2   N3    S    
C37   H19   S    
C3    C5    A    
C38   H22   S    
C20   N2    A    
C48   H45   S    
C42   H31   S    
C25   C27   A    
C29   H1    S    
N4    O22   S    
C38   H21   S    
C22   O12   S    
C45   C46   S    
C30   H2    S    
C2    O4    A    
C31   O13   S    
C40   H26   S    
C25   C26   A    
C50   H52   S    
C32   O14   S    
C36   H15   S    
C29   C31   A    
C30   C32   A    
C11   C13   A    
C1    O1    A    
O13   C33   S    
C22   N2    A    
C14   N1    S    
C35   C36   S    
C43   H33   S    
C45   H39   S    
C46   H42   S    
C22   C24   A    
C41   C42   S    
C4    C14   A    
C24   C30   A    
C34   H10   S    
C3    H3    S    
C8    C10   A    
C15   O19   S    
C40   H27   S    
C36   H16   S    
C44   H35   S    
C35   H14   S    
C39   H24   S    
Cu2   O3    S    
C4    H4    S    
Cu1   O5    S    
C19   N1    A    
C49   H48   S    
