data_mof_unit_55733.cif
_audit_creation_date              2012-12-10T17:59:45-0500
_audit_creation_method            fapswitch 2.2
_symmetry_space_group_name_H-M    P1
_symmetry_Int_Tables_number       1
_space_group_crystal_system       triclinic
_cell_length_a                    10.816317
_cell_length_b                    9.665378
_cell_length_c                    15.898108
_cell_angle_alpha                 89.810732
_cell_angle_beta                  96.95354
_cell_angle_gamma                 90.057178
_cell_volume                      1649.81424705

loop_
_atom_site_label
_atom_site_type_symbol
_atom_type_description
_atom_site_fract_x
_atom_site_fract_y
_atom_site_fract_z
_atom_type_partial_charge
C1    C     C_R   0.262956 0.500077 0.502575 0.899150
C2    C     C_3   0.631326 0.511017 0.961833 -0.136663
C3    C     C_3   0.625179 0.523249 0.060433 -0.472566
C4    C     C_1   0.494226 0.500855 0.823544 0.108504
C5    C     C_1   0.496466 0.499656 0.175644 0.055159
C6    C     C_1   0.500501 0.500399 0.251288 -0.086354
C7    C     C_R   0.066825 0.376895 0.516850 -0.094819
C8    C     C_R   0.062725 0.625027 0.492018 -0.103956
C9    C     C_R   0.938695 0.376546 0.515089 -0.135552
C10   C     C_R   0.934694 0.624993 0.491400 -0.157724
C11   C     C_R   0.872016 0.500503 0.502327 -0.037339
C12   C     C_R   0.129184 0.500685 0.504035 -0.071118
C13   C     C_R   0.414992 0.076121 0.442482 0.368527
C14   C     C_R   0.416889 0.924273 0.441007 0.363103
C15   C     C_R   0.503204 0.500188 0.340866 0.903722
C16   C     C_R   0.577309 0.925693 0.558455 -0.019341
C17   C     C_R   0.583828 0.073497 0.554411 0.012002
C18   C     C_R   0.737682 0.500101 0.500969 0.740945
C19   C     C_R   0.500825 0.499858 0.659427 0.776293
C20   C     C_3   0.407921 0.620345 0.042798 -0.310458
C21   C     C_3   0.447161 0.353715 0.044695 -0.295907
C22   C     C_3   0.433896 0.360890 0.945205 0.184009
C23   C     C_3   0.419210 0.630969 0.945689 0.224051
C24   C     C_1   0.497944 0.499868 0.748489 -0.005380
C25   C     C_3   0.490615 0.498231 0.082886 0.070970
C26   C     C_3   0.491427 0.501160 0.915695 -0.078412
Cu1   Cu    Cu3+1 0.500020 0.640660 0.500000 1.031774
Cu2   Cu    Cu3+1 0.500020 0.359340 0.500000 1.024781
H1    H     H_    0.526253 0.281959 0.063975 0.148784
H2    H     H_    0.448276 0.717730 0.072187 0.176039
H3    H     H_    0.495027 0.277245 0.926011 0.117589
H4    H     H_    0.481908 0.720641 0.940007 0.112801
H5    H     H_    0.656055 0.627145 0.084691 0.161901
H6    H     H_    0.690765 0.451290 0.097719 0.243629
H7    H     H_    0.116808 0.280456 0.528440 0.203011
H8    H     H_    0.109188 0.722118 0.482448 0.203318
H9    H     H_    0.892275 0.279415 0.523980 0.196608
H10   H     H_    0.884993 0.722069 0.481574 0.172698
N1    N     N_R   0.500030 0.852070 0.500020 -0.289952
N2    N     N_R   0.500030 0.147930 0.500020 -0.287621
O1    O     O_R   0.319660 0.618740 0.500000 -0.528927
O2    O     O_R   0.319660 0.381260 0.500000 -0.524572
O3    O     O_R   0.500020 0.618840 0.379440 -0.512529
O4    O     O_R   0.500020 0.381160 0.379440 -0.514461
O5    O     O_R   0.680370 0.618830 0.500010 -0.624667
O6    O     O_R   0.680370 0.381170 0.500010 -0.615919
O7    O     O_R   0.500010 0.618730 0.620560 -0.578939
O8    O     O_R   0.500010 0.381270 0.620560 -0.613101
S1    S     S_3+6 0.282041 0.695511 0.879655 0.067896
O9    O     O_2   0.252226 0.835535 0.912787 -0.222678
O10   O     O_2   0.308778 0.712623 0.789636 -0.253374
O11   O     O_3   0.155974 0.594791 0.881097 -0.466063
H11   H     H_    0.088441 0.643639 0.845138 0.393713
S2    S     S_3+6 0.284602 0.305651 0.889246 0.039072
O12   O     O_2   0.260515 0.370714 0.802871 -0.233954
O13   O     O_2   0.290829 0.151517 0.878076 -0.240110
O14   O     O_3   0.163387 0.339527 0.942850 -0.506397
H12   H     H_    0.090786 0.294934 0.909670 0.402798
C27   C     C_2   0.649856 0.851524 0.629851 0.568165
H13   H     H_    0.700555 0.758314 0.620011 0.087366
O15   O     O_2   0.651871 0.894114 0.702254 -0.496647
C28   C     C_2   0.687420 0.146171 0.606428 0.468133
H14   H     H_    0.675649 0.246648 0.632964 0.108803
O16   O     O_2   0.790910 0.094146 0.618935 -0.555769
C29   C     C_2   0.275652 0.614757 0.064193 0.603153
H15   H     H_    0.212730 0.534464 0.038978 0.181348
O17   O     O_2   0.237703 0.702438 0.109866 -0.487644
C30   C     C_2   0.340939 0.281205 0.081398 0.528533
H16   H     H_    0.316325 0.176751 0.060790 0.151871
O18   O     O_2   0.284484 0.334132 0.134963 -0.520525
C31   C     C_2   0.699704 0.637563 0.932054 0.376632
H17   H     H_    0.713514 0.729386 0.971186 0.109873
O19   O     O_2   0.736404 0.640551 0.862304 -0.524329
C32   C     C_2   0.707798 0.385161 0.940400 0.432235
H18   H     H_    0.719306 0.364836 0.874662 0.099760
O20   O     O_2   0.756162 0.305516 0.994432 -0.524030
S3    S     S_3+6 0.293058 0.164809 0.370285 0.103293
O21   O     O_2   0.293324 0.108305 0.282495 -0.182979
O22   O     O_2   0.171779 0.129874 0.402608 -0.291808
O23   O     O_3   0.283373 0.335236 0.351362 -0.501983
H19   H     H_    0.202365 0.349674 0.316098 0.376411
S4    S     S_3+6 0.317124 0.835530 0.354169 0.100920
O24   O     O_2   0.188823 0.896332 0.342064 -0.204318
O25   O     O_2   0.378364 0.860934 0.275471 -0.248303
O26   O     O_3   0.282575 0.666585 0.352450 -0.522114
H20   H     H_    0.240494 0.647990 0.294691 0.379958

loop_
_geom_bond_atom_site_label_1
_geom_bond_atom_site_label_2
_ccdc_geom_bond_type
C11   C18   S    
C22   S2    S    
C20   H2    S    
S3    O21   D    
Cu2   O6    S    
C32   O20   D    
C15   O4    A    
C5    C6    T    
C4    C24   T    
C19   O7    A    
C23   S1    S    
C20   C25   S    
Cu2   N2    S    
C8    H8    S    
C23   C26   S    
S1    O9    D    
C13   N2    A    
C28   O16   D    
C14   N1    A    
Cu1   N1    S    
C30   H16   S    
C29   O17   D    
C2    C32   S    
Cu1   O5    S    
C6    C15   S    
C27   H13   S    
C21   C22   S    
C1    C12   S    
C18   O6    A    
C13   S3    S    
S3    O22   D    
C7    C12   A    
S2    O13   D    
C27   O15   D    
C22   H3    S    
C20   C29   S    
C3    C25   S    
C32   H18   S    
C31   O19   D    
C19   O8    A    
C16   C17   A    
C3    H6    S    
S1    O10   D    
O26   H20   S    
C21   H1    S    
Cu2   O4    S    
C17   N2    A    
C28   H14   S    
C17   C28   S    
Cu1   O1    S    
C20   C23   S    
C8    C12   A    
S1    O11   S    
C9    H9    S    
C2    C26   S    
C9    C11   A    
C5    C25   S    
C1    O1    A    
S4    O24   D    
S4    O25   D    
C21   C30   S    
C14   S4    S    
C2    C31   S    
C18   O5    A    
O11   H11   S    
S3    O23   S    
Cu1   O7    S    
C7    C9    A    
C21   C25   S    
S2    O12   D    
Cu2   O8    S    
C7    H7    S    
O23   H19   S    
C4    C26   S    
S4    O26   S    
C10   H10   S    
C23   H4    S    
C2    C3    S    
C15   O3    A    
C31   H17   S    
O14   H12   S    
Cu2   O2    S    
C19   C24   S    
C10   C11   A    
C16   N1    A    
Cu1   O3    S    
C1    O2    A    
C8    C10   A    
C29   H15   S    
C22   C26   S    
Cu1   Cu2   S    
C30   O18   D    
C3    H5    S    
C13   C14   A    
C16   C27   S    
S2    O14   S    
