data_mof_unit_35839.cif
_audit_creation_date              2012-12-10T21:13:52-0500
_audit_creation_method            fapswitch 2.2
_symmetry_space_group_name_H-M    P1
_symmetry_Int_Tables_number       1
_space_group_crystal_system       triclinic
_cell_length_a                    15.455963
_cell_length_b                    16.733159
_cell_length_c                    17.49218
_cell_angle_alpha                 89.231832
_cell_angle_beta                  89.651078
_cell_angle_gamma                 68.221913
_cell_volume                      4200.68653186

loop_
_atom_site_label
_atom_site_type_symbol
_atom_type_description
_atom_site_fract_x
_atom_site_fract_y
_atom_site_fract_z
_atom_type_partial_charge
C1    C     C_R   0.499267 0.499593 0.647163 0.882845
C2    C     C_R   0.455218 0.582723 0.765705 -0.279911
C3    C     C_R   0.487100 0.506007 0.270395 -0.136257
C4    C     C_R   0.487480 0.502242 0.729933 -0.141185
C5    C     C_R   0.512529 0.564849 0.226057 0.474670
C6    C     C_R   0.501484 0.426551 0.773195 0.465960
C7    C     C_R   0.496526 0.569363 0.147264 -0.268953
C8    C     C_R   0.485809 0.432958 0.851889 -0.269130
C9    C     C_R   0.452589 0.519061 0.114464 0.094124
C10   C     C_R   0.452768 0.513389 0.886096 0.092097
C11   C     C_1   0.444599 0.519457 0.034223 -0.040245
C12   C     C_R   0.499209 0.500818 0.352939 0.913540
C13   C     C_1   0.444718 0.517840 0.966367 -0.041444
C14   C     C_R   0.568362 0.143861 0.540227 -0.276354
C15   C     C_R   0.439247 0.853825 0.452701 -0.282527
C16   C     C_R   0.676394 0.446888 0.499947 0.915373
C17   C     C_R   0.323221 0.553171 0.500196 0.891138
C18   C     C_R   0.566463 0.228786 0.539889 0.001584
C19   C     C_R   0.439751 0.769369 0.454084 -0.013192
C20   C     C_R   0.434833 0.274607 0.458928 0.014599
C21   C     C_R   0.559738 0.727005 0.546483 0.035570
C22   C     C_R   0.434115 0.190629 0.458010 -0.296941
C23   C     C_R   0.085272 0.426017 0.409534 -0.275883
C24   C     C_R   0.560586 0.810915 0.547514 -0.303294
C25   C     C_R   0.501316 0.123977 0.499179 0.166213
C26   C     C_R   0.500283 0.875497 0.499830 0.169127
C27   C     C_1   0.501248 0.036162 0.499357 -0.056080
C28   C     C_1   0.500859 0.963138 0.499519 -0.057460
C29   C     C_R   0.776837 0.415049 0.488783 -0.157671
C30   C     C_R   0.221324 0.586881 0.494564 -0.167171
C31   C     C_R   0.913172 0.319774 0.423259 -0.147942
C32   C     C_R   0.072450 0.706321 0.489905 -0.152117
C33   C     C_R   0.822953 0.338295 0.450140 -0.305330
C34   C     C_R   0.887622 0.614605 0.475212 -0.285694
C35   C     C_R   0.169430 0.675677 0.495044 -0.307128
C36   C     C_R   0.822914 0.470714 0.504448 0.452487
C37   C     C_R   0.175334 0.529279 0.486173 0.417008
C38   C     C_R   0.905971 0.460748 0.465548 -0.066785
C39   C     C_R   0.080323 0.560770 0.467465 -0.072639
C40   C     C_R   0.955367 0.380969 0.429303 0.012216
C41   C     C_R   0.026494 0.648941 0.478265 0.016746
C42   C     C_R   0.942496 0.526618 0.463891 0.009666
C43   C     C_R   0.036802 0.503907 0.447160 0.005594
C44   C     C_3   0.184700 0.259423 0.349736 0.072119
C45   C     C_R   0.045065 0.363772 0.399114 0.468189
C46   C     C_3   0.209140 0.287910 0.271479 -0.339213
C47   C     C_3   0.314146 0.261102 0.261194 -0.978388
C48   C     C_3   0.787127 0.798358 0.463516 0.086074
C49   C     C_3   0.786341 0.799041 0.375737 -0.383280
C50   C     C_3   0.687909 0.845356 0.345076 -0.941797
C51   C     C_3   0.203675 0.425654 0.578556 0.101903
C52   C     C_3   0.243709 0.328653 0.593560 -0.325911
C53   C     C_3   0.220528 0.306740 0.674146 -0.995876
C54   C     C_3   0.818811 0.505176 0.631418 0.050030
C55   C     C_3   0.742058 0.490412 0.678537 -0.333043
C56   C     C_R   0.928542 0.677501 0.478981 0.465303
C57   C     C_3   0.771360 0.467921 0.761620 -0.938832
C58   C     C_3   0.515603 0.699994 0.247820 0.093730
C59   C     C_3   0.578642 0.736048 0.203165 -0.340395
C60   C     C_3   0.531709 0.833219 0.191438 -0.984769
C61   C     C_3   0.474365 0.306450 0.737102 0.084543
C62   C     C_3   0.524998 0.208984 0.744001 -0.321980
C63   C     C_3   0.459488 0.161504 0.729336 -0.969041
C64   C     C_R   0.425879 0.462177 0.158397 -0.162371
C65   C     C_R   0.437557 0.588223 0.843583 -0.165932
C66   C     C_R   0.443397 0.455371 0.236256 -0.274215
H1    H     H_    0.621555 0.094250 0.572625 0.143032
H2    H     H_    0.788311 0.294110 0.438574 0.183580
H3    H     H_    0.947846 0.259112 0.394772 0.196227
H4    H     H_    0.033929 0.774836 0.495050 0.193142
H5    H     H_    0.152665 0.417000 0.385512 0.182512
H6    H     H_    0.813218 0.634001 0.477313 0.201478
H7    H     H_    0.393193 0.422117 0.132319 0.145089
H8    H     H_    0.413698 0.650491 0.870829 0.145587
H9    H     H_    0.421853 0.411138 0.269913 0.175343
H10   H     H_    0.442737 0.641638 0.733411 0.179785
H11   H     H_    0.520078 0.610544 0.111390 0.142681
H12   H     H_    0.391391 0.901802 0.415206 0.138812
H13   H     H_    0.501147 0.374976 0.886346 0.149455
H14   H     H_    0.212497 0.187935 0.351245 0.160411
H15   H     H_    0.219930 0.277726 0.397947 0.128386
H16   H     H_    0.181797 0.258079 0.225867 0.231485
H17   H     H_    0.175742 0.358825 0.264404 0.216880
H18   H     H_    0.342015 0.294581 0.303029 0.257412
H19   H     H_    0.329327 0.279141 0.202739 0.266380
H20   H     H_    0.349550 0.190397 0.268987 0.267396
H21   H     H_    0.755674 0.866241 0.482458 0.174381
H22   H     H_    0.741566 0.767071 0.488482 0.139609
H23   H     H_    0.618274 0.243567 0.571797 0.140224
H24   H     H_    0.831937 0.832388 0.354006 0.232678
H25   H     H_    0.813410 0.732219 0.353923 0.216481
H26   H     H_    0.642029 0.810948 0.363619 0.276250
H27   H     H_    0.689956 0.847096 0.281675 0.270628
H28   H     H_    0.658563 0.912584 0.365887 0.268918
H29   H     H_    0.127375 0.449768 0.590669 0.137440
H30   H     H_    0.237434 0.456985 0.618069 0.130436
H31   H     H_    0.214607 0.296245 0.551395 0.223945
H32   H     H_    0.320534 0.304096 0.586711 0.225927
H33   H     H_    0.251804 0.336076 0.717271 0.259570
H34   H     H_    0.392083 0.753388 0.417941 0.114915
H35   H     H_    0.249100 0.235845 0.682714 0.274516
H36   H     H_    0.143850 0.330628 0.682594 0.267340
H37   H     H_    0.837390 0.555971 0.659170 0.170619
H38   H     H_    0.883343 0.445604 0.632089 0.123908
H39   H     H_    0.677913 0.549563 0.676844 0.230910
H40   H     H_    0.725819 0.436854 0.653771 0.207220
H41   H     H_    0.834617 0.408111 0.764915 0.263561
H42   H     H_    0.714194 0.457422 0.793757 0.276723
H43   H     H_    0.785935 0.521316 0.788604 0.259582
H44   H     H_    0.502535 0.730045 0.304972 0.166595
H45   H     H_    0.382596 0.325565 0.427268 0.156559
H46   H     H_    0.446247 0.719535 0.219184 0.111281
H47   H     H_    0.644864 0.721495 0.234984 0.238103
H48   H     H_    0.595645 0.704952 0.146467 0.217318
H49   H     H_    0.467115 0.848737 0.157185 0.267089
H50   H     H_    0.579756 0.857809 0.160327 0.269222
H51   H     H_    0.513927 0.865956 0.247433 0.270505
H52   H     H_    0.438229 0.322617 0.680999 0.175143
H53   H     H_    0.420313 0.326938 0.783004 0.110591
H54   H     H_    0.583372 0.187189 0.702365 0.226779
H55   H     H_    0.554786 0.192454 0.802395 0.217459
H56   H     H_    0.606885 0.677682 0.583159 0.151415
H57   H     H_    0.401387 0.181171 0.771336 0.266510
H58   H     H_    0.498443 0.091083 0.735197 0.266931
H59   H     H_    0.430658 0.175555 0.670539 0.277757
H60   H     H_    0.381447 0.177820 0.425470 0.138895
H61   H     H_    0.608368 0.825076 0.585070 0.139718
H62   H     H_    0.203447 0.721227 0.502051 0.181782
N1    N     N_R   0.499980 0.292780 0.499970 -0.091437
N2    N     N_R   0.500020 0.707220 0.500030 -0.083654
O1    O     O_R   0.500000 0.433430 0.610870 -0.590651
O2    O     O_3   0.878582 0.764544 0.493673 -0.664276
O3    O     O_3   0.221473 0.442234 0.501731 -0.655273
O4    O     O_3   0.785177 0.535583 0.557265 -0.664773
O5    O     O_3   0.561839 0.610031 0.258852 -0.634037
O6    O     O_3   0.540841 0.346061 0.740673 -0.640531
O7    O     O_R   0.500000 0.566570 0.389130 -0.586550
O8    O     O_R   0.500010 0.566520 0.610900 -0.637728
O9    O     O_R   0.499990 0.433480 0.389100 -0.628741
O10   O     O_R   0.632240 0.395450 0.499980 -0.629541
O11   O     O_R   0.367760 0.604550 0.500020 -0.630389
O12   O     O_R   0.632250 0.528530 0.500000 -0.568407
O13   O     O_R   0.367750 0.471470 0.500000 -0.575970
O14   O     O_3   0.086821 0.287595 0.358184 -0.661710
Zn1   Zn    Zn3+2 0.500000 0.411140 0.499980 0.951015
Zn2   Zn    Zn3+2 0.500000 0.588860 0.500020 0.956071

loop_
_geom_bond_atom_site_label_1
_geom_bond_atom_site_label_2
_ccdc_geom_bond_type
C34   C56   A    
C23   C45   A    
N2    Zn2   S    
C9    C64   A    
C11   C13   T    
O12   Zn2   S    
C16   O12   A    
C34   C42   A    
C20   N1    A    
C2    C65   A    
C63   H58   S    
C18   N1    A    
C39   C41   A    
C53   H33   S    
C15   C19   A    
C29   C36   A    
C30   C35   A    
C55   H39   S    
C58   H46   S    
C47   H19   S    
C54   H38   S    
C24   C26   A    
C38   C42   A    
C22   H60   S    
C15   H12   S    
C61   H53   S    
C14   H1    S    
C54   O4    S    
C29   C33   A    
C52   H31   S    
C23   C43   A    
C31   C40   A    
C17   O11   A    
C46   C47   S    
C21   H56   S    
C14   C18   A    
C6    O6    S    
C3    C12   S    
C46   H16   S    
C57   H43   S    
C53   H35   S    
C22   C25   A    
C45   O14   S    
C64   H7    S    
C31   C33   A    
C49   H24   S    
N1    Zn1   S    
C59   H47   S    
C51   H30   S    
C7    H11   S    
C19   N2    A    
C59   C60   S    
C17   C30   S    
C16   O10   A    
C49   H25   S    
C44   C46   S    
C40   C45   A    
C48   H21   S    
C55   H40   S    
C51   C52   S    
C32   C35   A    
C23   H5    S    
O7    Zn2   S    
C44   H14   S    
C4    C6    A    
C44   H15   S    
C5    C7    A    
C5    O5    S    
C50   H28   S    
C15   C26   A    
C32   H4    S    
C1    O1    A    
C16   C29   S    
C65   H8    S    
C30   C37   A    
C64   C66   A    
C2    C4    A    
C47   H20   S    
C41   C56   A    
C62   C63   S    
C8    H13   S    
C20   H45   S    
C54   H37   S    
C63   H57   S    
C53   H36   S    
C44   O14   S    
C48   H22   S    
C12   O9    A    
C60   H51   S    
C56   O2    S    
C47   H18   S    
C9    C11   S    
C63   H59   S    
O11   Zn2   S    
C35   H62   S    
C6    C8    A    
C50   H26   S    
C48   C49   S    
C57   H41   S    
C20   C22   A    
C55   C57   S    
C37   O3    S    
C60   H50   S    
C3    C66   A    
C42   C43   A    
C32   C41   A    
C34   H6    S    
C2    H10   S    
C52   C53   S    
C10   C65   A    
O13   Zn1   S    
C54   C55   S    
O9    Zn1   S    
C61   H52   S    
C58   H44   S    
C18   H23   S    
C62   H54   S    
C3    C5    A    
C10   C13   S    
C36   O4    S    
O10   Zn1   S    
C39   C43   A    
C19   H34   S    
C50   H27   S    
C58   O5    S    
C25   C27   S    
C26   C28   S    
C17   O13   A    
C1    C4    S    
C36   C38   A    
C58   C59   S    
C37   C39   A    
C38   C40   A    
C51   O3    S    
O8    Zn2   S    
C59   H48   S    
C66   H9    S    
C52   H32   S    
C24   H61   S    
O1    Zn1   S    
C14   C25   A    
C61   C62   S    
C21   N2    A    
C46   H17   S    
C7    C9    A    
C31   H3    S    
C57   H42   S    
C33   H2    S    
C8    C10   A    
C49   C50   S    
C21   C24   A    
C27   C28   T    
C12   O7    A    
C48   O2    S    
C60   H49   S    
C62   H55   S    
C1    O8    A    
C61   O6    S    
C51   H29   S    
