data_mof_unit_15630.cif
_audit_creation_date              2012-12-10T16:55:44-0500
_audit_creation_method            fapswitch 2.2
_symmetry_space_group_name_H-M    P1
_symmetry_Int_Tables_number       1
_space_group_crystal_system       triclinic
_cell_length_a                    7.830014
_cell_length_b                    8.607715
_cell_length_c                    10.490669
_cell_angle_alpha                 91.936538
_cell_angle_beta                  85.333866
_cell_angle_gamma                 93.369003
_cell_volume                      703.195185847

loop_
_atom_site_label
_atom_site_type_symbol
_atom_type_description
_atom_site_fract_x
_atom_site_fract_y
_atom_site_fract_z
_atom_type_partial_charge
C1    C     C_R   0.544926 0.793983 0.496878 0.864839
C2    C     C_R   0.455074 0.206017 0.503122 0.864839
C3    C     C_R   0.501319 0.499787 0.741990 0.914857
C4    C     C_R   0.498681 0.500212 0.258010 0.914857
C5    C     C_3   0.452365 0.637024 0.964442 -0.173999
C6    C     C_3   0.547635 0.362976 0.035558 -0.174001
C7    C     C_3   0.610047 0.616087 0.040051 -0.334012
C8    C     C_3   0.389952 0.383912 0.959948 -0.334011
C9    C     C_3   0.496930 0.500543 0.123555 -0.233883
C10   C     C_3   0.503070 0.499457 0.876445 -0.233882
C11   C     C_3   0.340858 0.523314 0.049116 0.742518
C12   C     C_3   0.659142 0.476686 0.950884 0.742518
C13   C     C_2   0.568961 0.956352 0.494467 0.293005
C14   C     C_2   0.431038 0.043648 0.505533 0.293005
H1    H     H_    0.698872 0.709768 0.076117 0.213662
H2    H     H_    0.301128 0.290231 0.923883 0.213662
N1    N     N_2   0.950320 0.457950 0.465730 -0.174618
N2    N     N_2   0.049680 0.542050 0.534270 -0.174619
O1    O     O_R   0.389250 0.738570 0.508410 -0.587611
O2    O     O_R   0.610750 0.261430 0.491590 -0.587611
O3    O     O_R   0.678390 0.711620 0.486450 -0.605405
O4    O     O_R   0.321610 0.288380 0.513550 -0.605405
O5    O     O_R   0.355460 0.513510 0.697030 -0.618066
O6    O     O_R   0.644540 0.486490 0.302970 -0.618066
O7    O     O_R   0.644600 0.486560 0.675070 -0.612691
O8    O     O_R   0.355400 0.513440 0.324930 -0.612691
Zn1   Zn    Zn3+2 0.306940 0.517990 0.514670 1.031947
Zn2   Zn    Zn3+2 0.693060 0.482010 0.485330 1.031947
C15   C     C_1   0.399335 0.786418 0.921970 0.294474
N3    N     N_1   0.357646 0.904094 0.888304 -0.177042
C16   C     C_1   0.600668 0.213584 0.078030 0.294476
N4    N     N_1   0.642363 0.095910 0.111696 -0.177039
F1    F     F_    0.177403 0.548989 0.103021 -0.624159
F2    F     F_    0.822596 0.451011 0.896979 -0.624159
C17   C     C_1   0.026377 0.351434 0.380324 0.567207
N5    N     N_1   0.087872 0.261832 0.308461 -0.153789
C18   C     C_1   0.973623 0.648566 0.619676 0.567207
N6    N     N_1   0.912128 0.738168 0.691539 -0.153789
F3    F     F_    0.734739 0.015650 0.480213 -0.627238
F4    F     F_    0.265261 0.984350 0.519787 -0.627238

loop_
_geom_bond_atom_site_label_1
_geom_bond_atom_site_label_2
_ccdc_geom_bond_type
C2    O4    A    
C4    O8    A    
C1    O3    A    
C15   N3    T    
O5    Zn1   S    
O1    Zn1   S    
C3    O5    A    
C16   N4    T    
C11   F1    S    
N1    Zn2   S    
C6    C9    S    
C7    H1    S    
N1    N2    D    
C5    C10   S    
C8    H2    S    
C3    C10   S    
C13   C14   D    
O7    Zn2   S    
C9    C11   S    
O8    Zn1   S    
C18   N6    T    
C10   C12   S    
C8    C11   S    
C2    C14   S    
N1    C17   S    
N2    C18   S    
C6    C16   S    
C5    C15   S    
O4    Zn1   S    
C5    C11   S    
C6    C12   S    
C7    C12   S    
C4    O6    A    
C13   F3    S    
C1    C13   S    
C14   F4    S    
C7    C9    S    
C3    O7    A    
C8    C10   S    
C5    C7    S    
C2    O2    A    
C6    C8    S    
O2    Zn2   S    
C4    C9    S    
C1    O1    A    
C12   F2    S    
O3    Zn2   S    
N2    Zn1   S    
O6    Zn2   S    
C17   N5    T    
