data_mof_unit_8703.cif
_audit_creation_date              2013-03-05T16:10:05-0500
_audit_creation_method            fapswitch 2.2
_symmetry_space_group_name_H-M    P1
_symmetry_Int_Tables_number       1
_space_group_crystal_system       triclinic
_cell_length_a                    8.30722
_cell_length_b                    15.002468
_cell_length_c                    19.069935
_cell_angle_alpha                 101.436477
_cell_angle_beta                  91.86916
_cell_angle_gamma                 98.925826
_cell_volume                      2296.32945618

loop_
_atom_site_label
_atom_site_type_symbol
_atom_site_description
_atom_site_fract_x
_atom_site_fract_y
_atom_site_fract_z
_atom_type_partial_charge
P1    P     P_3+3 0.041310 0.408750 0.334260 0.505844
O1    O     O_2   0.873950 0.434950 0.324050 -0.311848
O2    O     O_3   0.122400 0.443310 0.412980 -0.376692
O3    O     O_3   0.662890 0.605900 0.373340 -0.374649
O4    O     O_2   0.716545 0.530425 0.246396 -0.411347
O5    O     O_3   0.958858 0.291630 0.328629 -0.537977
O6    O     O_3   0.720622 0.709711 0.265644 -0.512315
H1    H     H_    0.741022 0.786603 0.369406 0.155869
C1    C     C_3   0.722118 0.872397 0.292456 -0.739759
H2    H     H_    0.854630 0.884942 0.284338 0.301138
H3    H     H_    0.652343 0.870557 0.241372 0.248047
P2    P     P_3+3 0.676060 0.715830 0.563200 0.465900
P3    P     P_3+3 0.130985 0.774109 0.414082 0.443480
O7    O     O_2   0.851830 0.727540 0.542170 -0.357519
O8    O     O_3   0.085020 0.656200 0.410840 -0.388591
O9    O     O_2   0.014663 0.820035 0.465822 -0.374912
O10   O     O_3   0.733047 0.736652 0.655413 -0.573404
O11   O     O_3   0.067105 0.794090 0.331106 -0.516693
C2    C     C_3   0.136420 0.737750 0.276764 0.437036
H4    H     H_    0.080142 0.664395 0.272150 0.129977
H5    H     H_    0.270636 0.746259 0.287294 0.011934
C3    C     C_3   0.103883 0.765877 0.205845 -0.902609
H6    H     H_    0.970628 0.756688 0.192404 0.285246
H7    H     H_    0.157840 0.839324 0.209548 0.282965
C4    C     C_3   0.198081 0.748188 0.623316 0.382793
H8    H     H_    0.319585 0.747132 0.602688 -0.003064
H9    H     H_    0.108789 0.710236 0.579825 0.171242
C5    C     C_3   0.169132 0.847035 0.641572 -0.784896
H10   H     H_    0.267951 0.889357 0.679798 0.258491
H11   H     H_    0.166735 0.875249 0.592188 0.251318
H12   H     H_    0.051361 0.850167 0.666975 0.266218
Ba1   Ba    Ba6+2 0.853900 0.540470 0.466700 1.620478
C6    C     C_3   0.056546 0.228779 0.296725 0.807582
H13   H     H_    0.186273 0.256328 0.309491 -0.031674
C7    C     C_3   0.020705 0.204499 0.215187 -0.840241
H14   H     H_    0.889189 0.176742 0.201461 0.316704
H15   H     H_    0.093918 0.151822 0.190682 0.251476
H16   H     H_    0.053665 0.265786 0.191708 0.189955
C8    C     C_3   0.603663 0.753093 0.698710 0.838220
H17   H     H_    0.489034 0.711303 0.673412 0.033195
C9    C     C_3   0.590488 0.855945 0.713070 -1.063670
H18   H     H_    0.709622 0.898343 0.735308 0.287174
H19   H     H_    0.496290 0.870564 0.751789 0.277066
H20   H     H_    0.554780 0.876439 0.662901 0.206432
P4    P     P_3+3 0.148400 0.591330 0.665750 0.497483
O12   O     O_2   0.315750 0.565080 0.676000 -0.363273
O13   O     O_3   0.067310 0.556770 0.587020 -0.410921
O14   O     O_3   0.526830 0.394180 0.626670 -0.370629
O15   O     O_3   0.188819 0.712218 0.685890 -0.551227
P5    P     P_3+3 0.065433 0.225074 0.582604 0.507072
O16   O     O_3   0.609740 0.386310 0.459940 -0.404964
O17   O     O_3   0.104690 0.343880 0.589170 -0.403745
O18   O     O_2   0.209669 0.185975 0.545643 -0.300196
O19   O     O_3   0.082376 0.201538 0.669139 -0.527912
Ba2   Ba    Ba6+2 0.335940 0.459610 0.533310 1.642864
P6    P     P_3+3 0.624359 0.605725 0.284147 0.420403
C10   C     C_3   0.675854 0.781702 0.316597 0.384909
H21   H     H_    0.542204 0.771701 0.322866 -0.002898
H22   H     H_    0.693360 0.929897 0.333875 0.224085
O20   O     O_3   0.579970 0.613770 0.540070 -0.372881
C11   C     C_3   0.486306 0.339376 0.313190 0.309161
H23   H     H_    0.388198 0.373667 0.338382 -0.024027
H24   H     H_    0.602098 0.385838 0.330399 0.161459
C12   C     C_3   0.460860 0.322531 0.231501 -0.112736
H25   H     H_    0.339015 0.281502 0.213937 0.097726
H26   H     H_    0.464762 0.388899 0.214138 0.068050
P7    P     P_3+3 0.514165 0.272304 0.427323 0.532110
O21   O     O_2   0.337870 0.272490 0.457870 -0.320779
O22   O     O_3   0.484842 0.254910 0.333948 -0.507518
H27   H     H_    0.159068 0.722762 0.162028 0.214173
C13   C     C_3   0.106967 0.283247 0.722163 0.305336
H28   H     H_    0.226662 0.324103 0.719027 0.177077
H29   H     H_    0.017702 0.328095 0.714037 0.004910
C14   C     C_3   0.087450 0.259402 0.796816 -0.083701
H30   H     H_    0.031516 0.312469 0.831913 0.065417
H31   H     H_    0.003227 0.192845 0.791958 0.169890
P8    P     P_3+3 0.562637 0.388747 0.715400 0.494847
C15   C     C_3   0.541328 0.206311 0.683244 0.545696
O23   O     O_2   0.454042 0.453876 0.755525 -0.378370
O24   O     O_3   0.485345 0.278263 0.731062 -0.509882
H32   H     H_    0.500636 0.205513 0.626899 0.121746
H33   H     H_    0.551405 0.059998 0.684967 0.078133
C16   C     C_3   0.473392 0.113064 0.702972 -0.036491
H34   H     H_    0.472600 0.121755 0.762175 0.187056
C17   C     C_R   0.051832 0.560096 0.803658 -0.259461
H35   H     H_    0.145532 0.618148 0.826200 0.153196
C18   C     C_R   0.015244 0.540918 0.728774 0.300891
C19   C     C_R   0.843061 0.432802 0.812334 -0.371381
H36   H     H_    0.787799 0.377514 0.836742 0.162192
C20   C     C_R   0.776081 0.437034 0.745171 0.312456
C21   C     C_R   0.338815 0.584035 0.193271 -0.352459
H37   H     H_    0.393065 0.643480 0.173334 0.149921
C22   C     C_R   0.405299 0.572891 0.258419 0.220683
C23   C     C_R   0.125740 0.455606 0.195808 -0.310505
H38   H     H_    0.025455 0.403171 0.171069 0.183478
C24   C     C_R   0.167508 0.464362 0.270075 0.195726
C25   C     C_R   0.975935 0.499928 0.847069 0.084422
C26   C     C_R   0.869550 0.484493 0.701200 -0.340029
H39   H     H_    0.826742 0.479372 0.646125 0.159816
C27   C     C_R   0.206020 0.519747 0.155716 0.107516
C28   C     C_R   0.310969 0.522036 0.299583 -0.413646
H40   H     H_    0.354410 0.524312 0.354100 0.154810
C29   C     C_R   0.753614 0.459338 0.963143 -0.176792
C30   C     C_R   0.650538 0.428238 0.012078 -0.093290
C31   C     C_R   0.703202 0.448284 0.083460 -0.039919
C32   C     C_R   0.862427 0.491650 0.103750 -0.131026
C33   C     C_R   0.980933 0.498242 0.053387 0.046162
C34   C     C_R   0.924139 0.487077 0.979677 0.097798
C35   C     C_R   0.149825 0.520979 0.077088 -0.063340
C36   C     C_R   0.260634 0.543035 0.024247 0.111557
C37   C     C_R   0.204271 0.532125 0.950217 0.072086
C38   C     C_R   0.034994 0.505846 0.926297 -0.047758
C39   C     C_R   0.429941 0.574922 0.041658 -0.198959
C40   C     C_R   0.532490 0.608201 0.993350 -0.113803
C41   C     C_R   0.481156 0.589316 0.921864 -0.050582
C42   C     C_R   0.323858 0.544040 0.900505 -0.101904
H41   H     H_    0.691618 0.466754 0.915185 0.165021
H42   H     H_    0.523126 0.401178 0.996356 0.180223
H43   H     H_    0.616611 0.436937 0.122980 0.158970
H44   H     H_    0.894128 0.520921 0.159054 0.189404
H45   H     H_    0.492938 0.569034 0.089632 0.143499
H46   H     H_    0.659076 0.636892 0.009727 0.149909
H47   H     H_    0.567280 0.603060 0.882584 0.198587
H48   H     H_    0.298195 0.517494 0.844528 0.176690
C43   C     C_R   0.867962 0.169645 0.531151 0.242989
C44   C     C_R   0.798606 0.076346 0.527652 -0.018976
C45   C     C_R   0.651799 0.890956 0.524079 -0.024008
C46   C     C_R   0.798821 0.929945 0.564329 -0.114454
C47   C     C_R   0.872394 0.019837 0.564809 -0.131028
C48   C     C_R   0.580819 0.797665 0.519537 0.163405
H49   H     H_    0.858523 0.891879 0.596472 0.173147
H50   H     H_    0.986092 0.044682 0.596083 0.238848
C49   C     C_R   0.430421 0.763762 0.480539 -0.490564
C50   C     C_R   0.631093 0.189231 0.458863 0.226412
C51   C     C_R   0.572512 0.093295 0.447613 -0.144782
C52   C     C_R   0.647981 0.039164 0.487684 0.023062
C53   C     C_R   0.443010 0.048526 0.396971 0.345969
C54   C     C_R   0.358280 0.963052 0.403431 -0.225640
C55   C     C_R   0.421967 0.910847 0.447477 -0.041284
C56   C     C_R   0.574192 0.946747 0.486279 0.044187
C57   C     C_R   0.345797 0.820413 0.448331 0.170224
C58   C     C_R   0.779670 0.225352 0.499175 -0.385656
H51   H     H_    0.255010 0.933171 0.366283 0.211564
H52   H     H_    0.374309 0.693065 0.478244 0.172072
H53   H     H_    0.827208 0.298114 0.506060 0.169961
N1    N     N_R   0.019714 0.145909 0.326913 0.258267
O25   O     O_R   0.938683 0.069163 0.289222 -0.361171
O26   O     O_R   0.058807 0.150362 0.394174 -0.378916
N2    N     N_R   0.634609 0.722876 0.765618 0.233661
O27   O     O_R   0.645290 0.778896 0.827824 -0.389032
O28   O     O_R   0.656463 0.638328 0.762680 -0.421795
N3    N     N_R   0.584979 0.273791 0.196746 0.295496
O29   O     O_R   0.544466 0.190031 0.159733 -0.300951
O30   O     O_R   0.732991 0.316930 0.196303 -0.399931
N4    N     N_R   0.242894 0.254289 0.832282 0.287837
O31   O     O_R   0.343043 0.329935 0.859237 -0.394684
O32   O     O_R   0.264013 0.178415 0.851842 -0.330593
C59   C     C_3   0.726062 0.217513 0.689997 -1.144219
H54   H     H_    0.776771 0.269480 0.659355 0.226160
H55   H     H_    0.768210 0.238756 0.747354 0.263024
H56   H     H_    0.770741 0.152739 0.667810 0.260608
N5    N     N_R   0.310833 0.076108 0.669648 0.257546
O33   O     O_R   0.293744 0.043976 0.600815 -0.429955
O34   O     O_R   0.191471 0.056040 0.709301 -0.366698
N6    N     N_R   0.430202 0.073409 0.328447 0.249580
O35   O     O_R   0.291017 0.053939 0.291010 -0.363601
O36   O     O_R   0.563003 0.089241 0.295342 -0.317611

loop_
_geom_bond_atom_site_label_1
_geom_bond_atom_site_label_2
_geom_bond_distance
_ccdc_geom_bond_type
O14   Ba2   2.764024 S    
N6    O35   1.300211 A    
N4    O32   1.300653 A    
C33   C35   1.427611 A    
C9    H18   1.110948 S    
O4    P6    1.537151 D    
C2    H4    1.112061 S    
C52   C56   1.421010 A    
C46   C47   1.389721 A    
C53   N6    1.433528 S    
C40   C41   1.375478 A    
C51   C52   1.417512 A    
C8    C9    1.534511 S    
O16   Ba2   2.951945 S    
C17   H35   1.080985 S    
C4    C5    1.513139 S    
P5    O19   1.760411 S    
P2    C48   1.868273 S    
P3    O11   1.748711 S    
C12   N3    1.457202 S    
C5    H10   1.106398 S    
P4    C18   1.851386 S    
C39   C40   1.387532 A    
P1    O2    1.578971 S    
C54   H51   1.074179 S    
N2    O28   1.299592 A    
N1    O26   1.298946 A    
C15   O24   1.416390 S    
C21   C22   1.393828 A    
C32   C33   1.403731 A    
C41   C42   1.383809 A    
O1    Ba1   2.887492 S    
P1    O1    1.519080 D    
O10   C8    1.398996 S    
C11   H24   1.095203 S    
C36   C37   1.442397 A    
C59   H56   1.104638 S    
C6    C7    1.533196 S    
O2    Ba2   2.801698 S    
C15   C16   1.547457 S    
C15   C59   1.516049 S    
O19   C13   1.408602 S    
C37   C38   1.433790 A    
O12   Ba2   2.888052 S    
P5    O17   1.739937 S    
C33   C34   1.437120 A    
C37   C42   1.411067 A    
P3    C57   1.858205 S    
C21   C27   1.415784 A    
C1    H2    1.108851 S    
Ba1   Ba2   4.572432 S    
N5    O34   1.300862 A    
C19   C25   1.419209 A    
O17   Ba2   2.769767 S    
C47   H50   1.073576 S    
C11   H23   1.103328 S    
P4    O13   1.579140 S    
C44   C52   1.417875 A    
C27   C35   1.560320 S    
N6    O36   1.302159 A    
C24   C28   1.388812 A    
P2    Ba1   3.457440 S    
C59   H55   1.105759 S    
C9    H19   1.110117 S    
C58   H53   1.082035 S    
C29   H41   1.068369 S    
O6    P6    1.745657 S    
C30   C31   1.375809 A    
Ba2   O21   2.892154 S    
C30   H42   1.082907 S    
C17   C18   1.412821 A    
P6    C22   1.833769 S    
P8    C20   1.834042 S    
N4    O31   1.300812 A    
P5    O18   1.544604 D    
C41   H47   1.079775 S    
C14   H30   1.105190 S    
P7    O21   1.593873 D    
C28   H40   1.081610 S    
O8    Ba1   2.769110 S    
C2    C3    1.522515 S    
C54   C55   1.399743 A    
C22   C28   1.380021 A    
C8    H17   1.094259 S    
C13   H29   1.102385 S    
C25   C38   1.554435 S    
O11   C2    1.400886 S    
C44   C47   1.402747 A    
C4    H8    1.096439 S    
P4    O12   1.519435 D    
P1    Ba1   3.455373 S    
C34   C38   1.434558 A    
C1    H22   1.109571 S    
C7    H14   1.110175 S    
C12   H26   1.106114 S    
O14   P8    1.728482 S    
P2    O10   1.759546 S    
C11   C12   1.530076 S    
Ba1   O16   2.808662 S    
H1    C10   1.111473 S    
C50   C58   1.404772 A    
C23   C27   1.442612 A    
C16   H34   1.110890 S    
P4    O15   1.753813 S    
C43   C58   1.404074 A    
P7    C50   1.869044 S    
C6    H13   1.093722 S    
P8    O23   1.541458 D    
C39   H45   1.064810 S    
C23   H38   1.076690 S    
P5    C43   1.869062 S    
O16   P7    1.751330 S    
C19   H36   1.079024 S    
C23   C24   1.422488 A    
C1    H3    1.110536 S    
C36   C39   1.419510 A    
O3    Ba1   2.764631 S    
C14   H31   1.112407 S    
C16   N5    1.451484 S    
C19   C20   1.396707 A    
C26   H39   1.081939 S    
P3    O8    1.739022 S    
C59   H54   1.105229 S    
Ba1   O13   2.800905 S    
C3    H7    1.110793 S    
C48   C49   1.401763 A    
C4    H9    1.097186 S    
C45   C56   1.418518 A    
Ba1   O20   2.952856 S    
C45   C46   1.400754 A    
C46   H49   1.074579 S    
C21   H37   1.078841 S    
C3    H27   1.108791 S    
C7    H15   1.110894 S    
O13   Ba2   2.952986 S    
N1    O25   1.301984 A    
C31   C32   1.386474 A    
P8    O24   1.768459 S    
C11   O22   1.398951 S    
C51   C53   1.411337 A    
C49   H52   1.082120 S    
C42   H48   1.064802 S    
C32   H44   1.066223 S    
C3    H6    1.109152 S    
C5    H12   1.109147 S    
N3    O30   1.298722 A    
C13   C14   1.542735 S    
C55   C56   1.416440 A    
C50   C51   1.416952 A    
N5    O33   1.300474 A    
C53   C54   1.393983 A    
C8    N2    1.464148 S    
C49   C57   1.399299 A    
O5    C6    1.399992 S    
C12   H25   1.103806 S    
C18   C26   1.386358 A    
C5    H11   1.107215 S    
P2    O7    1.519967 D    
C45   C48   1.416529 A    
C13   H28   1.094190 S    
N2    O27   1.302324 A    
C55   C57   1.408695 A    
C15   H32   1.113061 S    
C10   H21   1.110656 S    
C43   C44   1.416264 A    
P1    C24   1.873658 S    
C40   H46   1.083262 S    
C9    H20   1.106461 S    
O6    C10   1.407475 S    
C14   N4    1.457784 S    
C1    C10   1.519436 S    
O2    Ba1   2.952127 S    
C4    O15   1.403391 S    
C17   C25   1.432283 A    
C6    N1    1.465600 S    
P2    O20   1.583069 S    
O7    Ba1   2.891873 S    
N3    O29   1.300793 A    
P4    Ba2   3.455982 S    
H33   C16   1.112606 S    
P3    O9    1.543124 D    
C35   C36   1.438906 A    
C29   C30   1.386565 A    
C7    H16   1.101806 S    
C31   H43   1.078249 S    
C29   C34   1.419581 A    
P7    O22   1.750976 S    
Ba2   O20   2.808021 S    
C20   C26   1.385877 A    
O3    P6    1.719876 S    
P1    O5    1.764924 S    
C2    H5    1.109422 S    
