data_mof_unit_25170.cif
_audit_creation_date              2012-10-26T19:04:47-0400
_audit_creation_method            fapswitch 2.2
_symmetry_space_group_name_H-M    P1
_symmetry_Int_Tables_number       1
_space_group_crystal_system       triclinic
_cell_length_a                    9.603356
_cell_length_b                    10.905639
_cell_length_c                    13.451903
_cell_angle_alpha                 95.630478
_cell_angle_beta                  73.860173
_cell_angle_gamma                 90.495193
_cell_volume                      1346.51536048

loop_
_atom_site_label
_atom_site_type_symbol
_atom_type_description
_atom_site_fract_x
_atom_site_fract_y
_atom_site_fract_z
_atom_type_partial_charge
C1    C     C_R   0.501169 0.737472 0.495401 0.551096
C2    C     C_R   0.392550 0.440784 0.802656 -0.003238
C3    C     C_R   0.252182 0.882460 0.462846 -0.152828
C4    C     C_R   0.425739 0.483271 0.696880 0.548637
C5    C     C_R   0.118234 0.943319 0.487178 -0.075402
C6    C     C_R   0.097365 0.059488 0.542634 0.290803
C7    C     C_R   0.219605 0.121381 0.558874 -0.094124
C8    C     C_R   0.358873 0.064932 0.524819 -0.016380
C9    C     C_R   0.370111 0.937688 0.493058 0.005672
C10   C     C_R   0.498095 0.872259 0.493418 -0.003744
C11   C     C_R   0.618538 0.938480 0.506604 -0.122284
C12   C     C_R   0.455863 0.425113 0.966156 0.037405
C13   C     C_R   0.614634 0.066165 0.517164 -0.156607
C14   C     C_R   0.487323 0.130933 0.521865 -0.032560
C15   C     C_R   0.908714 0.299847 0.377536 0.317402
C16   C     C_R   0.495088 0.263973 0.510140 0.495820
C17   C     C_R   0.005526 0.195445 0.346253 0.241378
C18   C     C_R   0.150250 0.211259 0.337570 -0.147806
C19   C     C_R   0.196996 0.320333 0.375244 -0.139578
C20   C     C_R   0.099177 0.409252 0.439136 0.092668
C21   C     C_R   0.949128 0.404396 0.440101 0.102191
C22   C     C_R   0.901575 0.588099 0.559508 0.363440
C23   C     C_R   0.500213 0.433575 0.857362 0.024587
C24   C     C_R   0.051602 0.585535 0.560047 -0.024388
C25   C     C_R   0.576375 0.502277 0.300997 0.537546
C26   C     C_R   0.801636 0.520642 0.027508 0.200181
C27   C     C_R   0.618940 0.497844 0.188066 -0.045024
C28   C     C_R   0.251501 0.404533 0.850209 -0.089078
C29   C     C_R   0.213946 0.373587 0.952216 -0.080814
C30   C     C_R   0.311996 0.389495 0.011461 -0.096033
C31   C     C_3   0.922070 0.183271 0.669028 -0.010936
C32   C     C_3   0.931475 0.107792 0.757578 -0.289430
C33   C     C_3   0.886473 0.182188 0.863581 -0.485847
C34   C     C_R   0.557934 0.452716 0.024334 -0.002155
C35   C     C_3   0.843782 0.769717 0.680804 -0.037163
C36   C     C_3   0.835338 0.727266 0.787379 -0.261576
C37   C     C_3   0.851545 0.832454 0.866533 -0.447761
C38   C     C_3   0.738494 0.228335 0.285704 0.070488
C39   C     C_3   0.789200 0.183478 0.169546 -0.259902
C40   C     C_3   0.698211 0.075640 0.144043 -0.460774
C41   C     C_R   0.704032 0.477468 0.971470 0.052542
C42   C     C_R   0.750112 0.455917 0.863797 -0.158275
C43   C     C_R   0.650769 0.431162 0.807914 -0.144096
C44   C     C_R   0.518250 0.462664 0.133336 -0.159018
C45   C     C_R   0.759226 0.528738 0.135116 -0.079693
Cl1   Cl    Cl    0.962659 0.044332 0.305349 -0.696736
Cl2   Cl    Cl    0.972738 0.577930 0.967463 -0.715209
Cu1   Cu    Cu3+1 0.359340 0.500010 0.500010 0.911138
Cu2   Cu    Cu3+1 0.640660 0.499990 0.499990 1.035238
H1    H     H_    0.835578 0.560972 0.177483 0.188025
H2    H     H_    0.409263 0.444897 0.177490 0.131680
H3    H     H_    0.169972 0.399658 0.808272 0.144901
H4    H     H_    0.273336 0.369590 0.091345 0.108245
H5    H     H_    0.105448 0.342932 0.987484 0.147810
H6    H     H_    0.697169 0.406004 0.726194 0.151505
H7    H     H_    0.717416 0.891714 0.507006 0.178736
H8    H     H_    0.807341 0.213255 0.684938 0.149494
H9    H     H_    0.984568 0.269508 0.667234 0.119511
H10   H     H_    0.858170 0.029425 0.757451 0.162083
H11   H     H_    0.043257 0.071529 0.745197 0.156779
H12   H     H_    0.261684 0.793983 0.417703 0.167127
H13   H     H_    0.951573 0.266667 0.863049 0.156914
H14   H     H_    0.907141 0.126283 0.922719 0.147624
H15   H     H_    0.769118 0.206375 0.885384 0.165234
H16   H     H_    0.765167 0.847552 0.692943 0.164439
H17   H     H_    0.950381 0.808023 0.642809 0.106017
H18   H     H_    0.727708 0.686085 0.817938 0.205872
H19   H     H_    0.921824 0.657200 0.778640 0.191166
H20   H     H_    0.958728 0.875829 0.839720 0.161883
H21   H     H_    0.843425 0.796827 0.942266 0.220210
H22   H     H_    0.762368 0.901494 0.879958 0.130311
H23   H     H_    0.028351 0.897502 0.466346 0.172203
H24   H     H_    0.627145 0.265995 0.300446 0.134846
H25   H     H_    0.723795 0.152456 0.335747 0.178093
H26   H     H_    0.778114 0.259894 0.123278 0.155865
H27   H     H_    0.905267 0.154885 0.146202 0.215607
H28   H     H_    0.708938 0.997277 0.188543 0.198968
H29   H     H_    0.735505 0.043923 0.059881 0.145954
H30   H     H_    0.582167 0.104430 0.163782 0.137150
H31   H     H_    0.205418 0.211294 0.601271 0.138700
H32   H     H_    0.712636 0.114380 0.519760 0.195354
H33   H     H_    0.228598 0.138012 0.300664 0.156027
H34   H     H_    0.311408 0.327578 0.356474 0.188356
H35   H     H_    0.863692 0.457898 0.821538 0.146173
H36   H     H_    0.093282 0.651725 0.608881 0.122977
N1    N     N_R   0.852480 0.498790 0.499000 -0.224981
N2    N     N_R   0.148360 0.498710 0.498970 -0.269451
O1    O     O_R   0.381190 0.680360 0.500010 -0.516929
O2    O     O_3   0.797654 0.675275 0.618130 -0.534517
O3    O     O_3   0.827011 0.324561 0.311104 -0.543784
O4    O     O_R   0.618760 0.680340 0.500000 -0.446747
O5    O     O_R   0.323240 0.499990 0.650990 -0.501232
O6    O     O_R   0.560820 0.499960 0.650980 -0.482038
O7    O     O_R   0.381240 0.319660 0.500000 -0.538996
O8    O     O_R   0.618810 0.319640 0.499990 -0.511782
O9    O     O_R   0.439180 0.500040 0.349020 -0.534916
O10   O     O_R   0.676760 0.500010 0.349010 -0.440553
O11   O     O_3   0.958269 0.111572 0.571229 -0.585685

loop_
_geom_bond_atom_site_label_1
_geom_bond_atom_site_label_2
_ccdc_geom_bond_type
C37   H20   S    
C11   C13   A    
C41   C42   A    
C35   C36   S    
C36   H18   S    
C7    C8    A    
C12   C23   A    
Cu1   O7    S    
C6    O11   S    
C31   H9    S    
C28   C29   A    
C5    H23   S    
C5    C6    A    
C29   H5    S    
C35   H16   S    
C20   N2    A    
C13   H32   S    
C23   C43   A    
C18   C19   A    
C31   O11   S    
C26   C45   A    
C27   C44   A    
C19   C20   A    
C8    C9    A    
Cu1   O1    S    
C39   H26   S    
C9    C10   A    
C27   C45   A    
C1    O1    A    
C1    O4    A    
C37   H21   S    
C34   C41   A    
Cu2   O4    S    
C19   H34   S    
C3    H12   S    
C30   H4    S    
C40   H30   S    
C40   H29   S    
C42   H35   S    
C17   Cl1   S    
C39   C40   S    
C33   H13   S    
C24   H36   S    
C35   H17   S    
C2    C4    S    
C29   C30   A    
C3    C9    A    
C31   C32   S    
C33   H14   S    
C17   C18   A    
Cu1   N2    S    
C34   C44   A    
C39   H27   S    
Cu2   O8    S    
C26   Cl2   S    
C35   O2    S    
C44   H2    S    
C25   O10   A    
Cu1   Cu2   S    
C37   H22   S    
C14   C16   S    
C42   C43   A    
C32   H11   S    
C12   C34   A    
C38   H25   S    
C43   H6    S    
C15   C17   A    
C21   N1    A    
C36   C37   S    
C16   O8    A    
C8    C14   A    
Cu1   O9    S    
C12   C30   A    
Cu2   N1    S    
C1    C10   S    
C3    C5    A    
C36   H19   S    
C6    C7    A    
C25   C27   S    
C38   O3    S    
C16   O7    A    
C32   C33   S    
C31   H8    S    
C15   O3    S    
C28   H3    S    
C38   C39   S    
C45   H1    S    
C33   H15   S    
C18   H33   S    
C22   O2    S    
C22   C24   A    
C22   N1    A    
C24   N2    A    
C10   C11   A    
Cu2   O10   S    
C4    O6    A    
C15   C21   A    
C20   C21   A    
C25   O9    A    
Cu1   O5    S    
C2    C23   A    
C40   H28   S    
C2    C28   A    
C32   H10   S    
Cu2   O6    S    
C13   C14   A    
C11   H7    S    
C26   C41   A    
C7    H31   S    
C4    O5    A    
C38   H24   S    
