data_mof_unit_39475.cif
_audit_creation_date              2012-12-10T19:05:20-0500
_audit_creation_method            fapswitch 2.2
_symmetry_space_group_name_H-M    P1
_symmetry_Int_Tables_number       1
_space_group_crystal_system       triclinic
_cell_length_a                    9.581053
_cell_length_b                    10.899444
_cell_length_c                    17.425436
_cell_angle_alpha                 92.024521
_cell_angle_beta                  85.043308
_cell_angle_gamma                 89.624152
_cell_volume                      1811.68483804

loop_
_atom_site_label
_atom_site_type_symbol
_atom_type_description
_atom_site_fract_x
_atom_site_fract_y
_atom_site_fract_z
_atom_type_partial_charge
C1    C     C_R   0.500189 0.737634 0.500306 0.785443
C2    C     C_R   0.351303 0.504212 0.785024 0.450414
C3    C     C_R   0.415702 0.488081 0.146465 0.344383
C4    C     C_R   0.408967 0.514852 0.225760 0.378107
C5    C     C_R   0.658954 0.472710 0.223884 -0.281936
C6    C     C_R   0.667483 0.457151 0.144051 -0.230554
C7    C     C_R   0.546869 0.465555 0.104852 -0.007360
C8    C     C_2   0.486178 0.527447 0.979265 -0.093733
C9    C     C_2   0.560497 0.454080 0.020426 -0.132876
C10   C     C_R   0.529564 0.498515 0.265604 -0.186286
C11   C     C_R   0.377320 0.938335 0.502040 -0.022915
C12   C     C_R   0.481154 0.503230 0.650273 0.797358
C13   C     C_R   0.502638 0.871089 0.498463 -0.178848
C14   C     C_R   0.630583 0.937538 0.492948 0.452989
C15   C     C_R   0.626681 0.065219 0.489598 -0.319239
C16   C     C_R   0.500778 0.130312 0.505029 -0.166840
C17   C     C_R   0.378526 0.062496 0.515987 0.027373
C18   C     C_3   0.246977 0.063382 0.570437 0.285154
C19   C     C_3   0.239932 0.926505 0.548378 -0.408207
C20   C     C_R   0.936708 0.446897 0.439522 0.148064
C21   C     C_R   0.914890 0.563708 0.554405 -0.072502
C22   C     C_R   0.062323 0.570602 0.552042 0.448658
C23   C     C_R   0.499875 0.263000 0.502493 0.805008
C24   C     C_R   0.083712 0.444914 0.440491 0.096403
C25   C     C_3   0.093064 0.313211 0.413632 0.168776
C26   C     C_3   0.934168 0.316850 0.409539 0.207274
C27   C     C_R   0.519016 0.501555 0.350188 0.845869
C28   C     C_R   0.476272 0.509593 0.735516 -0.171987
C29   C     C_R   0.605649 0.519464 0.768552 -0.375945
C30   C     C_R   0.612535 0.521796 0.848381 0.445937
C31   C     C_R   0.488292 0.513093 0.895886 0.035481
C32   C     C_R   0.360584 0.499118 0.864384 -0.338799
Cu1   Cu    Cu3+1 0.359330 0.500020 0.500000 0.964219
Cu2   Cu    Cu3+1 0.640670 0.499980 0.500000 0.949850
H1    H     H_    0.702938 0.525963 0.732437 0.173684
H2    H     H_    0.768424 0.439330 0.112654 0.172651
H3    H     H_    0.724525 0.112632 0.480736 0.167601
H4    H     H_    0.159322 0.118838 0.552192 0.076161
H5    H     H_    0.247547 0.865289 0.597491 0.225436
H6    H     H_    0.154178 0.903659 0.511351 0.174946
H7    H     H_    0.850629 0.612650 0.599711 0.137279
H8    H     H_    0.127080 0.251743 0.457828 0.091541
H9    H     H_    0.877145 0.256478 0.451262 0.044788
H10   H     H_    0.753660 0.463826 0.252887 0.225853
H11   H     H_    0.634354 0.387521 0.991855 0.170702
H12   H     H_    0.266486 0.486780 0.902360 0.169365
H13   H     H_    0.415400 0.596776 0.007259 0.173382
N1    N     N_R   0.852130 0.499070 0.499500 -0.238859
N2    N     N_R   0.148040 0.499110 0.499500 -0.253674
O1    O     O_R   0.381190 0.680360 0.500000 -0.616209
O2    O     O_R   0.618770 0.680320 0.499990 -0.545865
O3    O     O_R   0.367430 0.500040 0.613600 -0.578369
O4    O     O_R   0.605020 0.500000 0.613590 -0.602997
O5    O     O_R   0.381230 0.319680 0.500010 -0.583456
O6    O     O_R   0.618810 0.319640 0.500000 -0.598055
O7    O     O_R   0.394980 0.500000 0.386410 -0.516457
O8    O     O_R   0.632570 0.499960 0.386400 -0.570454
O9    O     O_3   0.760674 0.880991 0.489611 -0.596298
C33   C     C_3   0.803164 0.872050 0.565254 0.088113
H14   H     H_    0.892404 0.806804 0.560957 0.195821
H15   H     H_    0.719206 0.834002 0.605775 0.120920
C34   C     C_3   0.857398 0.993561 0.598222 -0.433152
H16   H     H_    0.937032 0.031836 0.555890 0.214060
H17   H     H_    0.771094 0.061456 0.609617 0.224937
C35   C     C_3   0.920775 0.974740 0.674419 -0.853104
H18   H     H_    0.839488 0.941901 0.718088 0.243388
H19   H     H_    0.962133 0.063178 0.695999 0.276109
H20   H     H_    0.007746 0.906470 0.666764 0.285125
O10   O     O_3   0.258478 0.070513 0.651354 -0.611702
C36   C     C_3   0.343448 0.165762 0.676975 0.113385
H21   H     H_    0.286153 0.212182 0.728207 0.178120
H22   H     H_    0.364328 0.238213 0.634944 0.142483
C37   C     C_3   0.477923 0.108793 0.702278 -0.377265
H23   H     H_    0.450530 0.048149 0.751198 0.224979
H24   H     H_    0.529879 0.050834 0.654458 0.224169
C38   C     C_3   0.579934 0.205661 0.727369 -0.913092
H25   H     H_    0.611892 0.265342 0.678740 0.266854
H26   H     H_    0.675034 0.160146 0.745595 0.262257
H27   H     H_    0.530778 0.261728 0.776983 0.266928
O11   O     O_3   0.112865 0.656609 0.601239 -0.826519
H28   H     H_    0.214698 0.653118 0.595907 0.374190
O12   O     O_3   0.171422 0.293827 0.342005 -0.687595
H29   H     H_    0.145953 0.358468 0.306938 0.383565
O13   O     O_3   0.281020 0.546583 0.264869 -0.599908
C39   C     C_3   0.245269 0.669747 0.251104 0.087797
H30   H     H_    0.131074 0.673078 0.244289 0.170528
H31   H     H_    0.298777 0.706062 0.197172 0.134314
C40   C     C_3   0.275101 0.753221 0.320227 -0.337508
H32   H     H_    0.218530 0.718600 0.373428 0.252347
H33   H     H_    0.389265 0.752084 0.327301 0.205296
C41   C     C_3   0.228082 0.885114 0.309514 -0.916874
H34   H     H_    0.284807 0.922505 0.257276 0.258062
H35   H     H_    0.250670 0.943616 0.360262 0.270121
H36   H     H_    0.113706 0.888594 0.303785 0.259322
O14   O     O_3   0.896384 0.312068 0.332601 -0.597683
C42   C     C_3   0.807779 0.212014 0.318931 0.078262
H37   H     H_    0.765788 0.225259 0.262321 0.166691
H38   H     H_    0.715316 0.211692 0.362003 0.146275
C43   C     C_3   0.887725 0.088980 0.314619 -0.366448
H39   H     H_    0.982509 0.094878 0.273451 0.241321
H40   H     H_    0.921921 0.068095 0.372103 0.220208
C44   C     C_3   0.796218 0.984329 0.288016 -0.877303
H41   H     H_    0.698677 0.978713 0.326996 0.268348
H42   H     H_    0.854135 0.895857 0.288519 0.261471
H43   H     H_    0.768258 0.998900 0.228442 0.246646
O15   O     O_3   0.292891 0.487731 0.110164 -0.632083
C45   C     C_3   0.238062 0.367845 0.110737 0.075682
H44   H     H_    0.231283 0.330711 0.169768 0.168236
H45   H     H_    0.305202 0.305649 0.070817 0.139335
C46   C     C_3   0.090642 0.371560 0.083799 -0.316011
H46   H     H_    0.025088 0.437644 0.121566 0.228066
H47   H     H_    0.095766 0.403588 0.023755 0.216632
C47   C     C_3   0.022530 0.245431 0.086760 -0.925808
H48   H     H_    0.086800 0.177496 0.049808 0.256900
H49   H     H_    0.916845 0.250747 0.065428 0.252472
H50   H     H_    0.011249 0.214183 0.146950 0.268124
O16   O     O_3   0.220663 0.493917 0.757583 -0.610635
C48   C     C_3   0.152501 0.610333 0.761596 0.092290
H51   H     H_    0.058111 0.598713 0.729664 0.215613
H52   H     H_    0.220135 0.681316 0.733148 0.148687
C49   C     C_3   0.099273 0.656072 0.843569 -0.436583
H53   H     H_    0.045334 0.580610 0.875061 0.242399
H54   H     H_    0.188357 0.688054 0.875496 0.217165
C50   C     C_3   0.998234 0.764715 0.841411 -0.862819
H55   H     H_    0.052352 0.842716 0.812622 0.260000
H56   H     H_    0.960292 0.794904 0.901148 0.267020
H57   H     H_    0.906410 0.738646 0.809827 0.255446
O17   O     O_3   0.738322 0.534309 0.880891 -0.745163
H58   H     H_    0.815599 0.530979 0.839225 0.319343

loop_
_geom_bond_atom_site_label_1
_geom_bond_atom_site_label_2
_ccdc_geom_bond_type
C10   C27   S    
C24   C25   S    
C9    H11   S    
C37   H24   S    
C37   H23   S    
O14   C42   S    
C38   H27   S    
O17   H58   S    
C39   H30   S    
Cu1   O3    S    
C11   C19   S    
Cu2   O2    S    
C34   H16   S    
C12   C28   S    
C28   C29   A    
C38   H26   S    
C3    C7    A    
C5    C6    A    
O15   C45   S    
Cu1   N2    S    
C15   C16   A    
C42   C43   S    
C26   O14   S    
C44   H43   S    
C2    C32   A    
C18   C19   S    
C48   H51   S    
C15   H3    S    
C49   C50   S    
C34   H17   S    
C46   H46   S    
C20   C24   A    
C8    C9    D    
C35   H19   S    
C42   H38   S    
Cu2   O8    S    
C45   H44   S    
C36   H21   S    
C1    O1    A    
C12   O4    A    
C21   N1    A    
Cu1   O7    S    
C33   H14   S    
C21   C22   A    
C45   H45   S    
O10   C36   S    
C12   O3    A    
C2    O16   S    
C26   H9    S    
Cu1   Cu2   S    
C46   H47   S    
C39   H31   S    
C3    O15   S    
C14   O9    S    
C30   O17   S    
C33   H15   S    
O13   C39   S    
C27   O8    A    
C41   H34   S    
C27   O7    A    
C16   C17   A    
C25   C26   S    
C48   C49   S    
C29   C30   A    
C41   H35   S    
C31   C32   A    
C4    O13   S    
C40   C41   S    
C35   H20   S    
C42   H37   S    
C36   C37   S    
C17   C18   S    
C38   H25   S    
C44   H42   S    
C1    O2    A    
C46   C47   S    
C49   H53   S    
C20   N1    A    
C19   H5    S    
C22   N2    A    
C21   H7    S    
C43   H40   S    
C5    H10   S    
C40   H33   S    
C35   H18   S    
C16   C23   S    
C50   H57   S    
C25   O12   S    
C45   C46   S    
O9    C33   S    
C1    C13   S    
C4    C10   A    
C3    C4    A    
C23   O5    A    
C50   H56   S    
C47   H48   S    
C39   C40   S    
Cu1   O5    S    
C7    C9    S    
C11   C17   A    
C33   C34   S    
C34   C35   S    
C8    C31   S    
C32   H12   S    
O11   H28   S    
C25   H8    S    
C36   H22   S    
C23   O6    A    
C6    C7    A    
C29   H1    S    
C43   H39   S    
C47   H50   S    
Cu1   O1    S    
C8    H13   S    
C22   O11   S    
C5    C10   A    
O16   C48   S    
C41   H36   S    
C11   C13   A    
C30   C31   A    
C20   C26   S    
C18   O10   S    
C24   N2    A    
C37   C38   S    
C6    H2    S    
C18   H4    S    
C44   H41   S    
C48   H52   S    
C49   H54   S    
C19   H6    S    
Cu2   O6    S    
C43   C44   S    
Cu2   N1    S    
C40   H32   S    
Cu2   O4    S    
O12   H29   S    
C14   C15   A    
C2    C28   A    
C13   C14   A    
C50   H55   S    
C47   H49   S    
