data_mof_unit_30863.cif
_audit_creation_date              2012-12-10T17:15:08-0500
_audit_creation_method            fapswitch 2.2
_symmetry_space_group_name_H-M    P1
_symmetry_Int_Tables_number       1
_space_group_crystal_system       triclinic
_cell_length_a                    10.093359
_cell_length_b                    10.825227
_cell_length_c                    12.900326
_cell_angle_alpha                 91.876687
_cell_angle_beta                  91.505265
_cell_angle_gamma                 95.049177
_cell_volume                      1402.70264263

loop_
_atom_site_label
_atom_site_type_symbol
_atom_type_description
_atom_site_fract_x
_atom_site_fract_y
_atom_site_fract_z
_atom_type_partial_charge
C1    C     C_R   0.444389 0.267422 0.495916 0.940708
C2    C     C_R   0.654426 0.422823 0.038742 0.370522
C3    C     C_R   0.350293 0.561058 0.853638 0.552757
C4    C     C_R   0.647277 0.433899 0.146353 0.541853
C5    C     C_R   0.552504 0.456202 0.870026 -0.196931
C6    C     C_R   0.445296 0.538995 0.129601 -0.193466
C7    C     C_R   0.551339 0.467297 0.976902 -0.093368
C8    C     C_R   0.445033 0.525387 0.022891 -0.097096
C9    C     C_2   0.411351 0.135862 0.502746 -0.332848
C10   C     C_2   0.584043 0.864830 0.524392 -0.332736
C11   C     C_2   0.506651 0.066861 0.534120 -0.128211
C12   C     C_R   0.554656 0.732725 0.509709 0.935503
C13   C     C_2   0.482284 0.934781 0.530979 -0.116006
C14   C     C_2   0.071372 0.490422 0.508553 -0.056880
C15   C     C_2   0.928631 0.509569 0.491443 -0.058636
C16   C     C_R   0.473801 0.503597 0.698674 0.947796
C17   C     C_R   0.526066 0.496020 0.301302 0.957315
C18   C     C_R   0.542213 0.490841 0.190700 -0.287725
C19   C     C_R   0.456571 0.506170 0.809144 -0.288797
C20   C     C_R   0.341342 0.568891 0.961172 0.373907
F1    F     F_    0.740036 0.386767 0.208167 -0.600009
F2    F     F_    0.258409 0.610004 0.792181 -0.595585
H1    H     H_    0.369344 0.586929 0.167040 0.251314
H2    H     H_    0.132080 0.611935 0.404331 0.179642
H3    H     H_    0.057586 0.575248 0.130894 0.394905
H4    H     H_    0.810704 0.201444 0.873643 0.385806
H5    H     H_    0.629622 0.410257 0.832266 0.251163
H6    H     H_    0.379291 0.895155 0.526755 0.199149
H7    H     H_    0.606710 0.106921 0.555525 0.194339
H8    H     H_    0.686772 0.904928 0.528395 0.162142
H9    H     H_    0.311613 0.095321 0.481219 0.164636
H10   H     H_    0.899797 0.575226 0.435054 0.167876
H11   H     H_    0.100213 0.424773 0.564947 0.172762
H12   H     H_    0.867907 0.388017 0.595632 0.181983
N1    N     N_2   0.162330 0.550370 0.457540 -0.186942
N2    N     N_2   0.837670 0.449630 0.542460 -0.184381
O1    O     O_R   0.567930 0.307680 0.508550 -0.609507
O2    O     O_2   0.097599 0.656368 0.934835 -0.156731
O3    O     O_3   0.131252 0.532726 0.100584 -0.517301
O4    O     O_2   0.863205 0.444289 0.914067 -0.271232
O5    O     O_2   0.888538 0.316908 0.065146 -0.161223
O6    O     O_3   0.733541 0.225939 0.912869 -0.560064
O7    O     O_R   0.432070 0.692320 0.491450 -0.610613
O8    O     O_R   0.351090 0.340020 0.481290 -0.614889
O9    O     O_R   0.648910 0.659980 0.518710 -0.615983
O10   O     O_R   0.590490 0.486480 0.665020 -0.620946
O11   O     O_R   0.409510 0.513520 0.334980 -0.614863
O12   O     O_R   0.373660 0.518820 0.637760 -0.556799
O13   O     O_R   0.626340 0.481180 0.362240 -0.555338
O14   O     O_2   0.246440 0.752993 0.073013 -0.305490
S1    S     S_3+6 0.200764 0.632675 0.016216 0.089671
S2    S     S_3+6 0.791680 0.353443 0.983639 0.079660
Zn1   Zn    Zn3+2 0.644780 0.478400 0.518200 1.011545
Zn2   Zn    Zn3+2 0.355220 0.521600 0.481800 1.013642

loop_
_geom_bond_atom_site_label_1
_geom_bond_atom_site_label_2
_ccdc_geom_bond_type
C2    C4    A    
C13   H6    S    
C3    C19   A    
C5    C19   A    
N2    Zn1   S    
C12   O7    A    
C9    C11   D    
C10   H8    S    
O5    S2    D    
O3    S1    S    
C2    C7    A    
C1    O1    A    
C1    O8    A    
O1    Zn1   S    
C16   O12   A    
C14   H11   S    
C17   C18   S    
C4    C18   A    
C15   H10   S    
C3    C20   A    
H3    O3    S    
N1    Zn2   S    
O12   Zn2   S    
C4    F1    S    
C11   C13   S    
C5    H5    S    
C11   H7    S    
C8    C20   A    
C2    S2    S    
O11   Zn2   S    
O13   Zn1   S    
C6    H1    S    
C10   C12   S    
O10   Zn1   S    
O14   S1    D    
C20   S1    S    
H12   N2    S    
C16   C19   S    
C6    C18   A    
H2    N1    S    
C9    H9    S    
C17   O13   A    
O8    Zn2   S    
C15   N2    D    
C7    C8    A    
C1    C9    S    
H4    O6    S    
C16   O10   A    
C14   N1    D    
C5    C7    A    
C14   C15   S    
C3    F2    S    
C6    C8    A    
O2    S1    D    
O7    Zn2   S    
O4    S2    D    
O9    Zn1   S    
C17   O11   A    
O6    S2    S    
C12   O9    A    
C10   C13   D    
