data_mof_unit_18698.cif
_audit_creation_date              2013-03-05T16:02:01-0500
_audit_creation_method            fapswitch 2.2
_symmetry_space_group_name_H-M    P1
_symmetry_Int_Tables_number       1
_space_group_crystal_system       triclinic
_cell_length_a                    6.938594
_cell_length_b                    17.536467
_cell_length_c                    19.440669
_cell_angle_alpha                 108.583971
_cell_angle_beta                  89.602036
_cell_angle_gamma                 90.565883
_cell_volume                      2242.0392643

loop_
_atom_site_label
_atom_site_type_symbol
_atom_site_description
_atom_site_fract_x
_atom_site_fract_y
_atom_site_fract_z
_atom_type_partial_charge
O1    O     O_R   0.494330 0.415720 0.413720 -0.589082
O2    O     O_R   0.819330 0.430070 0.560210 -0.599989
O3    O     O_R   0.994320 0.584280 0.586280 -0.590717
C1    C     C_R   0.650241 0.415383 0.582157 0.945003
O4    O     O_R   0.823730 0.406300 0.412670 -0.592480
O5    O     O_R   0.998760 0.560340 0.437690 -0.593354
C2    C     C_R   0.654959 0.383508 0.385016 0.947600
O6    O     O_R   0.489890 0.439660 0.562310 -0.604496
O7    O     O_3   0.662340 0.550560 0.508380 -0.270446
V1    V     V_3+5 0.935370 0.490620 0.498450 1.159634
O8    O     O_R   0.328750 0.569930 0.439790 -0.594171
C3    C     C_R   0.160784 0.584994 0.418187 0.938692
O9    O     O_R   0.324340 0.593700 0.587330 -0.591075
C4    C     C_R   0.155479 0.616534 0.614949 0.942164
V2    V     V_3+5 0.435940 0.509380 0.501550 1.161822
O10   O     O_3   0.159100 0.449440 0.491620 -0.276419
H1    H     H_    0.888209 0.853844 0.569155 0.110283
C5    C     C_R   0.283057 0.600666 0.751147 -0.178258
C6    C     C_R   0.343693 0.590778 0.815929 -0.112517
C7    C     C_R   0.331252 0.654220 0.880505 -0.098815
C8    C     C_R   0.258053 0.728030 0.880799 -0.155818
C9    C     C_R   0.196661 0.740149 0.815779 0.119480
C10   C     C_R   0.209463 0.675130 0.749568 0.120222
C11   C     C_R   0.119976 0.814993 0.816197 -0.316063
C12   C     C_R   0.056131 0.824805 0.750373 0.119048
C13   C     C_R   0.068942 0.759788 0.684162 0.120798
C14   C     C_R   0.145589 0.684939 0.683745 -0.316028
C15   C     C_R   0.982540 0.899270 0.748792 -0.174646
C16   C     C_R   0.921923 0.909159 0.684010 -0.115599
C17   C     C_R   0.934383 0.845719 0.619433 -0.113566
C18   C     C_R   0.007576 0.771910 0.619140 -0.154046
H2    H     H_    0.293459 0.549079 0.702615 0.117960
H3    H     H_    0.399593 0.533383 0.816040 0.124032
H4    H     H_    0.377448 0.646097 0.930782 0.126719
H5    H     H_    0.248801 0.775045 0.932646 0.103246
H6    H     H_    0.972131 0.950857 0.797324 0.116689
H7    H     H_    0.866027 0.966554 0.683898 0.117933
H8    H     H_    0.016851 0.724898 0.567293 0.099251
C19   C     C_R   0.298353 0.626230 0.315935 -0.168369
C20   C     C_R   0.154260 0.634319 0.368895 -0.182808
C21   C     C_R   0.003418 0.688488 0.373887 -0.171608
C22   C     C_R   0.995813 0.734557 0.326727 0.233887
C23   C     C_R   0.142560 0.727165 0.274130 -0.000635
C24   C     C_R   0.296928 0.672986 0.268646 -0.037735
C25   C     C_R   0.841109 0.786752 0.330392 -0.184257
C26   C     C_R   0.829886 0.831006 0.282157 -0.233163
C27   C     C_R   0.974558 0.824801 0.229970 0.175850
C28   C     C_R   0.132088 0.773049 0.226139 0.039429
C29   C     C_R   0.277988 0.766800 0.173948 0.102791
C30   C     C_R   0.429863 0.713173 0.168464 -0.329876
C31   C     C_R   0.440822 0.665560 0.214417 0.357025
C32   C     C_R   0.964396 0.869555 0.181622 -0.247418
C33   C     C_R   0.112268 0.865110 0.130673 -0.152125
C34   C     C_R   0.268990 0.813776 0.127414 -0.219586
H9    H     H_    0.407271 0.581328 0.311213 0.179936
H10   H     H_    0.891263 0.694484 0.414366 0.123206
H11   H     H_    0.726981 0.792484 0.370020 0.127625
H12   H     H_    0.707790 0.870166 0.285698 0.135093
H13   H     H_    0.843478 0.909242 0.184694 0.133200
H14   H     H_    0.382403 0.809359 0.087695 0.135156
H15   H     H_    0.541415 0.708135 0.127959 0.180395
C35   C     C_R   0.784156 0.181789 0.866329 -0.268310
C36   C     C_R   0.622800 0.133171 0.867898 -0.142534
C37   C     C_R   0.466252 0.131244 0.821602 -0.246258
C38   C     C_R   0.469997 0.176907 0.774040 0.147013
C39   C     C_R   0.630772 0.226597 0.773624 0.026909
C40   C     C_R   0.788062 0.229285 0.820145 0.153005
C41   C     C_R   0.315616 0.173822 0.726902 -0.213395
C42   C     C_R   0.319004 0.220484 0.680381 -0.218583
C43   C     C_R   0.476894 0.271013 0.680111 0.157239
C44   C     C_R   0.634178 0.273710 0.726636 0.026776
C45   C     C_R   0.794966 0.323390 0.726209 0.142275
C46   C     C_R   0.949327 0.326488 0.773360 -0.204289
C47   C     C_R   0.945933 0.279829 0.819886 -0.205666
C48   C     C_R   0.480841 0.318469 0.633896 -0.274939
C49   C     C_R   0.642238 0.367050 0.632291 -0.142322
C50   C     C_R   0.798759 0.369010 0.678608 -0.244914
H16   H     H_    0.904798 0.183880 0.902060 0.139233
H17   H     H_    0.341973 0.093385 0.822007 0.135482
H18   H     H_    0.191383 0.135687 0.726359 0.139187
H19   H     H_    0.197427 0.217368 0.644869 0.140467
H20   H     H_    0.360212 0.316360 0.598154 0.138936
H21   H     H_    0.923060 0.406848 0.678178 0.135987
H22   H     H_    0.073563 0.364622 0.773901 0.141256
H23   H     H_    0.067508 0.282947 0.855399 0.143854
H24   H     H_    0.350209 0.149288 0.428739 0.113786
C51   C     C_R   0.802674 0.397714 0.249922 -0.167677
C52   C     C_R   0.873980 0.406656 0.185742 -0.023128
C53   C     C_R   0.861325 0.343288 0.121139 -0.115780
C54   C     C_R   0.777770 0.270409 0.120249 -0.165495
C55   C     C_R   0.706364 0.259065 0.184748 0.123570
C56   C     C_R   0.718878 0.324094 0.250964 0.097800
C57   C     C_R   0.619990 0.185048 0.183769 -0.314071
C58   C     C_R   0.545992 0.176088 0.249019 0.119725
C59   C     C_R   0.558339 0.241136 0.315223 0.120136
C60   C     C_R   0.644683 0.315157 0.316204 -0.312955
C61   C     C_R   0.462804 0.102378 0.250095 -0.174800
C62   C     C_R   0.392015 0.093337 0.314303 -0.120096
C63   C     C_R   0.404103 0.156791 0.378874 -0.111072
C64   C     C_R   0.487018 0.229770 0.379726 -0.155990
H25   H     H_    0.813092 0.449394 0.298381 0.142962
H26   H     H_    0.938244 0.463292 0.186087 0.170004
H27   H     H_    0.915449 0.350760 0.071292 0.130668
H28   H     H_    0.768620 0.223531 0.068321 0.110681
H29   H     H_    0.452677 0.050664 0.201652 0.119880
H30   H     H_    0.328667 0.036549 0.313992 0.117837
H31   H     H_    0.495920 0.276676 0.431644 0.105258
O11   O     O_R   0.775200 0.060470 0.937800 -0.604392
O12   O     O_R   0.441110 0.093720 0.087350 -0.589345
O13   O     O_R   0.266330 0.939630 0.062280 -0.604411
C65   C     C_R   0.609847 0.116652 0.114982 0.943764
O14   O     O_R   0.445750 0.069950 0.939820 -0.598461
O15   O     O_R   0.271000 0.915700 0.913700 -0.590350
C66   C     C_R   0.614842 0.084743 0.917954 0.947361
O16   O     O_R   0.770530 0.084400 0.086380 -0.591180
O17   O     O_3   0.602830 0.949510 0.991680 -0.273298
V3    V     V_3+5 0.329710 0.009370 0.001550 1.154806
O18   O     O_R   0.940990 0.906170 0.912570 -0.590060
C67   C     C_R   0.109922 0.883384 0.884999 0.944040
O19   O     O_R   0.936350 0.929940 0.060100 -0.594636
C68   C     C_R   0.104417 0.914737 0.081620 0.943015
V4    V     V_3+5 0.829160 0.990450 0.998310 1.155950
O20   O     O_3   0.105910 0.050480 0.008320 -0.274017
N1    N     N_R   0.596544 0.609248 0.203500 0.230938
O21   O     O_R   0.657084 0.571667 0.138040 -0.416662
O22   O     O_R   0.697493 0.604573 0.258071 -0.459721

loop_
_geom_bond_atom_site_label_1
_geom_bond_atom_site_label_2
_geom_bond_distance
_ccdc_geom_bond_type
C41   H18   1.083809 S    
C51   C52   1.393105 A    
C48   C49   1.406587 A    
C57   C58   1.419099 A    
H1    C17   1.082752 S    
C21   C22   1.403440 A    
C59   C60   1.418902 A    
C1    O6    1.299246 A    
O14   C66   1.296874 A    
C61   C62   1.393048 A    
O12   V3    1.997610 S    
C34   H14   1.084504 S    
C33   C34   1.406756 A    
O19   C68   1.300002 A    
C12   C15   1.416284 A    
C2    C60   1.486277 S    
C25   H11   1.083713 S    
C13   C14   1.418705 A    
C35   C36   1.406613 A    
O17   V4    1.708745 S    
C35   C40   1.405867 A    
C8    C9    1.415948 A    
C15   C16   1.393248 A    
O12   C65   1.297228 A    
O13   C68   1.297348 A    
O5    C3    1.297497 A    
C17   C18   1.393402 A    
C50   H21   1.084595 S    
C29   C34   1.406316 A    
C62   C63   1.389371 A    
C56   C60   1.419226 A    
O17   V3    2.153114 S    
C5    C6    1.393260 A    
C46   C47   1.399723 A    
O11   C66   1.299252 A    
O18   C67   1.298041 A    
C45   C50   1.402925 A    
C51   H25   1.081454 S    
C36   C66   1.482007 S    
O8    V2    1.990686 S    
C19   H9    1.079031 S    
C63   C64   1.393269 A    
C41   C42   1.399684 A    
C11   C67   1.486676 S    
C43   C44   1.413064 A    
O1    V2    1.998325 S    
C10   C14   1.418861 A    
C4    C14   1.486678 S    
C23   C28   1.415556 A    
C46   H22   1.083808 S    
C61   H29   1.081463 S    
C52   C53   1.389246 A    
C39   C40   1.413070 A    
C13   C18   1.415941 A    
O16   V4    2.004227 S    
O15   C67   1.294698 A    
O9    C4    1.298033 A    
C53   H27   1.082675 S    
C31   N1    1.439447 S    
C42   C43   1.403248 A    
O13   V3    1.996368 S    
O19   V4    1.990628 S    
C5    C10   1.416279 A    
C11   C12   1.418847 A    
C6    H3    1.082865 S    
C53   C54   1.393271 A    
C19   C20   1.405404 A    
O4    C2    1.297161 A    
C59   C64   1.416264 A    
C58   C61   1.416611 A    
C12   C13   1.424681 A    
C25   C26   1.397761 A    
C22   C25   1.404249 A    
C3    C20   1.482641 S    
O2    C1    1.296914 A    
C23   C24   1.419597 A    
C21   H10   1.084570 S    
C16   C17   1.389739 A    
C32   H13   1.084531 S    
C55   C57   1.418929 A    
C65   O16   1.294412 A    
C27   C28   1.413952 A    
C38   C41   1.403943 A    
C30   C31   1.406631 A    
C40   C47   1.403266 A    
C49   C50   1.408745 A    
H24   C63   1.082681 S    
C54   H28   1.081607 S    
C27   C32   1.405910 A    
O3    C4    1.294682 A    
C39   C44   1.413492 A    
C57   C65   1.486323 S    
O15   V3    1.997330 S    
C24   C31   1.423271 A    
C28   C29   1.408311 A    
C38   C39   1.410322 A    
O6    V2    1.991470 S    
O9    V2    2.000004 S    
C37   H17   1.084596 S    
C9    C11   1.418723 A    
C5    H2    1.081716 S    
C22   C23   1.415190 A    
O2    V1    1.999905 S    
C55   C56   1.424442 A    
C32   C33   1.406455 A    
N1    O22   1.299898 A    
O7    V1    2.153134 S    
C26   C27   1.402292 A    
C20   C21   1.402391 A    
C64   H31   1.081594 S    
O1    C2    1.294436 A    
C35   H16   1.084354 S    
O11   V4    1.991887 S    
C45   C46   1.403961 A    
O5    V1    1.996561 S    
C52   H26   1.082744 S    
O8    C3    1.299242 A    
C48   H20   1.084356 S    
C19   C24   1.413630 A    
C8    H5    1.081787 S    
C62   H30   1.082843 S    
C18   H8    1.081780 S    
C37   C38   1.402867 A    
C6    C7    1.389745 A    
V3    O20   1.705057 S    
C7    H4    1.082765 S    
O4    V1    1.997770 S    
O3    V1    1.997339 S    
C33   C68   1.483378 S    
C54   C55   1.416242 A    
O14   V3    1.999838 S    
O18   V4    1.999829 S    
C47   H23   1.083675 S    
O7    V2    1.710621 S    
C58   C59   1.424386 A    
C1    C49   1.481986 S    
C42   H19   1.083674 S    
C36   C37   1.408733 A    
C44   C45   1.410329 A    
C7    C8    1.393422 A    
C15   H6    1.081720 S    
C29   C30   1.400136 A    
C16   H7    1.082862 S    
C43   C48   1.405813 A    
C30   H15   1.084226 S    
C9    C10   1.424701 A    
V1    O10   1.705038 S    
V4    O20   2.160590 S    
C51   C56   1.416653 A    
C26   H12   1.083776 S    
V2    O10   2.160524 S    
N1    O21   1.301436 A    
