data_mof_unit_33504.cif
_audit_creation_date              2012-12-10T20:40:00-0500
_audit_creation_method            fapswitch 2.2
_symmetry_space_group_name_H-M    P1
_symmetry_Int_Tables_number       1
_space_group_crystal_system       triclinic
_cell_length_a                    22.987986
_cell_length_b                    10.68122
_cell_length_c                    10.026081
_cell_angle_alpha                 89.725005
_cell_angle_beta                  91.790184
_cell_angle_gamma                 88.993195
_cell_volume                      2460.18462833

loop_
_atom_site_label
_atom_site_type_symbol
_atom_type_description
_atom_site_fract_x
_atom_site_fract_y
_atom_site_fract_z
_atom_type_partial_charge
C1    C     C_R   0.503839 0.260528 0.500629 0.901853
C2    C     C_R   0.123769 0.662408 0.630387 0.605085
C3    C     C_R   0.239721 0.641766 0.507888 0.553712
C4    C     C_R   0.389448 0.501429 0.498025 0.985397
C5    C     C_R   0.299409 0.630809 0.487491 0.068858
C6    C     C_R   0.326612 0.512240 0.494833 -0.193310
C7    C     C_R   0.293161 0.405271 0.507135 0.107513
C8    C     C_R   0.235186 0.418588 0.541149 -0.226891
C9    C     C_R   0.209966 0.538397 0.562920 0.038891
C10   C     C_R   0.768750 0.441996 0.450884 -0.144641
C11   C     C_R   0.708501 0.438088 0.435034 -0.232557
C12   C     C_R   0.975753 0.334173 0.718220 0.479435
C13   C     C_R   0.673418 0.518294 0.509292 -0.148387
C14   C     C_R   0.698863 0.606619 0.596389 0.069576
C15   C     C_R   0.759146 0.605178 0.618012 0.546278
C16   C     C_R   0.500744 0.739673 0.499647 0.912156
C17   C     C_R   0.794130 0.524360 0.542964 0.135916
C18   C     C_R   0.523008 0.061520 0.620518 0.088110
C19   C     C_R   0.515882 0.128850 0.501253 -0.089662
C20   C     C_R   0.519915 0.064713 0.379653 -0.175883
C21   C     C_R   0.516559 0.935448 0.378531 -0.178006
C22   C     C_R   0.508709 0.871386 0.498903 -0.050557
C23   C     C_R   0.036824 0.337373 0.733336 0.134449
C24   C     C_R   0.515420 0.935473 0.618414 0.066564
C25   C     C_3   0.484752 0.932622 0.747439 0.299306
C26   C     C_3   0.496637 0.072655 0.754728 -0.151087
C27   C     C_R   0.450316 0.525404 0.066640 -0.011776
C28   C     C_R   0.610621 0.504669 0.502015 0.912210
C29   C     C_R   0.549597 0.480061 0.077103 -0.155581
C30   C     C_R   0.549930 0.476933 0.935694 0.231905
C31   C     C_R   0.450471 0.528722 0.925437 0.004733
C32   C     C_3   0.390849 0.473184 0.909188 0.427752
C33   C     C_3   0.392971 0.457994 0.063337 0.472442
C34   C     C_R   0.067064 0.444015 0.688821 -0.164655
C35   C     C_R   0.884056 0.634683 0.530165 0.601907
C36   C     C_R   0.884767 0.426677 0.618847 0.531481
C37   C     C_R   0.944807 0.432635 0.650839 -0.176867
C38   C     C_R   0.974295 0.542240 0.616797 -0.078740
C39   C     C_R   0.943350 0.645487 0.560316 -0.044228
C40   C     C_3   0.928924 0.257150 0.895754 -0.150457
C41   C     C_3   0.791803 0.629274 0.831867 -0.231616
C42   C     C_3   0.397899 0.914497 0.852216 -0.187384
C43   C     C_3   0.336671 0.302730 0.838580 -0.161684
C44   C     C_3   0.442566 0.256845 0.082197 -0.173619
C45   C     C_R   0.034849 0.548987 0.638061 -0.077974
C46   C     C_3   0.184248 0.732217 0.342192 -0.193303
C47   C     C_R   0.063423 0.662324 0.611704 -0.097416
C48   C     C_R   0.031300 0.767917 0.563109 0.197324
C49   C     C_R   0.971920 0.757595 0.535836 -0.167456
C50   C     C_R   0.128415 0.450699 0.687034 0.593349
H1    H     H_    0.689201 0.370884 0.367017 0.179965
H2    H     H_    0.905617 0.174823 0.933564 0.206774
H3    H     H_    0.898308 0.338980 0.897390 0.143405
H4    H     H_    0.966778 0.273489 0.964970 0.139394
H5    H     H_    0.821611 0.546373 0.827226 0.141404
H6    H     H_    0.749300 0.601600 0.872061 0.189438
H7    H     H_    0.811780 0.696445 0.902983 0.207764
H8    H     H_    0.403976 0.006655 0.901254 0.131967
H9    H     H_    0.414284 0.837948 0.919838 0.163638
H10   H     H_    0.350386 0.903398 0.835317 0.232236
H11   H     H_    0.304579 0.353014 0.772588 0.206329
H12   H     H_    0.521449 0.113351 0.285214 0.167863
H13   H     H_    0.319028 0.296171 0.940106 0.207569
H14   H     H_    0.341372 0.205779 0.800893 0.187654
H15   H     H_    0.477411 0.266992 0.158515 0.193312
H16   H     H_    0.461089 0.276624 0.984360 0.187163
H17   H     H_    0.429477 0.157466 0.082823 0.171359
H18   H     H_    0.149800 0.660628 0.347709 0.129636
H19   H     H_    0.216316 0.705351 0.266208 0.181903
H20   H     H_    0.163067 0.821318 0.308227 0.220746
H21   H     H_    0.516384 0.887637 0.283485 0.181792
H22   H     H_    0.507947 0.871473 0.823021 0.129551
H23   H     H_    0.457113 0.134188 0.754368 0.207272
H24   H     H_    0.589353 0.460865 0.134543 0.182838
H25   H     H_    0.948249 0.837824 0.493865 0.212818
H26   H     H_    0.210638 0.334024 0.550705 0.232859
H27   H     H_    0.795779 0.379947 0.393113 0.182422
I1    I     I_    0.649270 0.750255 0.690369 -0.255709
I2    I     I_    0.561531 0.106419 0.907278 -0.382279
I3    I     I_    0.077880 0.173656 0.821911 -0.129405
I4    I     I_    0.632769 0.419239 0.868942 -0.294818
I5    I     I_    0.332805 0.616890 0.822452 -0.315175
I6    I     I_    0.324119 0.558648 0.157735 -0.312682
I7    I     I_    0.067938 0.940988 0.505610 -0.190423
I8    I     I_    0.346397 0.796688 0.448091 -0.163481
I9    I     I_    0.328927 0.222428 0.481178 -0.223570
N1    N     N_R   0.856025 0.527211 0.561024 -0.347751
N2    N     N_R   0.153842 0.551136 0.627488 -0.326917
N3    N     N_R   0.499610 0.499140 0.142800 -0.115326
N4    N     N_R   0.499610 0.499180 0.857150 -0.102482
O1    O     O_R   0.500010 0.316790 0.614690 -0.580479
O2    O     O_R   0.583850 0.500060 0.614640 -0.576880
O3    O     O_R   0.583840 0.500020 0.385300 -0.633824
O4    O     O_2   0.854347 0.730821 0.470386 -0.517058
O5    O     O_3   0.946898 0.231089 0.765183 -0.535492
O6    O     O_3   0.784425 0.688686 0.706406 -0.562537
O7    O     O_3   0.424935 0.908425 0.727930 -0.567607
O8    O     O_3   0.391587 0.360007 0.836233 -0.604208
O9    O     O_3   0.393743 0.332342 0.113779 -0.572050
O10   O     O_3   0.211737 0.751702 0.467970 -0.535976
O11   O     O_2   0.855023 0.322150 0.645348 -0.487158
O12   O     O_2   0.162301 0.362439 0.747862 -0.526033
O13   O     O_2   0.151090 0.768539 0.664239 -0.430509
O14   O     O_R   0.500000 0.316760 0.385350 -0.629947
O15   O     O_R   0.416160 0.499980 0.614700 -0.557135
O16   O     O_R   0.416150 0.499940 0.385360 -0.569224
O17   O     O_R   0.500000 0.683240 0.614650 -0.598858
O18   O     O_R   0.499990 0.683210 0.385310 -0.622225
Zn1   Zn    Zn3+2 0.500000 0.500020 0.653130 1.052210
Zn2   Zn    Zn3+2 0.500000 0.499980 0.346870 0.993471

loop_
_geom_bond_atom_site_label_1
_geom_bond_atom_site_label_2
_ccdc_geom_bond_type
C44   H16   S    
C19   C20   A    
C18   C26   S    
C43   O8    S    
C30   N4    A    
C42   H8    S    
C29   N3    A    
C43   H13   S    
C7    C8    A    
C27   C33   S    
C12   C23   A    
C37   C38   A    
C21   H21   S    
C18   C24   A    
C36   C37   A    
C9    N2    S    
C5    C6    A    
C44   O9    S    
O2    Zn1   S    
C7    I9    S    
C10   C17   A    
C8    H26   S    
C26   H23   S    
C18   C19   A    
C12   C37   A    
C41   H5    S    
C38   C45   A    
C46   O10   S    
C16   O17   A    
C35   N1    A    
C3    O10   S    
C31   C32   S    
O18   Zn2   S    
C8    C9    A    
C46   H19   S    
C49   H25   S    
C13   C28   S    
C2    N2    A    
C23   I3    S    
C50   N2    A    
O3    Zn2   S    
C5    I8    S    
C31   N4    A    
C1    O1    A    
C13   C14   A    
O17   Zn1   S    
C44   H15   S    
C10   H27   S    
C43   H14   S    
C45   C47   A    
C36   N1    A    
C34   C50   A    
C1    C19   S    
C27   C31   A    
C24   C25   S    
C28   O2    A    
C42   O7    S    
C42   H10   S    
C15   O6    S    
C34   C45   A    
C29   H24   S    
C25   C26   S    
C40   H2    S    
C4    O16   A    
N3    Zn2   S    
C48   I7    S    
C28   O3    A    
C33   O9    S    
C35   C39   A    
C41   H6    S    
C46   H18   S    
C29   C30   A    
C3    C9    A    
C47   C48   A    
C23   C34   A    
C12   O5    S    
C25   H22   S    
C33   I6    S    
C1    O14   A    
C25   O7    S    
C48   C49   A    
C39   C49   A    
C50   O12   S    
C40   H4    S    
C22   C24   A    
C4    C6    S    
C40   O5    S    
C43   H11   S    
O16   Zn2   S    
C35   O4    S    
C15   C17   A    
O15   Zn1   S    
C16   C22   S    
C17   N1    S    
C3    C5    A    
C42   H9    S    
C6    C7    A    
C2    C47   A    
C32   I5    S    
C4    O15   A    
C26   I2    S    
C32   C33   S    
O1    Zn1   S    
C30   I4    S    
C41   H7    S    
O14   Zn2   S    
C11   C13   A    
C38   C39   A    
C2    O13   S    
C32   O8    S    
C27   N3    A    
C14   I1    S    
C20   H12   S    
C46   H20   S    
C11   H1    S    
C10   C11   A    
C16   O18   A    
C41   O6    S    
C20   C21   A    
C40   H3    S    
C14   C15   A    
C36   O11   S    
C44   H17   S    
N4    Zn1   S    
C21   C22   A    
