data_mof_unit_29213.cif
_audit_creation_date              2012-12-11T14:30:04-0500
_audit_creation_method            fapswitch 2.2
_symmetry_space_group_name_H-M    P1
_symmetry_Int_Tables_number       1
_space_group_crystal_system       triclinic
_cell_length_a                    12.7952
_cell_length_b                    12.763486
_cell_length_c                    27.067314
_cell_angle_alpha                 90.004617
_cell_angle_beta                  89.947132
_cell_angle_gamma                 120.037091
_cell_volume                      3826.74488477

loop_
_atom_site_label
_atom_site_type_symbol
_atom_type_description
_atom_site_fract_x
_atom_site_fract_y
_atom_site_fract_z
_atom_type_partial_charge
C1    C     C_R   0.560392 0.454298 0.822869 0.538589
C2    C     C_R   0.894703 0.440485 0.677401 0.535779
C3    C     C_R   0.545506 0.105329 0.822620 0.536705
C4    C     C_R   0.560483 0.454232 0.677092 0.537914
C5    C     C_R   0.894734 0.440451 0.822585 0.536696
C6    C     C_R   0.545758 0.105475 0.677373 0.537039
C7    C     C_R   0.456627 0.559171 0.322113 0.534164
C8    C     C_R   0.439703 0.895602 0.177461 0.534031
C9    C     C_R   0.101899 0.542935 0.322108 0.536925
C10   C     C_R   0.456601 0.559474 0.177810 0.533979
C11   C     C_R   0.439525 0.895441 0.322580 0.533756
C12   C     C_R   0.102009 0.542962 0.177875 0.537043
C13   C     C_R   0.978839 0.485124 0.975246 0.036118
C14   C     C_R   0.505644 0.026941 0.524317 0.031241
C15   C     C_R   0.526869 0.493627 0.976685 0.034484
C16   C     C_R   0.977557 0.484590 0.524630 0.030596
C17   C     C_R   0.505410 0.026026 0.975684 0.030997
C18   C     C_R   0.524976 0.492738 0.523312 0.033947
C19   C     C_R   0.492376 0.008107 0.473147 0.028901
C20   C     C_R   0.996947 0.490996 0.026552 0.032218
C21   C     C_R   0.519920 0.504759 0.471996 0.028841
C22   C     C_R   0.492901 0.007958 0.026902 0.028921
C23   C     C_R   0.995900 0.490679 0.473342 0.031634
C24   C     C_R   0.521254 0.506043 0.027940 0.028771
C25   C     C_R   0.886623 0.611075 0.983735 -0.077505
C26   C     C_R   0.724023 0.131173 0.514481 -0.070306
C27   C     C_R   0.407241 0.274821 0.985803 -0.082288
C28   C     C_R   0.885356 0.610605 0.516223 -0.062557
C29   C     C_R   0.723872 0.125855 0.984740 -0.060152
C30   C     C_R   0.404873 0.273785 0.514477 -0.081021
C31   C     C_R   0.710611 0.112522 0.463487 -0.090710
C32   C     C_R   0.907616 0.619602 0.034519 -0.091000
C33   C     C_R   0.398640 0.285984 0.463455 -0.089226
C34   C     C_R   0.711027 0.106812 0.035717 -0.090169
C35   C     C_R   0.908076 0.620709 0.465534 -0.091359
C36   C     C_R   0.401568 0.287204 0.036823 -0.089538
C37   C     C_R   0.905271 0.540127 0.902759 -0.105789
C38   C     C_R   0.635288 0.101946 0.596370 -0.087565
C39   C     C_R   0.469371 0.364716 0.904189 -0.087936
C40   C     C_R   0.903664 0.539227 0.597162 -0.089402
C41   C     C_R   0.634238 0.098821 0.903257 -0.087589
C42   C     C_R   0.468138 0.364309 0.595974 -0.088817
C43   C     C_R   0.581052 0.010877 0.392769 -0.134966
C44   C     C_R   0.000082 0.583465 0.106131 -0.134678
C45   C     C_R   0.434476 0.415732 0.391546 -0.083914
C46   C     C_R   0.581666 0.008414 0.106912 -0.135902
C47   C     C_R   0.000270 0.584011 0.393864 -0.134715
C48   C     C_R   0.436402 0.416933 0.108505 -0.083481
C49   C     C_R   0.048250 0.517792 0.127938 -0.017232
C50   C     C_R   0.464743 0.942991 0.373276 -0.011620
C51   C     C_R   0.481103 0.533417 0.127580 -0.001609
C52   C     C_R   0.047740 0.517703 0.371994 -0.017529
C53   C     C_R   0.465451 0.943744 0.126868 -0.011973
C54   C     C_R   0.481188 0.532369 0.372221 -0.002959
C55   C     C_R   0.532944 0.060623 0.626698 -0.002711
C56   C     C_R   0.940929 0.473404 0.873007 -0.003959
C57   C     C_R   0.530768 0.467248 0.625960 -0.010017
C58   C     C_R   0.531866 0.060068 0.873290 -0.008466
C59   C     C_R   0.940487 0.473496 0.626913 -0.009509
C60   C     C_R   0.531100 0.467461 0.874034 -0.006032
C61   C     C_R   0.924699 0.547071 0.953729 0.040942
C62   C     C_R   0.622301 0.085490 0.545242 0.040482
C63   C     C_R   0.466920 0.377140 0.955420 0.050047
C64   C     C_R   0.922892 0.546049 0.546161 0.045949
C65   C     C_R   0.621740 0.082429 0.954376 0.045894
C66   C     C_R   0.465069 0.376353 0.544733 0.050455
C67   C     C_R   0.595423 0.044513 0.442841 0.030438
C68   C     C_R   0.967336 0.564599 0.056003 0.022261
C69   C     C_R   0.451989 0.401278 0.441957 0.051963
C70   C     C_R   0.595968 0.041688 0.056791 0.027278
C71   C     C_R   0.967178 0.565041 0.443977 0.019847
C72   C     C_R   0.454146 0.402565 0.058134 0.051760
C73   C     C_R   0.999132 0.416985 0.894150 -0.113518
C74   C     C_R   0.417999 0.999473 0.605936 -0.112583
C75   C     C_R   0.588021 0.582681 0.895250 -0.117767
C76   C     C_R   0.999658 0.418119 0.605772 -0.116266
C77   C     C_R   0.416951 0.001663 0.894463 -0.117306
C78   C     C_R   0.587544 0.582320 0.604590 -0.119698
C79   C     C_R   0.364120 0.915104 0.403153 -0.083407
C80   C     C_R   0.056339 0.429195 0.099943 -0.111057
C81   C     C_R   0.554927 0.632806 0.401896 -0.086196
C82   C     C_R   0.365207 0.918849 0.097410 -0.084534
C83   C     C_R   0.055039 0.428603 0.399919 -0.111891
C84   C     C_R   0.553223 0.634184 0.097681 -0.083585
C85   C     C_R   0.014198 0.417331 0.945409 -0.048287
C86   C     C_R   0.402535 0.986401 0.554613 -0.047992
C87   C     C_R   0.590197 0.597533 0.946628 -0.048807
C88   C     C_R   0.013704 0.417489 0.554466 -0.049338
C89   C     C_R   0.401951 0.987656 0.945793 -0.047288
C90   C     C_R   0.588298 0.596957 0.553226 -0.048347
C91   C     C_R   0.376345 0.952537 0.452214 -0.036288
C92   C     C_R   0.042888 0.422470 0.048619 -0.045334
C93   C     C_R   0.580742 0.620457 0.450704 -0.038427
C94   C     C_R   0.377570 0.955821 0.048322 -0.036510
C95   C     C_R   0.041479 0.421837 0.451229 -0.045770
C96   C     C_R   0.580403 0.622050 0.048988 -0.036566
C97   C     C_R   0.073567 0.349221 0.019088 0.021126
C98   C     C_R   0.275051 0.933008 0.480936 0.010470
C99   C     C_R   0.661180 0.724248 0.020621 0.016328
C100  C     C_R   0.071841 0.348339 0.480709 0.021583
C101  C     C_R   0.276697 0.938567 0.020074 0.010871
C102  C     C_R   0.661216 0.722581 0.478992 0.016559
C103  C     C_R   0.287285 0.941583 0.533068 0.025198
C104  C     C_R   0.061270 0.349251 0.967196 0.026453
C105  C     C_R   0.658100 0.712224 0.531052 0.024181
C106  C     C_R   0.287570 0.946456 0.967901 0.026032
C107  C     C_R   0.060609 0.349230 0.532641 0.028469
C108  C     C_R   0.659609 0.712998 0.968559 0.023115
Cr1   Cr    Cr6+3 0.487630 0.241180 0.750000 1.042253
Cr2   Cr    Cr6+3 0.753550 0.512370 0.750000 1.037841
Cr3   Cr    Cr6+3 0.758820 0.246450 0.750000 1.051126
Cr4   Cr    Cr6+3 0.241180 0.487630 0.250000 1.057944
Cr5   Cr    Cr6+3 0.512370 0.753550 0.250000 1.054917
Cr6   Cr    Cr6+3 0.246450 0.758820 0.250000 1.059889
H1    H     H_    0.988030 0.648009 0.127854 0.142767
H2    H     H_    0.658980 0.034836 0.369590 0.126594
H3    H     H_    0.383323 0.338811 0.131818 0.148726
H4    H     H_    0.988971 0.649076 0.372192 0.144948
H5    H     H_    0.659456 0.030048 0.129749 0.128742
H6    H     H_    0.380360 0.337701 0.368380 0.149464
H7    H     H_    0.725049 0.152615 0.612120 0.155964
H8    H     H_    0.857452 0.581993 0.886714 0.142785
H9    H     H_    0.426680 0.274567 0.612142 0.156461
H10   H     H_    0.723929 0.147528 0.887239 0.156828
H11   H     H_    0.855551 0.580774 0.613259 0.146680
H12   H     H_    0.427967 0.274884 0.888137 0.146029
H13   H     H_    0.878185 0.670184 0.057007 0.156357
H14   H     H_    0.790380 0.147849 0.440406 0.113624
H15   H     H_    0.352200 0.206895 0.059346 0.153047
H16   H     H_    0.880213 0.672729 0.443176 0.159379
H17   H     H_    0.790989 0.140261 0.058500 0.115105
H18   H     H_    0.348598 0.205571 0.441071 0.151318
H19   H     H_    0.813832 0.179354 0.529983 0.153214
H20   H     H_    0.842366 0.656133 0.967772 0.165112
H21   H     H_    0.359900 0.184327 0.530517 0.157785
H22   H     H_    0.813537 0.172451 0.968926 0.159549
H23   H     H_    0.841333 0.655905 0.532289 0.162043
H24   H     H_    0.362438 0.185460 0.969836 0.145275
H25   H     H_    0.079052 0.369093 0.118641 0.198588
H26   H     H_    0.274388 0.856880 0.388643 0.184024
H27   H     H_    0.583035 0.724146 0.111828 0.181180
H28   H     H_    0.077597 0.368366 0.381212 0.198301
H29   H     H_    0.275266 0.862993 0.112213 0.183986
H30   H     H_    0.586702 0.722993 0.387573 0.180848
H31   H     H_    0.340967 0.968865 0.630275 0.162383
H32   H     H_    0.026644 0.367373 0.870149 0.168190
H33   H     H_    0.637135 0.659951 0.628398 0.165431
H34   H     H_    0.339836 0.974448 0.870554 0.165550
H35   H     H_    0.028788 0.370194 0.629904 0.172667
H36   H     H_    0.636136 0.660389 0.871276 0.160512
O1    O     O_R   0.460870 0.120930 0.805240 -0.516965
O2    O     O_R   0.660060 0.539130 0.694760 -0.515756
O3    O     O_R   0.879070 0.339940 0.805240 -0.511716
O4    O     O_R   0.460870 0.120930 0.694760 -0.513752
O5    O     O_R   0.660060 0.539130 0.805240 -0.514728
O6    O     O_R   0.879070 0.339940 0.694760 -0.510306
O7    O     O_R   0.120930 0.460870 0.305240 -0.513166
O8    O     O_R   0.539130 0.660060 0.194760 -0.505798
O9    O     O_R   0.339940 0.879070 0.305240 -0.500967
O10   O     O_R   0.120930 0.460870 0.194760 -0.513197
O11   O     O_R   0.539130 0.660060 0.305240 -0.506788
O12   O     O_R   0.339940 0.879070 0.194760 -0.502215
O13   O     O_R   0.498910 0.350470 0.801870 -0.496456
O14   O     O_R   0.851560 0.501090 0.698130 -0.498966
O15   O     O_R   0.649530 0.148440 0.801870 -0.494726
O16   O     O_R   0.498910 0.350470 0.698130 -0.495915
O17   O     O_R   0.851560 0.501090 0.801870 -0.500486
O18   O     O_R   0.649530 0.148440 0.698130 -0.493779
O19   O     O_R   0.350470 0.498910 0.301870 -0.485542
O20   O     O_R   0.501090 0.851560 0.198130 -0.498422
O21   O     O_R   0.148440 0.649530 0.301870 -0.496041
O22   O     O_R   0.350470 0.498910 0.198130 -0.485423
O23   O     O_R   0.501090 0.851560 0.301870 -0.498294
O24   O     O_R   0.148440 0.649530 0.198130 -0.496121
O25   O     O_3   0.666667 0.333333 0.750000 -0.261010
O26   O     O_3   0.333333 0.666667 0.250000 -0.259945
C109  C     C_2   0.120165 0.273487 0.041195 0.566432
O27   O     O_2   0.193769 0.312964 0.074578 -0.549049
O28   O     O_R   0.083217 0.158237 0.022488 -0.647830
H37   H     H_    0.123471 0.117786 0.039915 0.370249
C110  C     C_2   0.164767 0.922560 0.456434 0.537903
O29   O     O_2   0.170425 0.958362 0.414052 -0.542914
O30   O     O_R   0.057157 0.881448 0.482562 -0.637559
H38   H     H_    0.993389 0.887398 0.462734 0.373466
C111  C     C_2   0.755932 0.836257 0.045865 0.540074
O31   O     O_2   0.791448 0.829451 0.087067 -0.549779
O32   O     O_R   0.809797 0.948081 0.022135 -0.637564
H39   H     H_    0.872499 0.014590 0.043661 0.359792
C112  C     C_2   0.116490 0.271056 0.458471 0.568014
O33   O     O_2   0.190608 0.309844 0.425198 -0.549405
O34   O     O_R   0.076957 0.154993 0.476896 -0.654630
H40   H     H_    0.116024 0.113443 0.459315 0.367275
C113  C     C_2   0.166873 0.927160 0.045227 0.540994
O35   O     O_2   0.174930 0.968923 0.086659 -0.544835
O36   O     O_R   0.056315 0.876880 0.020790 -0.645132
H41   H     H_    0.993018 0.883832 0.040601 0.370366
C114  C     C_2   0.754713 0.835068 0.453726 0.548873
O37   O     O_2   0.795517 0.828128 0.413718 -0.548605
O38   O     O_R   0.800214 0.947915 0.476002 -0.644476
H42   H     H_    0.863750 0.014870 0.454830 0.359417
C115  C     C_2   0.183260 0.914296 0.565359 0.629634
O39   O     O_2   0.107921 0.809273 0.574258 -0.486073
O40   O     O_R   0.174639 0.009070 0.587000 -0.685541
H43   H     H_    0.102869 0.979083 0.610051 0.338550
C116  C     C_2   0.097494 0.277733 0.935553 0.625229
O41   O     O_2   0.203726 0.306314 0.932550 -0.491236
O42   O     O_R   0.009717 0.177880 0.909437 -0.677091
H44   H     H_    0.045626 0.137174 0.888938 0.356766
C117  C     C_2   0.733557 0.819420 0.562140 0.611573
O43   O     O_2   0.686445 0.866642 0.585651 -0.498801
O44   O     O_R   0.857957 0.865086 0.564770 -0.645052
H45   H     H_    0.899157 0.937178 0.587689 0.361815
C118  C     C_2   0.183453 0.923129 0.936363 0.620020
O45   O     O_2   0.153147 0.999717 0.932679 -0.472268
O46   O     O_R   0.122985 0.815089 0.909814 -0.684354
H46   H     H_    0.054784 0.810232 0.889062 0.347036
C119  C     C_2   0.097498 0.278297 0.564292 0.623709
O47   O     O_2   0.202958 0.303554 0.565197 -0.487981
O48   O     O_R   0.011421 0.183332 0.593109 -0.695356
H47   H     H_    0.048357 0.144843 0.614304 0.339900
C120  C     C_2   0.735655 0.819311 0.937067 0.624651
O49   O     O_2   0.700200 0.889018 0.925954 -0.477666
O50   O     O_R   0.846203 0.837704 0.919384 -0.685382
H48   H     H_    0.889119 0.912242 0.897731 0.363862

loop_
_geom_bond_atom_site_label_1
_geom_bond_atom_site_label_2
_ccdc_geom_bond_type
C44   C49   A    
O40   H43   S    
C82   C94   A    
C18   C21   A    
C115  O40   S    
C115  O39   D    
C5    C56   S    
C100  C112  S    
C6    C55   S    
O30   H38   S    
C50   C79   A    
C12   C49   S    
C97   C104  A    
C11   O9    A    
Cr4   O19   S    
C116  O41   D    
C78   C90   A    
C31   C67   A    
C99   C108  A    
C20   C92   A    
C77   C89   A    
C30   H21   S    
Cr3   O25   S    
C84   H27   S    
C32   H13   S    
Cr5   O23   S    
Cr1   O1    S    
C41   C58   A    
Cr2   O2    S    
C24   C96   A    
C111  O32   S    
C26   C31   A    
C10   C51   S    
C75   H36   S    
C10   O22   A    
C98   C103  A    
C14   C62   A    
C96   C99   A    
C41   H10   S    
C105  C117  S    
C102  C105  A    
C112  O34   S    
C84   C96   A    
C114  O38   S    
Cr2   O5    S    
C74   H31   S    
C58   C77   A    
C107  C119  S    
C55   C74   A    
C48   C51   A    
C38   C55   A    
O50   H48   S    
C94   C101  A    
C8    O20   A    
C109  O28   S    
C89   C106  A    
C42   H9    S    
C3    O15   A    
C19   C67   A    
Cr3   O15   S    
Cr5   O8    S    
Cr3   O6    S    
C34   C70   A    
C79   C91   A    
C13   C20   A    
C33   C69   A    
C32   C68   A    
C25   C32   A    
Cr6   O26   S    
C79   H26   S    
C35   C71   A    
O38   H42   S    
C37   C56   A    
C39   H12   S    
C22   C94   A    
C114  O37   D    
C9    C52   S    
C31   H14   S    
C48   C72   A    
C86   C103  A    
C25   C61   A    
C42   C57   A    
C81   H30   S    
C101  C113  S    
C92   C97   A    
O42   H44   S    
C44   H1    S    
Cr6   O21   S    
C4    O2    A    
C6    O18   A    
C11   O23   A    
C27   H24   S    
Cr4   O7    S    
C87   C108  A    
C45   C69   A    
O34   H40   S    
C18   C90   A    
C118  O45   D    
C23   C71   A    
C17   C89   A    
C14   C86   A    
Cr1   O13   S    
C110  O30   S    
C2    O14   A    
O48   H47   S    
C88   C107  A    
Cr2   O14   S    
C2    C59   S    
C14   C19   A    
C41   C65   A    
Cr6   O12   S    
C113  O36   S    
C119  O47   D    
C110  O29   D    
C29   C34   A    
C74   C86   A    
C76   C88   A    
O36   H41   S    
C21   C69   A    
C53   C82   A    
C47   H4    S    
C80   C92   A    
C52   C83   A    
O46   H46   S    
C103  C115  S    
C120  O49   D    
C25   H20   S    
C43   H2    S    
C81   C93   A    
Cr2   O17   S    
C97   C109  S    
O44   H45   S    
C77   H34   S    
C9    O7    A    
C102  C114  S    
C83   C95   A    
C117  O43   D    
Cr2   O25   S    
C104  C116  S    
C12   O10   A    
C7    O11   A    
Cr1   O4    S    
Cr3   O3    S    
C35   H16   S    
C47   C71   A    
C6    O4    A    
C85   C104  A    
C27   C63   A    
C78   H33   S    
Cr5   O26   S    
C29   C65   A    
C39   C60   A    
C30   C66   A    
C45   H6    S    
C75   C87   A    
C15   C24   A    
Cr4   O26   S    
C34   H17   S    
C109  O27   D    
C16   C23   A    
C11   C50   S    
C7    O19   A    
C44   C68   A    
C18   C66   A    
C13   C85   A    
C28   C64   A    
C99   C111  S    
C24   C72   A    
C12   O24   A    
C73   C85   A    
C101  C106  A    
C28   C35   A    
C106  C118  S    
C10   O8    A    
C33   H18   S    
C100  C107  A    
C2    O6    A    
C56   C73   A    
Cr4   O10   S    
C30   C33   A    
C95   C100  A    
C93   C102  A    
C3    O1    A    
C57   C78   A    
C20   C68   A    
C19   C91   A    
C42   C66   A    
C28   H23   S    
C90   C105  A    
C82   H29   S    
C1    O5    A    
C8    C53   S    
C45   C54   A    
C83   H28   S    
C37   C61   A    
Cr1   O25   S    
C43   C50   A    
Cr5   O20   S    
C48   H3    S    
C27   C36   A    
C119  O48   S    
C80   H25   S    
C39   C63   A    
C60   C75   A    
C17   C65   A    
C17   C22   A    
C40   C64   A    
C49   C80   A    
C73   H32   S    
C98   C110  S    
C26   C62   A    
C118  O46   S    
O32   H39   S    
C120  O50   S    
C26   H19   S    
C8    O12   A    
C36   H15   S    
C108  C120  S    
C111  O31   D    
Cr4   O22   S    
C21   C93   A    
C76   H35   S    
C5    O3    A    
C40   H11   S    
C59   C76   A    
C46   C53   A    
C117  O44   S    
C4    O16   A    
C46   H5    S    
C5    O17   A    
C91   C98   A    
C112  O33   D    
C1    C60   S    
Cr6   O9    S    
C46   C70   A    
C38   H7    S    
C9    O21   A    
Cr1   O16   S    
Cr5   O11   S    
C37   H8    S    
C3    C58   S    
Cr6   O24   S    
C29   H22   S    
C13   C61   A    
C1    O13   A    
C43   C67   A    
C113  O35   D    
C15   C87   A    
C47   C52   A    
C40   C59   A    
O28   H37   S    
C15   C63   A    
C23   C95   A    
Cr3   O18   S    
C16   C64   A    
C7    C54   S    
C116  O42   S    
C51   C84   A    
C22   C70   A    
C54   C81   A    
C16   C88   A    
C36   C72   A    
C4    C57   S    
C38   C62   A    
