data_mof_unit_24222.cif
_audit_creation_date              2012-12-11T15:08:38-0500
_audit_creation_method            fapswitch 2.2
_symmetry_space_group_name_H-M    P1
_symmetry_Int_Tables_number       1
_space_group_crystal_system       triclinic
_cell_length_a                    26.875513
_cell_length_b                    7.080591
_cell_length_c                    11.968206
_cell_angle_alpha                 89.999979
_cell_angle_beta                  103.537034
_cell_angle_gamma                 89.999982
_cell_volume                      2214.21278429

loop_
_atom_site_label
_atom_site_type_symbol
_atom_type_description
_atom_site_fract_x
_atom_site_fract_y
_atom_site_fract_z
_atom_type_partial_charge
O1    O     O_R   0.437360 0.505910 0.042120 -0.528126
O2    O     O_R   0.562640 0.005910 0.957880 -0.528125
O3    O     O_R   0.542480 0.176660 0.157100 -0.540560
O4    O     O_R   0.457520 0.676660 0.842900 -0.540560
C1    C     C_R   0.556662 0.344585 0.197765 0.754487
C2    C     C_R   0.443337 0.844585 0.802235 0.754488
O5    O     O_R   0.436520 0.176250 0.054800 -0.547983
O6    O     O_R   0.563480 0.676250 0.945200 -0.547983
O7    O     O_R   0.455920 0.005040 0.854840 -0.537733
O8    O     O_R   0.544080 0.505040 0.145160 -0.537734
C3    C     C_R   0.417717 0.344614 0.063895 0.820972
C4    C     C_R   0.582283 0.844614 0.936105 0.820973
O9    O     O_3   0.506490 0.338900 0.934520 -0.383960
O10   O     O_3   0.493510 0.838900 0.065480 -0.383960
V1    V     V_3+5 0.498800 0.064400 0.012150 1.527373
V2    V     V_3+5 0.501200 0.564400 0.987850 1.527373
C5    C     C_R   0.680000 0.818938 0.759134 0.704192
C6    C     C_R   0.319999 0.318939 0.240866 0.704193
H1    H     H_    0.598194 0.804010 0.723998 0.161847
H2    H     H_    0.401806 0.304011 0.276002 0.161847
H3    H     H_    0.773062 0.816592 0.720645 0.187098
H4    H     H_    0.226938 0.316594 0.279355 0.187098
C7    C     C_R   0.631508 0.850256 0.903862 -0.205803
C8    C     C_R   0.368491 0.350256 0.096137 -0.205802
C9    C     C_R   0.868478 0.865928 0.210050 -0.099814
C10   C     C_R   0.131522 0.365927 0.789949 -0.099815
C11   C     C_R   0.823248 0.857096 0.246261 -0.057346
C12   C     C_R   0.176752 0.357095 0.753739 -0.057346
C13   C     C_R   0.776485 0.848676 0.166454 -0.068813
C14   C     C_R   0.223514 0.348675 0.833545 -0.068814
C15   C     C_R   0.773325 0.854502 0.046484 0.035438
C16   C     C_R   0.226675 0.354502 0.953516 0.035438
C17   C     C_R   0.820306 0.853898 0.009539 -0.044088
C18   C     C_R   0.179694 0.353898 0.990461 -0.044088
C19   C     C_R   0.725432 0.853648 0.962139 -0.106517
C20   C     C_R   0.274568 0.353648 0.037861 -0.106517
C21   C     C_R   0.726009 0.833584 0.843900 -0.102308
C22   C     C_R   0.273991 0.333585 0.156100 -0.102308
C23   C     C_R   0.772365 0.829157 0.810543 -0.074597
C24   C     C_R   0.227635 0.329159 0.189457 -0.074598
C25   C     C_R   0.818641 0.843304 0.890718 0.561494
C26   C     C_R   0.181359 0.343305 0.109282 0.561493
C27   C     C_R   0.676750 0.873027 0.989088 0.554025
C28   C     C_R   0.323250 0.373027 0.010912 0.554025
C29   C     C_R   0.633246 0.821568 0.789737 -0.275973
C30   C     C_R   0.366754 0.321569 0.210263 -0.275974
C31   C     C_R   0.867719 0.861653 0.093070 -0.083417
C32   C     C_R   0.132281 0.361653 0.906930 -0.083417
H5    H     H_    0.904478 0.872510 0.273824 0.153565
H6    H     H_    0.095522 0.372509 0.726176 0.153566
H7    H     H_    0.743930 0.831221 0.202816 0.225581
H8    H     H_    0.256070 0.331219 0.797184 0.225581
H9    H     H_    0.824398 0.854291 0.337314 0.128010
H10   H     H_    0.175602 0.354289 0.662686 0.128010
C33   C     C_R   0.091448 0.858395 0.311644 -0.179654
C34   C     C_R   0.908552 0.358396 0.688356 -0.179655
C35   C     C_R   0.409067 0.854385 0.687691 -0.131597
C36   C     C_R   0.590933 0.354385 0.312309 -0.131599
C37   C     C_R   0.105461 0.839754 0.517585 -0.127985
C38   C     C_R   0.894539 0.339759 0.482415 -0.127985
C39   C     C_R   0.072107 0.839345 0.409440 0.601441
C40   C     C_R   0.927893 0.339349 0.590560 0.601442
C41   C     C_R   0.144301 0.869009 0.322062 -0.132160
C42   C     C_R   0.855699 0.369007 0.677938 -0.132160
C43   C     C_R   0.179377 0.853627 0.430513 0.050702
C44   C     C_R   0.820623 0.353627 0.569487 0.050702
C45   C     C_R   0.158759 0.851688 0.529221 -0.144712
C46   C     C_R   0.841241 0.351691 0.470779 -0.144713
C47   C     C_R   0.233780 0.849765 0.444354 -0.184883
C48   C     C_R   0.766220 0.349764 0.555646 -0.184883
C49   C     C_R   0.266598 0.866416 0.557419 -0.137403
C50   C     C_R   0.733402 0.366415 0.442581 -0.137403
C51   C     C_R   0.244079 0.892578 0.653371 0.368261
C52   C     C_R   0.755921 0.392579 0.346629 0.368261
C53   C     C_R   0.190752 0.875233 0.638296 0.510691
C54   C     C_R   0.809248 0.375235 0.361704 0.510691
C55   C     C_R   0.256773 0.827503 0.349489 0.544811
C56   C     C_R   0.743227 0.327500 0.650510 0.544811
C57   C     C_R   0.309142 0.848265 0.362309 0.603370
C58   C     C_R   0.690857 0.348262 0.637691 0.603370
C59   C     C_R   0.341539 0.868346 0.471001 -0.082516
C60   C     C_R   0.658461 0.368343 0.528998 -0.082517
C61   C     C_R   0.321113 0.861211 0.569932 0.060094
C62   C     C_R   0.678887 0.361210 0.430068 0.060093
C63   C     C_R   0.394681 0.884021 0.481987 -0.143283
C64   C     C_R   0.605319 0.384018 0.518013 -0.143281
C65   C     C_R   0.428598 0.886209 0.590878 0.386489
C66   C     C_R   0.571402 0.386207 0.409123 0.386487
C67   C     C_R   0.356357 0.838037 0.677002 -0.135922
C68   C     C_R   0.643642 0.338037 0.322997 -0.135921
H11   H     H_    0.344319 0.798064 0.753164 0.175861
H12   H     H_    0.655681 0.298066 0.246836 0.175861
H13   H     H_    0.089298 0.833563 0.592384 0.209387
H14   H     H_    0.910702 0.333570 0.407616 0.209387
H15   H     H_    0.156293 0.898937 0.244246 0.208509
H16   H     H_    0.843707 0.398933 0.755754 0.208509
H17   H     H_    0.409928 0.890429 0.405981 0.164798
H18   H     H_    0.590072 0.390425 0.594019 0.164798
O11   O     O_R   0.955980 0.206520 0.854760 -0.526914
O12   O     O_R   0.044020 0.706520 0.145240 -0.526913
O13   O     O_R   0.063490 0.536770 0.945200 -0.542032
O14   O     O_R   0.936510 0.036770 0.054800 -0.542032
C69   C     C_R   0.082765 0.368642 0.938222 0.811911
C70   C     C_R   0.917234 0.868642 0.061778 0.811911
O15   O     O_R   0.957530 0.536190 0.842880 -0.528840
O16   O     O_R   0.042470 0.036190 0.157120 -0.528840
O17   O     O_R   0.937350 0.707210 0.042130 -0.530856
O18   O     O_R   0.062650 0.207210 0.957870 -0.530857
C71   C     C_R   0.943168 0.367657 0.802499 0.770352
C72   C     C_R   0.056832 0.867657 0.197501 0.770352
O19   O     O_3   0.993540 0.373870 0.065440 -0.377364
O20   O     O_3   0.006460 0.873870 0.934560 -0.377364
V3    V     V_3+5 0.001200 0.648440 0.987860 1.630637
V4    V     V_3+5 0.998800 0.148440 0.012140 1.630635
O21   O     O_3   0.481225 0.895007 0.604174 -0.588741
C73   C     C_3   0.494729 0.059348 0.551671 -0.232305
H19   H     H_    0.474634 0.187118 0.573271 0.163417
H20   H     H_    0.487613 0.040951 0.457108 0.163350
H21   H     H_    0.536379 0.083274 0.584329 0.176829
O22   O     O_3   0.518775 0.395004 0.395827 -0.588741
C74   C     C_3   0.505271 0.559352 0.448324 -0.232311
H22   H     H_    0.525364 0.687119 0.426714 0.163411
H23   H     H_    0.512389 0.540968 0.542888 0.163355
H24   H     H_    0.463621 0.583272 0.415670 0.176828
F1    F     F_    0.328599 0.836319 0.267389 -0.678067
F2    F     F_    0.671401 0.336315 0.732611 -0.678067
F3    F     F_    0.020879 0.828215 0.400388 -0.682925
F4    F     F_    0.979121 0.328221 0.599612 -0.682925
O23   O     O_3   0.272960 0.970721 0.754669 -0.562989
C75   C     C_3   0.268643 0.865915 0.852702 -0.093429
H25   H     H_    0.260431 0.713673 0.834265 0.153856
H26   H     H_    0.239374 0.929774 0.892826 0.208074
H27   H     H_    0.305623 0.874439 0.917440 0.154150
O24   O     O_3   0.727040 0.470722 0.245331 -0.562989
C76   C     C_3   0.731357 0.365916 0.147297 -0.093430
H28   H     H_    0.739569 0.213674 0.165734 0.153855
H29   H     H_    0.760625 0.429775 0.107173 0.208074
H30   H     H_    0.694377 0.374440 0.082560 0.154149
F5    F     F_    0.230147 0.773402 0.243782 -0.685009
F6    F     F_    0.769853 0.273398 0.756217 -0.685009
F7    F     F_    0.680246 0.799473 0.646323 -0.708711
F8    F     F_    0.319754 0.299475 0.353677 -0.708712
F9    F     F_    0.671396 0.921895 0.095142 -0.729863
F10   F     F_    0.328604 0.421895 0.904858 -0.729863
F11   F     F_    0.861647 0.842453 0.849703 -0.700376
F12   F     F_    0.138353 0.342454 0.150296 -0.700376
F13   F     F_    0.169154 0.900379 0.729190 -0.705489
F14   F     F_    0.830846 0.400383 0.270809 -0.705489

loop_
_geom_bond_atom_site_label_1
_geom_bond_atom_site_label_2
_ccdc_geom_bond_type
C76   H30   S    
C44   C46   A    
C41   C43   A    
O12   C72   A    
C7    C29   A    
C11   C13   A    
O13   V3    S    
C27   F9    S    
O1    C3    A    
O2    C4    A    
C2    O7    A    
O20   V4    S    
C76   H28   S    
C23   C25   A    
C43   C47   A    
O5    C3    A    
C4    C7    S    
C52   C54   A    
C1    C36   S    
O16   V4    S    
C16   C20   A    
C38   C40   A    
C22   C24   A    
C5    C29   A    
C10   H6    S    
O16   C72   A    
C64   C66   A    
C48   C56   A    
O21   C73   S    
O11   C71   A    
C41   H15   S    
C3    C8    S    
C7    C27   A    
C73   H19   S    
C5    F7    S    
O6    V2    S    
O18   V4    S    
C47   C49   A    
O17   V3    S    
C74   H24   S    
O15   C71   A    
C37   C45   A    
C47   C55   A    
C18   C26   A    
C43   C45   A    
C33   C41   A    
C34   C42   A    
C69   O18   A    
C66   O22   S    
C19   C27   A    
C9    C31   A    
C65   O21   S    
C10   C32   A    
O5    V1    S    
C57   F1    S    
O13   C69   A    
C51   C53   A    
C2    C35   S    
C62   C68   A    
O11   V4    S    
C6    C30   A    
O20   V3    S    
C59   C61   A    
C59   C63   A    
C49   C61   A    
C63   C65   A    
C61   C67   A    
C51   O23   S    
C37   C39   A    
C6    F8    S    
C42   H16   S    
C58   C60   A    
C49   C51   A    
C12   H10   S    
C53   F13   S    
C60   C64   A    
C32   C69   S    
H1    C29   S    
C35   C65   A    
C56   F6    S    
C42   C44   A    
O4    V2    S    
C75   H26   S    
O14   V4    S    
C68   H12   S    
H3    C23   S    
O6    C4    A    
H4    C24   S    
C15   C17   A    
C55   C57   A    
O19   V3    S    
O1    V2    S    
C5    C21   A    
O14   C70   A    
O2    V1    S    
C36   C68   A    
C54   F14   S    
C74   H22   S    
C50   C62   A    
C35   C67   A    
C50   C52   A    
C60   C62   A    
C33   C72   S    
C9    C11   A    
C8    C28   A    
C34   C40   A    
C20   C28   A    
O4    C2    A    
C45   C53   A    
C20   C22   A    
C26   F12   S    
C34   C71   S    
O3    V1    S    
O22   C74   S    
C57   C59   A    
O23   C75   S    
C13   H7    S    
O15   V3    S    
C76   H29   S    
C14   H8    S    
C31   C70   S    
C19   C21   A    
O12   V3    S    
C55   F5    S    
O3    C1    A    
C36   C66   A    
C52   O24   S    
C11   H9    S    
O24   C76   S    
C39   F3    S    
C40   F4    S    
C46   C54   A    
C18   C32   A    
C10   C12   A    
C73   H21   S    
C8    C30   A    
C12   C14   A    
C75   H25   S    
C6    C22   A    
C17   C25   A    
C1    O8    A    
C21   C23   A    
O8    V2    S    
C14   C16   A    
C44   C48   A    
C58   F2    S    
C17   C31   A    
C33   C39   A    
C15   C19   A    
C24   C26   A    
C73   H20   S    
O19   V4    S    
C56   C58   A    
O7    V1    S    
C64   H18   S    
C9    H5    S    
C74   H23   S    
C63   H17   S    
C75   H27   S    
C25   F11   S    
C38   C46   A    
C13   C15   A    
C67   H11   S    
O9    V2    S    
O10   V1    S    
C48   C50   A    
C28   F10   S    
C37   H13   S    
C70   O17   A    
H2    C30   S    
C16   C18   A    
C38   H14   S    
