data_mof_unit_61607.cif
_audit_creation_date              2012-12-10T19:40:04-0500
_audit_creation_method            fapswitch 2.2
_symmetry_space_group_name_H-M    P1
_symmetry_Int_Tables_number       1
_space_group_crystal_system       triclinic
_cell_length_a                    30.633829
_cell_length_b                    21.617512
_cell_length_c                    21.634667
_cell_angle_alpha                 89.791117
_cell_angle_beta                  135.050244
_cell_angle_gamma                 90.021898
_cell_volume                      10121.7602136

loop_
_atom_site_label
_atom_site_type_symbol
_atom_type_description
_atom_site_fract_x
_atom_site_fract_y
_atom_site_fract_z
_atom_type_partial_charge
C1    C     C_R   0.120072 0.500735 0.120004 0.874720
C2    C     C_3   0.439191 0.784052 0.037987 -0.471024
C3    C     C_R   0.999989 0.314022 0.998873 -0.089087
C4    C     C_R   0.499920 0.185893 0.998219 -0.086797
C5    C     C_R   0.499976 0.814039 0.998829 -0.084938
C6    C     C_3   0.901917 0.928314 0.116986 -0.481474
C7    C     C_3   0.402106 0.428129 0.117132 -0.484665
C8    C     C_R   0.041015 0.717717 0.000655 -0.215532
C9    C     C_R   0.039060 0.282175 0.997254 -0.214340
C10   C     C_R   0.540856 0.217741 0.000332 -0.214528
C11   C     C_R   0.539550 0.782216 0.998188 -0.215753
C12   C     C_R   0.041268 0.782089 0.001094 -0.217195
C13   C     C_R   0.218157 0.453158 0.246818 0.101674
C14   C     C_R   0.039099 0.217831 0.997264 -0.219781
C15   C     C_R   0.541108 0.282113 0.000790 -0.219080
C16   C     C_R   0.539579 0.717870 0.998148 -0.218399
C17   C     C_R   0.999074 0.813903 0.996270 -0.095105
C18   C     C_R   0.998671 0.186027 0.996092 -0.090171
C19   C     C_R   0.499097 0.313908 0.996369 -0.092382
C20   C     C_R   0.498651 0.686046 0.995945 -0.093285
C21   C     C_R   0.953053 0.781530 0.981442 0.151461
C22   C     C_R   0.954428 0.218417 0.985503 0.145850
C23   C     C_R   0.453256 0.281527 0.981971 0.153859
C24   C     C_R   0.717867 0.046702 0.246676 0.102310
C25   C     C_R   0.453955 0.718442 0.984309 0.144330
C26   C     C_1   0.685475 0.446568 0.580385 0.167586
C27   C     C_1   0.185520 0.945819 0.580806 0.167922
C28   C     C_R   0.185860 0.500217 0.184558 -0.080409
C29   C     C_R   0.685890 0.999978 0.184507 -0.081558
C30   C     C_R   0.217440 0.542458 0.178433 -0.216043
C31   C     C_R   0.717754 0.958416 0.178230 -0.215314
C32   C     C_R   0.281768 0.542579 0.242771 -0.221412
C33   C     C_R   0.782076 0.958436 0.242427 -0.222706
C34   C     C_R   0.313835 0.499156 0.311056 -0.095971
C35   C     C_R   0.620088 0.999288 0.120016 0.874463
C36   C     C_R   0.813854 0.001328 0.310759 -0.093221
C37   C     C_R   0.281608 0.452238 0.308974 0.147461
C38   C     C_R   0.781314 0.047777 0.308718 0.147847
C39   C     C_3   0.286033 0.431252 0.379125 -0.496010
C40   C     C_3   0.785685 0.067934 0.378915 -0.497105
C41   C     C_3   0.215897 0.432497 0.310422 -0.475085
C42   C     C_3   0.715560 0.066516 0.310347 -0.473139
C43   C     C_R   0.000686 0.620078 0.000482 0.878175
C44   C     C_R   0.000753 0.379887 0.000751 0.880185
C45   C     C_R   0.500724 0.120078 0.000524 0.881351
C46   C     C_3   0.934283 0.785436 0.028942 -0.513813
C47   C     C_R   0.500716 0.879893 0.000711 0.877023
C48   C     C_R   0.780201 0.523134 0.826957 0.139915
C49   C     C_R   0.280196 0.023541 0.826769 0.140515
C50   C     C_R   0.814210 0.498225 0.813098 -0.130684
C51   C     C_R   0.314215 0.998253 0.813120 -0.131218
C52   C     C_R   0.782253 0.472585 0.730479 -0.253236
C53   C     C_R   0.282274 0.972228 0.730712 -0.253379
C54   C     C_R   0.717412 0.472517 0.664855 -0.026225
C55   C     C_R   0.217436 0.972145 0.665078 -0.026599
C56   C     C_R   0.685065 0.499357 0.682437 -0.139333
C57   C     C_3   0.939156 0.213850 0.037388 -0.503811
C58   C     C_R   0.185071 0.999361 0.682432 -0.139522
C59   C     C_R   0.718387 0.524527 0.763885 0.105578
C60   C     C_R   0.218381 0.024926 0.763670 0.111280
C61   C     C_3   0.713039 0.556285 0.819222 -0.499104
C62   C     C_3   0.213004 0.057197 0.818708 -0.509245
C63   C     C_3   0.784232 0.555296 0.891642 -0.466887
C64   C     C_3   0.284199 0.056218 0.891156 -0.464373
C65   C     C_R   0.000079 0.000726 0.879951 0.877558
C66   C     C_R   0.500074 0.499243 0.879963 0.877632
C67   C     C_R   0.999975 0.879820 0.000040 0.878975
C68   C     C_3   0.434883 0.285411 0.029980 -0.515352
C69   C     C_R   0.999819 0.120145 0.999946 0.873603
C70   C     C_R   0.499979 0.379822 0.000082 0.875867
C71   C     C_R   0.499815 0.620152 0.999890 0.876536
C72   C     C_R   0.879927 0.499619 0.879793 0.898460
C73   C     C_R   0.379928 0.999644 0.879798 0.898551
C74   C     C_R   0.000062 0.000241 0.120054 0.881028
C75   C     C_R   0.500065 0.500263 0.120053 0.880998
C76   C     C_R   0.500028 0.500134 0.380130 0.887659
C77   C     C_R   0.000019 0.000133 0.380123 0.887911
C78   C     C_R   0.379784 0.499990 0.379871 0.872081
C79   C     C_3   0.437717 0.713855 0.034999 -0.502464
C80   C     C_R   0.879788 0.000172 0.379809 0.872227
C81   C     C_R   0.499965 0.499999 0.620164 0.873199
C82   C     C_R   0.000043 0.999809 0.620240 0.873418
C83   C     C_R   0.619776 0.499886 0.619606 0.892851
C84   C     C_R   0.119777 0.999887 0.619589 0.893058
C85   C     C_R   0.970819 0.953523 0.752935 0.103809
C86   C     C_R   0.470832 0.546475 0.752599 0.102207
C87   C     C_R   0.001408 0.000005 0.815476 -0.082690
C88   C     C_R   0.501321 0.499778 0.815417 -0.081841
C89   C     C_R   0.039952 0.041216 0.822141 -0.214281
C90   C     C_3   0.935259 0.715219 0.031098 -0.470607
C91   C     C_R   0.539512 0.457992 0.822053 -0.215031
C92   C     C_R   0.539515 0.457865 0.757717 -0.223470
C93   C     C_R   0.040115 0.041172 0.757972 -0.223556
C94   C     C_R   0.502798 0.500836 0.688923 -0.094764
C95   C     C_R   0.003175 0.998603 0.689287 -0.093138
C96   C     C_R   0.953855 0.718019 0.983334 0.106392
C97   C     C_R   0.955557 0.281936 0.987945 0.110074
C98   C     C_R   0.454074 0.218014 0.983862 0.107333
C99   C     C_R   0.455068 0.781957 0.986775 0.108910
C100  C     C_R   0.472131 0.547405 0.690437 0.147011
C101  C     C_3   0.940652 0.284045 0.040355 -0.471351
C102  C     C_R   0.972253 0.952416 0.690911 0.147525
C103  C     C_3   0.406196 0.567591 0.620033 -0.497165
C104  C     C_3   0.906270 0.932830 0.620517 -0.499271
C105  C     C_3   0.904677 0.934289 0.689069 -0.472087
C106  C     C_3   0.404754 0.566331 0.688750 -0.471551
C107  C     C_R   0.956993 0.969253 0.176375 0.137688
C108  C     C_R   0.457082 0.469189 0.176449 0.136987
C109  C     C_R   0.000616 0.001486 0.186265 -0.107513
C110  C     C_R   0.500625 0.501522 0.186266 -0.106807
C111  C     C_R   0.046195 0.034904 0.264103 -0.214645
C112  C     C_3   0.435887 0.215196 0.032147 -0.471419
C113  C     C_R   0.546134 0.535033 0.264034 -0.214801
C114  C     C_R   0.545893 0.535342 0.328571 -0.201150
C115  C     C_R   0.045953 0.035223 0.328637 -0.201591
C116  C     C_R   0.501311 0.500664 0.316062 -0.084933
C117  C     C_R   0.001291 0.000655 0.316050 -0.084420
C118  C     C_R   0.458205 0.467798 0.239474 0.124340
C119  C     C_R   0.958107 0.967880 0.239394 0.128982
C120  C     C_3   0.403103 0.427099 0.189353 -0.496561
C121  C     C_3   0.902913 0.927306 0.189211 -0.505988
C122  C     C_R   0.999885 0.685888 0.998157 -0.082976
H1    H     H_    0.074660 0.692953 0.006725 0.151369
H2    H     H_    0.307481 0.951877 0.717748 0.172621
H3    H     H_    0.691554 0.526319 0.833553 0.200882
H4    H     H_    0.693021 0.603499 0.794663 0.212369
H5    H     H_    0.191503 0.027545 0.833273 0.201047
H6    H     H_    0.192978 0.104369 0.793743 0.209875
H7    H     H_    0.803914 0.525118 0.948168 0.207999
H8    H     H_    0.805352 0.601927 0.908573 0.193587
H9    H     H_    0.303872 0.026355 0.947932 0.208238
H10   H     H_    0.305316 0.102814 0.907697 0.193082
H11   H     H_    0.067238 0.075113 0.874080 0.151688
H12   H     H_    0.071347 0.306870 0.000332 0.156764
H13   H     H_    0.566661 0.423842 0.874140 0.151512
H14   H     H_    0.566753 0.423734 0.760475 0.160021
H15   H     H_    0.067569 0.074954 0.760681 0.158128
H16   H     H_    0.376068 0.532139 0.568266 0.191642
H17   H     H_    0.401576 0.614947 0.595718 0.210441
H18   H     H_    0.901543 0.885469 0.596551 0.210157
H19   H     H_    0.876304 0.968506 0.568506 0.191547
H20   H     H_    0.898945 0.887775 0.704592 0.202603
H21   H     H_    0.873839 0.970937 0.676931 0.217107
H22   H     H_    0.373843 0.530022 0.676967 0.217080
H23   H     H_    0.574355 0.192995 0.006071 0.155597
H24   H     H_    0.399211 0.612954 0.704014 0.203068
H25   H     H_    0.081037 0.061072 0.274362 0.162906
H26   H     H_    0.580918 0.561278 0.274234 0.163056
H27   H     H_    0.074928 0.806789 0.007169 0.160885
H28   H     H_    0.071286 0.193098 0.000181 0.155817
H29   H     H_    0.574613 0.306830 0.006535 0.157253
H30   H     H_    0.572150 0.693156 0.001865 0.159773
H31   H     H_    0.580530 0.561585 0.387975 0.156417
H32   H     H_    0.080648 0.061391 0.388097 0.156267
H33   H     H_    0.363056 0.451187 0.170635 0.200421
H34   H     H_    0.572214 0.806931 0.002080 0.152693
H35   H     H_    0.414663 0.381045 0.220890 0.214991
H36   H     H_    0.862918 0.951481 0.170548 0.198376
H37   H     H_    0.914371 0.881236 0.220667 0.213663
H38   H     H_    0.861092 0.952645 0.056323 0.210642
H39   H     H_    0.913084 0.882870 0.107099 0.197679
H40   H     H_    0.361228 0.452374 0.056420 0.210666
H41   H     H_    0.413384 0.382720 0.107344 0.198175
H42   H     H_    0.887172 0.805285 0.987268 0.205526
H43   H     H_    0.892267 0.194521 0.998286 0.210037
H44   H     H_    0.387798 0.305239 0.988612 0.205926
H45   H     H_    0.196785 0.468425 0.322646 0.217332
H46   H     H_    0.390720 0.694527 0.995104 0.209505
H47   H     H_    0.970484 0.806655 0.094768 0.197755
H48   H     H_    0.976649 0.191739 0.102509 0.198958
H49   H     H_    0.471252 0.306637 0.095763 0.197550
H50   H     H_    0.474811 0.691735 0.100248 0.199092
H51   H     H_    0.888707 0.694531 0.990651 0.193680
H52   H     H_    0.894651 0.305231 0.003131 0.202274
H53   H     H_    0.389380 0.194493 0.992030 0.194017
H54   H     H_    0.393065 0.805237 0.999975 0.202211
H55   H     H_    0.972006 0.695657 0.098218 0.218347
H56   H     H_    0.195068 0.385813 0.294586 0.201099
H57   H     H_    0.979144 0.302773 0.107240 0.215120
H58   H     H_    0.472826 0.195641 0.099231 0.217489
H59   H     H_    0.477267 0.802773 0.105015 0.216073
H60   H     H_    0.192530 0.576934 0.126761 0.150461
H61   H     H_    0.693092 0.924290 0.126576 0.150734
H62   H     H_    0.306246 0.577053 0.240408 0.160922
H63   H     H_    0.806787 0.924400 0.240000 0.157549
H64   H     H_    0.307676 0.466332 0.431325 0.191749
H65   H     H_    0.305689 0.383844 0.402863 0.209530
H66   H     H_    0.804954 0.115330 0.402493 0.210645
H67   H     H_    0.694350 0.113088 0.294422 0.202660
H68   H     H_    0.807666 0.032512 0.431217 0.191282
H69   H     H_    0.696808 0.030146 0.322768 0.216778
H70   H     H_    0.807443 0.452521 0.717338 0.172922
N1    N     N_1   0.659826 0.425850 0.512669 -0.201633
N2    N     N_1   0.159886 0.924804 0.513245 -0.201508
O1    O     O_R   0.091640 0.500000 0.143360 -0.623648
O2    O     O_R   0.551700 0.500000 0.143310 -0.621094
O3    O     O_R   0.499940 0.551750 0.408310 -0.628714
O4    O     O_R   0.499940 0.448250 0.408310 -0.614134
O5    O     O_R   0.999940 0.051750 0.408310 -0.626354
O6    O     O_R   0.999940 0.948250 0.408310 -0.616187
O7    O     O_R   0.408380 0.551720 0.408370 -0.623821
O8    O     O_R   0.408380 0.448280 0.408370 -0.622125
O9    O     O_R   0.908380 0.051720 0.408370 -0.619388
O10   O     O_R   0.908380 0.948280 0.408370 -0.626233
O11   O     O_R   0.500050 0.551670 0.591650 -0.621041
O12   O     O_R   0.591640 1.000000 0.143360 -0.623856
O13   O     O_R   0.500050 0.448330 0.591650 -0.624795
O14   O     O_R   0.000050 0.051670 0.591650 -0.625014
O15   O     O_R   0.000050 0.948330 0.591650 -0.620534
O16   O     O_R   0.591610 0.551710 0.591590 -0.623730
O17   O     O_R   0.591610 0.448290 0.591590 -0.618382
O18   O     O_R   0.091610 0.051710 0.591590 -0.625853
O19   O     O_R   0.091610 0.948290 0.591590 -0.616058
O20   O     O_R   0.091570 0.500000 0.039860 -0.626278
O21   O     O_R   0.591570 0.000000 0.039860 -0.626109
O22   O     O_R   0.000030 0.591610 0.051750 -0.625024
O23   O     O_R   0.051710 0.908380 0.051700 -0.620022
O24   O     O_R   0.000030 0.408390 0.051750 -0.625720
O25   O     O_R   0.500030 0.091610 0.051750 -0.626355
O26   O     O_R   0.500030 0.908390 0.051750 -0.624498
O27   O     O_R   0.999970 0.591600 0.948260 -0.623086
O28   O     O_R   0.999970 0.408400 0.948260 -0.622293
O29   O     O_R   0.499970 0.091600 0.948260 -0.619920
O30   O     O_R   0.499970 0.908400 0.948260 -0.625302
O31   O     O_R   0.908410 0.500000 0.960140 -0.624690
O32   O     O_R   0.408410 1.000000 0.960140 -0.624683
O33   O     O_R   0.908350 0.500000 0.856640 -0.623337
O34   O     O_R   0.051710 0.091620 0.051700 -0.626746
O35   O     O_R   0.408350 1.000000 0.856640 -0.623209
O36   O     O_R   0.948280 0.000000 0.856590 -0.622638
O37   O     O_R   0.448280 0.500000 0.856590 -0.622745
O38   O     O_R   0.051720 0.000000 0.960100 -0.625710
O39   O     O_R   0.551720 0.500000 0.960100 -0.625718
O40   O     O_R   0.948270 0.908380 0.948190 -0.622307
O41   O     O_R   0.948270 0.091620 0.948190 -0.619139
O42   O     O_R   0.448270 0.408380 0.948190 -0.620931
O43   O     O_R   0.448270 0.591620 0.948190 -0.620533
O44   O     O_R   0.551710 0.408380 0.051700 -0.623135
O45   O     O_R   0.551710 0.591620 0.051700 -0.623691
O46   O     O_R   0.948260 0.000000 0.039800 -0.624488
O47   O     O_R   0.448260 0.500000 0.039800 -0.624518
O48   O     O_R   0.051700 1.000000 0.143310 -0.621121
Zn1   Zn    Zn3+2 0.000030 0.500000 0.069110 0.937705
Zn2   Zn    Zn3+2 0.500000 0.430940 0.499990 0.959855
Zn3   Zn    Zn3+2 1.000000 0.069060 0.499990 0.950713
Zn4   Zn    Zn3+2 0.000000 0.930940 0.499990 0.960723
Zn5   Zn    Zn3+2 0.500030 0.000000 0.069110 0.937573
Zn6   Zn    Zn3+2 0.999950 0.500000 0.930890 0.952274
Zn7   Zn    Zn3+2 0.499950 1.000000 0.930890 0.952441
Zn8   Zn    Zn3+2 0.930930 0.000000 0.930840 0.946158
Zn9   Zn    Zn3+2 0.430930 0.500000 0.930840 0.945967
Zn10  Zn    Zn3+2 0.069060 0.000000 0.069060 0.951750
Zn11  Zn    Zn3+2 0.569060 0.500000 0.069060 0.951707
Zn12  Zn    Zn3+2 0.500000 0.569060 0.499990 0.949842

loop_
_geom_bond_atom_site_label_1
_geom_bond_atom_site_label_2
_ccdc_geom_bond_type
C23   C68   S    
C30   C32   A    
C47   O30   A    
C67   O40   A    
O46   Zn8   S    
C46   H47   S    
C4    C98   A    
C34   C37   A    
C24   C42   S    
C14   C18   A    
O47   Zn9   S    
C78   O7    A    
C42   H67   S    
O37   Zn9   S    
O40   Zn8   S    
C22   C57   S    
C82   O14   A    
O32   Zn5   S    
C39   C41   S    
O35   Zn7   S    
C92   H14   S    
C76   C116  S    
C15   C19   A    
C5    C47   S    
C90   H51   S    
C49   C60   A    
C65   O36   A    
C56   C83   S    
C101  H57   S    
C71   O43   A    
C113  H26   S    
C43   O27   A    
C57   H48   S    
C111  H25   S    
C10   C15   A    
C109  C111  A    
C66   C88   S    
C62   H5    S    
C68   H49   S    
C86   C88   A    
C80   O9    A    
C57   H43   S    
C20   C25   A    
C58   C60   A    
O7    Zn12  S    
C41   H45   S    
C121  H36   S    
C33   C36   A    
C60   C62   S    
C120  H35   S    
C68   C112  S    
C63   H8    S    
C107  C119  A    
C61   C63   S    
C50   C72   S    
C24   C29   A    
O16   Zn12  S    
C62   C64   S    
C2    C79   S    
O36   Zn8   S    
C2    H54   S    
O33   Zn6   S    
O14   Zn3   S    
C39   H64   S    
O28   Zn6   S    
C42   H69   S    
C25   C99   A    
C64   H10   S    
C108  C110  A    
C115  C117  A    
C72   O33   A    
C12   C17   A    
O45   Zn11  S    
C1    C28   S    
C50   C52   A    
C6    C107  S    
C31   C33   A    
C13   C28   A    
C61   H4    S    
O38   Zn10  S    
O23   Zn10  S    
C79   H46   S    
C86   C100  A    
C7    C120  S    
C114  H31   S    
C13   C37   A    
C95   C102  A    
C16   C20   A    
C112  H58   S    
C82   O15   A    
C39   H65   S    
C9    H12   S    
O29   Zn7   S    
O22   Zn1   S    
C48   C50   A    
C90   H55   S    
C93   C95   A    
C22   C97   A    
C46   H42   S    
C74   O46   A    
O19   Zn4   S    
C30   H60   S    
C101  H52   S    
C86   C106  S    
C74   C109  S    
C85   C105  S    
C43   O22   A    
C26   C54   S    
C15   H29   S    
C104  C105  S    
C52   C54   A    
C65   C87   S    
C118  C120  S    
C4    C45   S    
C53   C55   A    
C37   C39   S    
C7    H40   S    
C54   C56   A    
C3    C44   S    
C59   C61   S    
C17   C67   S    
C85   C87   A    
C45   O29   A    
C108  C118  A    
C41   H56   S    
C67   O23   A    
C89   H11   S    
C12   H27   S    
C36   C80   S    
C103  H16   S    
O6    Zn4   S    
C105  H20   S    
O5    Zn3   S    
C48   C63   S    
O10   Zn4   S    
C66   O39   A    
O4    Zn2   S    
C7    H41   S    
C66   O37   A    
C85   C102  A    
C100  C103  S    
C17   C21   A    
C49   C51   A    
C51   C53   A    
C2    H59   S    
C32   C34   A    
C79   H50   S    
C19   C23   A    
C9    C14   A    
C105  H21   S    
C107  C109  A    
C75   O47   A    
C58   C84   S    
C51   C73   S    
C111  C115  A    
C11   C16   A    
C3    C97   A    
C35   O12   A    
C24   C38   A    
O9    Zn3   S    
C64   H9    S    
C94   C100  A    
C8    C12   A    
C104  H19   S    
O8    Zn2   S    
C14   H28   S    
C92   C94   A    
C75   O2    A    
C44   O24   A    
C16   H30   S    
C27   N2    T    
C70   O42   A    
O24   Zn1   S    
C102  C104  S    
C3    C9    A    
C77   O5    A    
C43   C122  S    
C119  C121  S    
O30   Zn7   S    
C46   C90   S    
C11   H34   S    
C21   C96   A    
O26   Zn5   S    
C2    C99   S    
C20   C71   S    
C72   O31   A    
C87   C89   A    
C5    C11   A    
O44   Zn11  S    
C45   O25   A    
C74   O48   A    
O25   Zn5   S    
C62   H6    S    
C44   O28   A    
C6    C121  S    
O42   Zn9   S    
C4    C10   A    
C36   C38   A    
C69   O34   A    
C91   C92   A    
C84   O19   A    
C48   C59   A    
C81   O11   A    
C113  C114  A    
O1    Zn1   S    
C75   C110  S    
C82   C95   S    
C65   O38   A    
C1    O1    A    
C18   C22   A    
C40   H66   S    
O17   Zn2   S    
C32   H62   S    
C106  H22   S    
C78   O8    A    
C103  H17   S    
O18   Zn3   S    
C53   H2    S    
C25   C79   S    
O3    Zn12  S    
C114  C116  A    
C84   O18   A    
C8    H1    S    
C90   C96   S    
C13   C41   S    
C5    C99   A    
O27   Zn6   S    
O39   Zn11  S    
O31   Zn1   S    
C57   C101  S    
C47   O26   A    
C29   C35   S    
C27   C55   S    
C77   C117  S    
C106  H24   S    
C56   C59   A    
C81   O13   A    
C76   O3    A    
C49   C64   S    
O48   Zn10  S    
C98   C112  S    
C117  C119  A    
O12   Zn5   S    
C69   O41   A    
C28   C30   A    
C115  H32   S    
C76   O4    A    
O13   Zn2   S    
C34   C78   S    
C38   C40   S    
C81   C94   S    
C6    H38   S    
C8    C122  A    
C73   O32   A    
C88   C91   A    
C18   C69   S    
O2    Zn11  S    
C40   C42   S    
C52   H70   S    
C116  C118  A    
C103  C106  S    
C31   H61   S    
C63   H7    S    
C89   C93   A    
C96   C122  A    
C77   O6    A    
C83   O17   A    
C6    H39   S    
C93   H15   S    
O11   Zn12  S    
C10   H23   S    
C21   C46   S    
C104  H18   S    
C83   O16   A    
C61   H3    S    
C112  H53   S    
C91   H13   S    
C120  H33   S    
C29   C31   A    
C121  H37   S    
C55   C58   A    
C110  C113  A    
C1    O20   A    
O21   Zn7   S    
C7    C108  S    
O43   Zn9   S    
C19   C70   S    
C33   H63   S    
C70   O44   A    
O41   Zn8   S    
C80   O10   A    
C26   N1    T    
C35   O21   A    
O15   Zn4   S    
C97   C101  S    
C73   O35   A    
O20   Zn6   S    
C71   O45   A    
C23   C98   A    
O34   Zn10  S    
C40   H68   S    
C68   H44   S    
