data_mof_unit_48237.cif
_audit_creation_date              2012-12-10T17:37:48-0500
_audit_creation_method            fapswitch 2.2
_symmetry_space_group_name_H-M    P1
_symmetry_Int_Tables_number       1
_space_group_crystal_system       triclinic
_cell_length_a                    12.35269
_cell_length_b                    13.220218
_cell_length_c                    17.359058
_cell_angle_alpha                 105.272067
_cell_angle_beta                  74.579455
_cell_angle_gamma                 116.692447
_cell_volume                      2407.19398006

loop_
_atom_site_label
_atom_site_type_symbol
_atom_type_description
_atom_site_fract_x
_atom_site_fract_y
_atom_site_fract_z
_atom_type_partial_charge
C1    C     C_R   0.144520 0.713525 0.507245 0.776187
C2    C     C_R   0.890979 0.530480 0.797012 -0.177681
C3    C     C_R   0.921260 0.489426 0.156438 -0.148941
C4    C     C_R   0.918844 0.494977 0.237725 -0.203706
C5    C     C_R   0.112937 0.475233 0.203523 -0.200881
C6    C     C_R   0.115374 0.469885 0.121992 -0.168899
C7    C     C_R   0.020917 0.479230 0.098262 0.192212
C8    C     C_2   0.980708 0.534772 0.988113 -0.229064
C9    C     C_2   0.028113 0.477273 0.012351 -0.228470
C10   C     C_R   0.015167 0.489029 0.261969 -0.026532
C11   C     C_R   0.733606 0.975553 0.392191 -0.189245
C12   C     C_R   0.988690 0.505409 0.652210 0.787496
C13   C     C_R   0.774403 0.164790 0.471519 -0.049382
C14   C     C_R   0.179607 0.916139 0.561024 -0.185384
C15   C     C_R   0.257016 0.031267 0.577490 -0.140840
C16   C     C_R   0.382710 0.068189 0.549045 -0.183420
C17   C     C_R   0.433630 0.990360 0.500272 0.079328
C18   C     C_R   0.352263 0.875388 0.475947 0.083441
C19   C     C_R   0.562440 0.023104 0.474036 0.073274
C20   C     C_R   0.606820 0.944358 0.418498 0.166670
C21   C     C_R   0.524242 0.836437 0.388149 -0.240833
C22   C     C_R   0.398916 0.803083 0.415304 -0.197326
C23   C     C_R   0.855947 0.286359 0.488055 0.802817
C24   C     C_R   0.648893 0.131716 0.501689 -0.249383
C25   C     C_R   0.817116 0.085645 0.418175 -0.192785
C26   C     C_R   0.226090 0.836596 0.512223 -0.102852
C27   C     C_R   0.632919 0.666954 0.632219 -0.258460
C28   C     C_R   0.250654 0.352897 0.389075 0.070330
C29   C     C_R   0.349600 0.321047 0.364441 -0.258371
C30   C     C_R   0.449288 0.376301 0.405616 -0.196914
C31   C     C_R   0.450967 0.464477 0.472388 0.017000
C32   C     C_R   0.346948 0.494051 0.495332 0.286547
C33   C     C_R   0.550695 0.523949 0.517736 -0.032630
C34   C     C_R   0.011788 0.495292 0.347823 0.784089
C35   C     C_R   0.541333 0.609149 0.585036 0.082295
C36   C     C_R   0.440317 0.636985 0.605878 -0.270212
C37   C     C_R   0.345803 0.581223 0.561775 -0.181809
C38   C     C_R   0.659403 0.503262 0.500224 -0.059045
C39   C     C_R   0.736267 0.643731 0.613403 0.580046
C40   C     C_R   0.987351 0.514573 0.738168 -0.029519
C41   C     C_R   0.084920 0.510387 0.762125 -0.210440
C42   C     C_R   0.084954 0.519453 0.843515 -0.145303
C43   C     C_R   0.986421 0.531232 0.902140 0.190197
C44   C     C_R   0.890889 0.539152 0.878672 -0.170829
Cu1   Cu    Cu3+1 0.900140 0.524980 0.518800 0.937723
Cu2   Cu    Cu3+1 0.099860 0.475020 0.481200 0.922762
H1    H     H_    0.161798 0.500736 0.718141 0.158737
H2    H     H_    0.192083 0.460573 0.077555 0.124260
H3    H     H_    0.914181 0.110226 0.394040 0.148196
H4    H     H_    0.556627 0.777396 0.342981 0.144056
H5    H     H_    0.767882 0.915808 0.349690 0.133550
H6    H     H_    0.621276 0.193487 0.546242 0.148945
H7    H     H_    0.083364 0.888970 0.588312 0.168175
H8    H     H_    0.436753 0.158695 0.564906 0.130607
H9    H     H_    0.219849 0.091967 0.614731 0.146387
H10   H     H_    0.339475 0.720927 0.386192 0.175760
H11   H     H_    0.841044 0.503223 0.281413 0.151205
H12   H     H_    0.433983 0.702993 0.657256 0.153092
H13   H     H_    0.624773 0.731376 0.684392 0.161266
H14   H     H_    0.673591 0.440095 0.449710 0.141439
H15   H     H_    0.173865 0.309397 0.356681 0.124280
H16   H     H_    0.523305 0.348215 0.384367 0.136119
H17   H     H_    0.348934 0.253173 0.313261 0.145524
H18   H     H_    0.273048 0.609204 0.582605 0.205544
H19   H     H_    0.187807 0.469435 0.220732 0.150316
H20   H     H_    0.075910 0.429099 0.968397 0.146512
H21   H     H_    0.815010 0.549639 0.923426 0.126161
H22   H     H_    0.844393 0.491826 0.139429 0.123705
H23   H     H_    0.815376 0.535309 0.780027 0.171834
H24   H     H_    0.932827 0.582864 0.032079 0.145352
H25   H     H_    0.162637 0.518125 0.860212 0.125956
N1    N     N_R   0.749710 0.562810 0.547300 -0.229970
N2    N     N_R   0.249640 0.437820 0.453210 -0.209317
O1    O     O_R   0.025490 0.682370 0.523640 -0.600775
O2    O     O_R   0.194150 0.640180 0.491890 -0.603402
O3    O     O_R   0.905900 0.523560 0.631310 -0.590933
O4    O     O_R   0.074570 0.481370 0.599560 -0.602263
O5    O     O_R   0.805850 0.359820 0.508110 -0.585564
O6    O     O_R   0.974510 0.317630 0.476360 -0.584265
O7    O     O_R   0.925430 0.518630 0.400440 -0.586812
O8    O     O_R   0.094100 0.476440 0.368690 -0.599355
O9    O     O_3   0.820479 0.704626 0.664895 -0.765598
H26   H     H_    0.896919 0.695315 0.640673 0.368018

loop_
_geom_bond_atom_site_label_1
_geom_bond_atom_site_label_2
_ccdc_geom_bond_type
C24   H6    S    
C29   H17   S    
C41   C42   A    
C35   C36   A    
C18   C26   A    
C8    C43   S    
Cu1   Cu2   S    
C6    H2    S    
Cu1   O3    S    
C1    O1    A    
C28   C29   A    
C3    H22   S    
C36   H12   S    
C5    C6    A    
C11   C25   A    
C15   C16   A    
C13   C23   S    
C9    H20   S    
C21   H4    S    
C17   C19   A    
C19   C20   A    
C2    C44   A    
C16   C17   A    
C4    H11   S    
C39   N1    A    
C31   C33   A    
Cu1   O5    S    
C34   O8    A    
C2    H23   S    
C34   O7    A    
C28   H15   S    
C21   C22   A    
Cu1   N1    S    
C13   C25   A    
C28   N2    A    
Cu2   O2    S    
C16   H8    S    
C38   N1    A    
C11   C20   A    
C1    O2    A    
C5    H19   S    
C27   C39   A    
C32   N2    A    
C8    C9    D    
C22   H10   S    
C27   C35   A    
C13   C24   A    
Cu1   O1    S    
C15   H9    S    
C12   C40   S    
C43   C44   A    
C29   C30   A    
Cu2   O8    S    
C31   C32   A    
C30   C31   A    
C12   O4    A    
C17   C18   A    
C41   H1    S    
C10   C34   S    
C32   C37   A    
C14   C26   A    
C38   H14   S    
C40   C41   A    
C30   H16   S    
C1    C26   S    
C42   C43   A    
C4    C10   A    
C3    C4    A    
C37   H18   S    
C7    C9    S    
C36   C37   A    
C18   C22   A    
C8    H24   S    
C39   O9    S    
Cu2   O4    S    
C6    C7    A    
C3    C7    A    
C33   C38   A    
C12   O3    A    
C19   C24   A    
C5    C10   A    
C27   H13   S    
Cu2   O6    S    
C42   H25   S    
C33   C35   A    
Cu1   O7    S    
C23   O5    A    
C25   H3    S    
C11   H5    S    
C2    C40   A    
C14   H7    S    
C20   C21   A    
O9    H26   S    
C14   C15   A    
C44   H21   S    
C23   O6    A    
Cu2   N2    S    
