data_mof_unit_62262.cif
_audit_creation_date              2012-12-11T14:22:57-0500
_audit_creation_method            fapswitch 2.2
_symmetry_space_group_name_H-M    P1
_symmetry_Int_Tables_number       1
_space_group_crystal_system       triclinic
_cell_length_a                    16.912915
_cell_length_b                    6.951442
_cell_length_c                    15.344845
_cell_angle_alpha                 89.999914
_cell_angle_beta                  93.534076
_cell_angle_gamma                 90.000055
_cell_volume                      1800.64955346

loop_
_atom_site_label
_atom_site_type_symbol
_atom_type_description
_atom_site_fract_x
_atom_site_fract_y
_atom_site_fract_z
_atom_type_partial_charge
O1    O     O_R   0.414560 0.494300 0.417030 -0.541494
O2    O     O_R   0.585440 0.994300 0.582970 -0.541494
O3    O     O_R   0.577160 0.822630 0.413790 -0.536799
O4    O     O_R   0.422840 0.322630 0.586210 -0.536799
C1    C     C_R   0.604224 0.655197 0.393235 0.721949
C2    C     C_R   0.395776 0.155197 0.606764 0.721947
O5    O     O_R   0.414660 0.823920 0.406630 -0.538730
O6    O     O_R   0.585340 0.323920 0.593370 -0.538730
O7    O     O_R   0.421790 0.995650 0.575760 -0.535558
O8    O     O_R   0.578210 0.495650 0.424240 -0.535557
C3    C     C_R   0.388758 0.654122 0.382810 0.702961
C4    C     C_R   0.611241 0.154121 0.617190 0.702963
O9    O     O_3   0.502530 0.661260 0.555500 -0.367324
O10   O     O_3   0.497470 0.161260 0.444500 -0.367324
V1    V     V_3+5 0.499530 0.935570 0.489700 1.452523
V2    V     V_3+5 0.500470 0.435570 0.510300 1.452524
C5    C     C_2   0.779529 0.276672 0.791357 -0.032149
C6    C     C_2   0.220456 0.776676 0.208664 -0.032148
C7    C     C_2   0.824399 0.119056 0.812444 -0.333993
C8    C     C_2   0.175598 0.619051 0.187560 -0.333994
H1    H     H_    0.816679 0.990218 0.772884 0.150381
H2    H     H_    0.183328 0.490197 0.227107 0.150402
C9    C     C_2   0.721070 0.279257 0.714577 -0.213624
C10   C     C_2   0.278914 0.779243 0.285445 -0.213640
C11   C     C_2   0.669317 0.136549 0.692962 -0.197445
C12   C     C_2   0.330682 0.636556 0.307040 -0.197431
H3    H     H_    0.718157 0.410739 0.676126 0.142995
H4    H     H_    0.281814 0.910699 0.323914 0.142970
C13   C     C_1   0.166496 0.119202 0.831440 -0.185497
C14   C     C_1   0.833503 0.619202 0.168560 -0.185492
C15   C     C_1   0.219001 0.127483 0.780205 0.013158
C16   C     C_1   0.780998 0.627483 0.219795 0.013159
C17   C     C_1   0.280957 0.137418 0.720040 0.012611
C18   C     C_1   0.719043 0.637418 0.279960 0.012612
C19   C     C_1   0.333428 0.145730 0.668762 -0.188444
C20   C     C_1   0.666572 0.645731 0.331238 -0.188443
O11   O     O_R   0.921850 0.770730 0.075840 -0.533034
O12   O     O_R   0.078150 0.270730 0.924160 -0.533034
O13   O     O_R   0.085350 0.439650 0.093390 -0.528916
O14   O     O_R   0.914650 0.939650 0.906610 -0.528923
C21   C     C_R   0.112825 0.609238 0.115599 0.743137
C22   C     C_R   0.887174 0.109238 0.884402 0.743129
O15   O     O_R   0.922860 0.441090 0.086230 -0.540738
O16   O     O_R   0.077140 0.941090 0.913770 -0.540737
O17   O     O_R   0.914540 0.269530 0.917020 -0.540048
O18   O     O_R   0.085460 0.769530 0.082980 -0.540047
C23   C     C_R   0.895918 0.609815 0.106648 0.734375
C24   C     C_R   0.104082 0.109815 0.893352 0.734366
O19   O     O_3   0.997510 0.602520 0.944550 -0.370012
O20   O     O_3   0.002490 0.102520 0.055450 -0.370008
V3    V     V_3+5 0.000460 0.328160 0.010290 1.478336
V4    V     V_3+5 0.999540 0.828160 0.989710 1.478330
C25   C     C_1   0.788517 0.454988 0.839558 0.366882
N1    N     N_1   0.795713 0.597340 0.878337 -0.334388
C26   C     C_1   0.211457 0.955015 0.160483 0.366855
N2    N     N_1   0.204252 0.097387 0.121722 -0.334392
C27   C     C_1   0.663307 0.966924 0.747113 0.335294
N3    N     N_1   0.657784 0.831476 0.790142 -0.336398
C28   C     C_1   0.336707 0.466973 0.252867 0.335294
N4    N     N_1   0.342242 0.331562 0.209820 -0.336377

loop_
_geom_bond_atom_site_label_1
_geom_bond_atom_site_label_2
_ccdc_geom_bond_type
O4    V2    S    
O20   V4    S    
C26   N2    T    
C15   C17   S    
O16   C24   A    
C9    H3    S    
O11   C23   A    
O15   C23   A    
C12   C28   S    
O13   V3    S    
O1    C3    A    
C7    C22   S    
C8    H2    S    
C4    C11   S    
O6    C4    A    
O19   V4    S    
O2    C4    A    
O16   V4    S    
C2    O7    A    
O5    V1    S    
O20   V3    S    
O7    V1    S    
C5    C25   S    
C1    O8    A    
C13   C15   T    
O1    V2    S    
O8    V2    S    
C25   N1    T    
C14   C16   T    
O2    V1    S    
O15   V3    S    
C27   N3    T    
C5    C9    S    
C21   O18   A    
C11   C27   S    
C6    C26   S    
C6    C10   S    
O14   C22   A    
C7    H1    S    
C10   C12   D    
O5    C3    A    
C18   C20   T    
C9    C11   D    
O9    V1    S    
O10   V2    S    
O19   V3    S    
O17   V3    S    
C13   C24   S    
C1    C20   S    
O18   V4    S    
C14   C23   S    
C28   N4    T    
O3    V1    S    
C2    C19   S    
O13   C21   A    
C6    C8    D    
O4    C2    A    
O6    V2    S    
O9    V2    S    
O11   V4    S    
O10   V1    S    
C5    C7    D    
O12   V3    S    
C3    C12   S    
C17   C19   T    
O14   V4    S    
O12   C24   A    
C10   H4    S    
C8    C21   S    
O3    C1    A    
C22   O17   A    
C16   C18   S    
