data_mof_unit_11416.cif
_audit_creation_date              2012-12-10T18:04:41-0500
_audit_creation_method            fapswitch 2.2
_symmetry_space_group_name_H-M    P1
_symmetry_Int_Tables_number       1
_space_group_crystal_system       triclinic
_cell_length_a                    19.291027
_cell_length_b                    17.751995
_cell_length_c                    12.616688
_cell_angle_alpha                 90.153258
_cell_angle_beta                  99.97828
_cell_angle_gamma                 89.907439
_cell_volume                      4255.26376073

loop_
_atom_site_label
_atom_site_type_symbol
_atom_type_description
_atom_site_fract_x
_atom_site_fract_y
_atom_site_fract_z
_atom_type_partial_charge
C1    C     C_R   0.416498 0.107784 0.447727 0.866556
C2    C     C_R   0.776298 0.773957 0.660777 0.174806
C3    C     C_R   0.279564 0.720108 0.656264 0.169884
C4    C     C_R   0.276298 0.273957 0.660777 0.174806
C5    C     C_R   0.345550 0.753279 0.684741 -0.254433
C6    C     C_R   0.341031 0.238612 0.692237 -0.267479
C7    C     C_R   0.845550 0.253279 0.684741 -0.254433
C8    C     C_R   0.841031 0.738612 0.692237 -0.267479
C9    C     C_R   0.378102 0.785382 0.605824 -0.161859
C10   C     C_R   0.377261 0.210518 0.614627 -0.156872
C11   C     C_R   0.878102 0.285382 0.605824 -0.161859
C12   C     C_R   0.414085 0.894021 0.445678 0.860300
C13   C     C_R   0.877261 0.710518 0.614627 -0.156872
C14   C     C_R   0.680974 0.185646 0.519605 -0.258528
C15   C     C_R   0.683994 0.817006 0.519695 -0.269574
C16   C     C_R   0.180974 0.685646 0.519605 -0.258528
C17   C     C_R   0.183994 0.317006 0.519695 -0.269574
C18   C     C_R   0.679940 0.154534 0.705685 -0.201514
C19   C     C_R   0.674546 0.838258 0.706027 -0.203769
C20   C     C_R   0.179941 0.654534 0.705685 -0.201513
C21   C     C_R   0.174546 0.338257 0.706027 -0.203769
C22   C     C_R   0.371997 0.825434 0.416192 -0.257538
C23   C     C_R   0.916499 0.607784 0.447727 0.866556
C24   C     C_R   0.379627 0.180483 0.423017 -0.234024
C25   C     C_R   0.871997 0.325434 0.416192 -0.257538
C26   C     C_R   0.879627 0.680483 0.423017 -0.234024
C27   C     C_R   0.645817 0.015854 0.138494 0.451153
C28   C     C_R   0.145817 0.515854 0.138494 0.451153
C29   C     C_R   0.378460 0.012277 0.759594 0.031303
C30   C     C_R   0.878461 0.512277 0.759594 0.031303
C31   C     C_R   0.355335 0.037089 0.851431 -0.275701
C32   C     C_R   0.855335 0.537089 0.851431 -0.275701
C33   C     C_R   0.590639 0.898920 0.557439 0.835864
C34   C     C_R   0.914085 0.394021 0.445678 0.860300
C35   C     C_R   0.590788 0.100748 0.557757 0.849744
C36   C     C_R   0.090639 0.398920 0.557439 0.835864
C37   C     C_R   0.090788 0.600748 0.557757 0.849744
C38   C     C_R   0.403996 0.043255 0.945905 -0.156696
C39   C     C_R   0.903996 0.543255 0.945905 -0.156696
C40   C     C_R   0.473735 0.018055 0.951198 0.090973
C41   C     C_R   0.973735 0.518054 0.951198 0.090973
C42   C     C_R   0.496590 0.004795 0.853504 0.230779
C43   C     C_R   0.996590 0.504795 0.853504 0.230779
C44   C     C_R   0.522763 0.012904 0.047747 -0.189081
C45   C     C_R   0.748419 0.214908 0.546166 0.099829
C46   C     C_R   0.022763 0.512905 0.047747 -0.189081
C47   C     C_R   0.595953 0.014773 0.043354 0.011481
C48   C     C_R   0.095953 0.514773 0.043354 0.011481
C49   C     C_R   0.617956 0.011109 0.943608 -0.224828
C50   C     C_R   0.117956 0.511110 0.943608 -0.224828
C51   C     C_R   0.568742 0.002343 0.850342 -0.257550
C52   C     C_R   0.068742 0.502343 0.850342 -0.257550
C53   C     C_R   0.502001 0.998683 0.147294 0.566065
C54   C     C_R   0.002001 0.498683 0.147294 0.566065
C55   C     C_R   0.621504 0.012090 0.236050 -0.224557
C56   C     C_R   0.750231 0.785219 0.549807 0.100738
C57   C     C_R   0.121504 0.512090 0.236050 -0.224557
C58   C     C_R   0.744575 0.190647 0.735649 -0.196140
C59   C     C_R   0.737778 0.799864 0.738301 -0.207348
C60   C     C_R   0.244575 0.690647 0.735649 -0.196140
C61   C     C_R   0.237778 0.299864 0.738301 -0.207348
C62   C     C_R   0.649090 0.150827 0.596686 -0.053323
C63   C     C_R   0.648480 0.847926 0.596033 -0.049424
C64   C     C_R   0.149090 0.650827 0.596686 -0.053324
C65   C     C_R   0.148480 0.347926 0.596033 -0.049424
C66   C     C_R   0.353325 0.802526 0.307290 0.503102
C67   C     C_R   0.248419 0.714908 0.546166 0.099829
C68   C     C_R   0.370906 0.212051 0.318265 0.558477
C69   C     C_R   0.853325 0.302526 0.307290 0.503102
C70   C     C_R   0.870906 0.712051 0.318265 0.558477
C71   C     C_R   0.299341 0.750570 0.278366 -0.219568
C72   C     C_R   0.317499 0.266551 0.290359 -0.277900
C73   C     C_R   0.799341 0.250570 0.278366 -0.219569
C74   C     C_R   0.817499 0.766551 0.290359 -0.277900
C75   C     C_R   0.263767 0.721596 0.355555 -0.270962
C76   C     C_R   0.275762 0.288662 0.364116 -0.283769
C77   C     C_R   0.763767 0.221597 0.355555 -0.270961
C78   C     C_R   0.250231 0.285219 0.549807 0.100738
C79   C     C_R   0.775762 0.788662 0.364116 -0.283768
C80   C     C_R   0.284840 0.740278 0.465489 0.080693
C81   C     C_R   0.290582 0.263520 0.471737 0.091293
C82   C     C_R   0.784840 0.240278 0.465489 0.080692
C83   C     C_R   0.790582 0.763520 0.471737 0.091293
C84   C     C_R   0.345443 0.784473 0.496318 0.028010
C85   C     C_R   0.349445 0.217242 0.503557 0.020414
C86   C     C_R   0.845443 0.284473 0.496318 0.028010
C87   C     C_R   0.849445 0.717242 0.503557 0.020413
C88   C     C_3   0.755385 0.963269 0.180775 -0.349313
C89   C     C_R   0.779564 0.220108 0.656264 0.169884
C90   C     C_3   0.255385 0.463268 0.180775 -0.349314
C91   C     C_3   0.385141 0.004677 0.175015 -0.123436
C92   C     C_3   0.885141 0.504677 0.175015 -0.123437
C93   C     C_3   0.441564 0.783601 0.213440 -0.202129
C94   C     C_3   0.406180 0.223414 0.148272 -0.398598
C95   C     C_3   0.941564 0.283601 0.213440 -0.202128
C96   C     C_3   0.906180 0.723414 0.148272 -0.398597
H1    H     H_    0.655596 0.127500 0.766721 0.161961
H2    H     H_    0.888543 0.575251 0.009754 0.125156
H3    H     H_    0.301480 0.055510 0.848065 0.151625
H4    H     H_    0.801480 0.555510 0.848065 0.151625
H5    H     H_    0.588432 0.996331 0.776670 0.210588
H6    H     H_    0.088432 0.496331 0.776670 0.210588
H7    H     H_    0.371517 0.755473 0.768057 0.150896
H8    H     H_    0.363271 0.231850 0.776662 0.146805
H9    H     H_    0.871518 0.255473 0.768057 0.150896
H10   H     H_    0.863271 0.731850 0.776662 0.146805
H11   H     H_    0.768231 0.193253 0.819996 0.145684
H12   H     H_    0.647385 0.862014 0.766584 0.156845
H13   H     H_    0.757612 0.792576 0.823419 0.130756
H14   H     H_    0.268231 0.693253 0.819996 0.145685
H15   H     H_    0.257612 0.292575 0.823419 0.130756
H16   H     H_    0.652685 0.187750 0.437944 0.162191
H17   H     H_    0.659458 0.819315 0.436105 0.154657
H18   H     H_    0.152685 0.687750 0.437944 0.162191
H19   H     H_    0.159458 0.319315 0.436105 0.154657
H20   H     H_    0.722512 0.181519 0.327847 0.173482
H21   H     H_    0.735628 0.830074 0.336949 0.150981
H22   H     H_    0.222512 0.681519 0.327847 0.173482
H23   H     H_    0.155596 0.627501 0.766721 0.161960
H24   H     H_    0.235628 0.330074 0.336949 0.150982
H25   H     H_    0.284013 0.733767 0.195008 0.176693
H26   H     H_    0.306417 0.292129 0.211630 0.136909
H27   H     H_    0.784013 0.233767 0.195008 0.176692
H28   H     H_    0.806417 0.792129 0.211630 0.136909
H29   H     H_    0.430145 0.808555 0.631265 0.176061
H30   H     H_    0.428536 0.186145 0.642728 0.181887
H31   H     H_    0.930145 0.308555 0.631265 0.176060
H32   H     H_    0.928536 0.686145 0.642728 0.181887
H33   H     H_    0.657675 0.016981 0.311462 0.175264
H34   H     H_    0.147385 0.362014 0.766584 0.156845
H35   H     H_    0.157674 0.516981 0.311462 0.175264
H36   H     H_    0.809031 0.966118 0.160561 0.196613
H37   H     H_    0.731467 0.909170 0.147684 0.150397
H38   H     H_    0.761212 0.964173 0.269928 0.172014
H39   H     H_    0.309031 0.466118 0.160561 0.196613
H40   H     H_    0.231467 0.409170 0.147685 0.150397
H41   H     H_    0.261212 0.464173 0.269928 0.172014
H42   H     H_    0.398093 0.065123 0.183047 0.166009
H43   H     H_    0.367266 0.985464 0.248688 0.198121
H44   H     H_    0.338101 0.997274 0.111518 0.134579
H45   H     H_    0.673315 0.010915 0.937622 0.193160
H46   H     H_    0.898093 0.565123 0.183047 0.166009
H47   H     H_    0.867266 0.485464 0.248688 0.198122
H48   H     H_    0.838101 0.497273 0.111518 0.134579
H49   H     H_    0.421959 0.726564 0.186376 0.127281
H50   H     H_    0.481464 0.779502 0.288423 0.139654
H51   H     H_    0.468267 0.807178 0.149832 0.201158
H52   H     H_    0.413427 0.285517 0.153578 0.182155
H53   H     H_    0.353484 0.207683 0.102943 0.152123
H54   H     H_    0.445838 0.200958 0.102368 0.196499
H55   H     H_    0.921959 0.226564 0.186375 0.127281
H56   H     H_    0.173315 0.510915 0.937622 0.193160
H57   H     H_    0.981464 0.279502 0.288423 0.139654
H58   H     H_    0.968267 0.307178 0.149832 0.201158
H59   H     H_    0.913427 0.785517 0.153578 0.182155
H60   H     H_    0.853483 0.707683 0.102943 0.152123
H61   H     H_    0.945838 0.700958 0.102367 0.196499
H62   H     H_    0.342369 0.010539 0.683784 0.151706
H63   H     H_    0.842368 0.510539 0.683784 0.151706
H64   H     H_    0.388543 0.075251 0.009754 0.125155
N1    N     N_R   0.552340 0.000000 0.237260 -0.155671
N2    N     N_R   0.052340 0.500000 0.237260 -0.155671
N3    N     N_R   0.448170 0.000000 0.762060 -0.139568
N4    N     N_R   0.948170 0.500000 0.762060 -0.139568
O1    O     O_R   0.448200 0.076800 0.373930 -0.571914
O2    O     O_R   0.585240 0.076800 0.457600 -0.609463
O3    O     O_R   0.085240 0.423200 0.457600 -0.615110
O4    O     O_R   0.085240 0.576800 0.457600 -0.609463
O5    O     O_R   0.551780 0.923190 0.626070 -0.644337
O6    O     O_R   0.551780 0.076810 0.626070 -0.641543
O7    O     O_R   0.051780 0.423190 0.626070 -0.644337
O8    O     O_R   0.051780 0.576810 0.626070 -0.641543
O9    O     O_3   0.716617 0.026146 0.134927 -0.608350
O10   O     O_3   0.216617 0.526146 0.134927 -0.608350
O11   O     O_3   0.440132 0.958949 0.149623 -0.572458
O12   O     O_R   0.448200 0.923200 0.373930 -0.542110
O13   O     O_3   0.940132 0.458949 0.149623 -0.572458
O14   O     O_3   0.385777 0.832006 0.227536 -0.564340
O15   O     O_3   0.418268 0.190446 0.251419 -0.606539
O16   O     O_3   0.885777 0.332006 0.227536 -0.564341
O17   O     O_3   0.918268 0.690446 0.251419 -0.606539
O18   O     O_R   0.948200 0.576800 0.373930 -0.571914
O19   O     O_R   0.948200 0.423200 0.373930 -0.542110
O20   O     O_R   0.414750 0.076790 0.542400 -0.624170
O21   O     O_R   0.414750 0.923210 0.542400 -0.616301
O22   O     O_R   0.914750 0.576790 0.542400 -0.624170
O23   O     O_R   0.914750 0.423210 0.542400 -0.616301
O24   O     O_R   0.585240 0.923200 0.457600 -0.615110
Zn1   Zn    Zn3+2 0.522330 0.000000 0.387520 0.977614
Zn2   Zn    Zn3+2 0.022330 0.500000 0.387520 0.977614
Zn3   Zn    Zn3+2 0.477660 0.000000 0.612480 0.908805
Zn4   Zn    Zn3+2 0.977660 0.500000 0.612480 0.908805

loop_
_geom_bond_atom_site_label_1
_geom_bond_atom_site_label_2
_ccdc_geom_bond_type
C83   C87   A    
C5    H7    S    
C10   C85   A    
C8    C13   A    
C29   N3    A    
C74   H28   S    
C45   C82   A    
C30   N4    A    
C96   O17   S    
C80   C84   A    
C33   O5    A    
C27   O9    S    
C37   O8    A    
C39   C41   A    
C28   C57   A    
O8    Zn4   S    
C94   H53   S    
C14   H16   S    
C66   O14   S    
C52   H6    S    
C76   H24   S    
C88   H37   S    
C10   H30   S    
C36   C65   S    
C69   O16   S    
C27   C55   A    
C43   C52   A    
C23   C26   S    
C96   H59   S    
C11   C86   A    
C14   C62   A    
C12   C22   S    
C35   O2    A    
O4    Zn2   S    
C58   H11   S    
C32   C39   A    
C92   H47   S    
C22   C66   A    
C13   H32   S    
C44   C53   A    
C18   C58   A    
C57   N2    A    
C19   C63   A    
C26   C87   A    
C49   C51   A    
C49   H45   S    
C70   C74   A    
O1    Zn1   S    
C41   C46   A    
C15   H17   S    
C69   C73   A    
C18   H1    S    
C31   H3    S    
C20   C60   A    
C77   H20   S    
C92   H46   S    
C24   C85   A    
C21   C61   A    
C44   C47   A    
C72   C76   A    
C42   C51   A    
C12   O12   A    
C21   C65   A    
C43   N4    A    
C40   C42   A    
C96   H61   S    
C41   C43   A    
C13   C87   A    
C75   H22   S    
C53   O11   S    
C47   C49   A    
C1    O20   A    
C57   H35   S    
O21   Zn3   S    
C37   O4    A    
C94   H52   S    
C30   H63   S    
C35   C62   S    
C46   C48   A    
C71   C75   A    
C30   C32   A    
C93   H50   S    
C55   N1    A    
C23   O18   A    
N1    Zn1   S    
C2    C59   A    
C18   C62   A    
C39   H2    S    
C73   H27   S    
C82   C86   A    
C4    C61   A    
C36   O3    A    
C9    H29   S    
C88   O9    S    
C32   H4    S    
C16   H18   S    
O24   Zn1   S    
C95   H57   S    
C22   C84   A    
C20   C64   A    
C7    C11   A    
C90   H41   S    
C53   N1    A    
C5    C9    A    
C91   H42   S    
C90   H40   S    
C70   O17   S    
C50   C52   A    
C66   C71   A    
C1    O1    A    
C33   C63   S    
C46   C54   A    
C7    H9    S    
O20   Zn3   S    
C91   O11   S    
C34   O19   A    
C16   C67   A    
C54   N2    A    
C93   H49   S    
O23   Zn4   S    
C29   H62   S    
C91   H43   S    
C11   H31   S    
C4    C6    A    
C6    H8    S    
C74   C79   A    
C26   C70   A    
C25   C86   A    
C25   C69   A    
C88   H36   S    
C61   H15   S    
O19   Zn2   S    
N2    Zn2   S    
C37   C64   S    
C45   C89   A    
C17   H19   S    
C56   C83   A    
C75   C80   A    
C27   C47   A    
O3    Zn2   S    
C90   O10   S    
C28   C48   A    
C36   O7    A    
C73   C77   A    
C72   H26   S    
C42   N3    A    
C71   H25   S    
C2    C8    A    
C67   C80   A    
C3    C5    A    
C8    H10   S    
C76   C81   A    
C6    C10   A    
C23   O22   A    
C93   O14   S    
C31   C38   A    
C14   C45   A    
C68   C72   A    
C4    C78   A    
O18   Zn2   S    
C25   C34   S    
C68   O15   S    
C17   C65   A    
C54   O13   S    
O2    Zn1   S    
C19   C59   A    
C15   C56   A    
C95   H58   S    
C55   H33   S    
C88   H38   S    
C29   C31   A    
C2    C56   A    
C19   H12   S    
C38   C40   A    
C90   H39   S    
C78   C81   A    
C28   O10   S    
O12   Zn1   S    
C96   H60   S    
C3    C67   A    
C77   C82   A    
C12   O21   A    
C79   H21   S    
C48   C50   A    
C17   C78   A    
C59   H13   S    
O7    Zn4   S    
C93   H51   S    
C33   O24   A    
C94   O15   S    
O22   Zn4   S    
C34   O23   A    
C92   H48   S    
C58   C89   A    
C21   H34   S    
C60   H14   S    
C92   O13   S    
C24   C68   A    
C9    C84   A    
C38   H64   S    
C91   H44   S    
C79   C83   A    
C50   H56   S    
C95   O16   S    
C40   C44   A    
C95   H55   S    
C1    C24   S    
O5    Zn3   S    
C35   O6    A    
C15   C63   A    
N3    Zn3   S    
C16   C64   A    
C94   H54   S    
N4    Zn4   S    
C3    C60   A    
O6    Zn3   S    
C20   H23   S    
C81   C85   A    
C51   H5    S    
C7    C89   A    
