data_mof_unit_47775.cif
_audit_creation_date              2012-12-10T18:30:20-0500
_audit_creation_method            fapswitch 2.2
_symmetry_space_group_name_H-M    P1
_symmetry_Int_Tables_number       1
_space_group_crystal_system       triclinic
_cell_length_a                    14.800851
_cell_length_b                    14.169455
_cell_length_c                    14.99176
_cell_angle_alpha                 90.021968
_cell_angle_beta                  81.222715
_cell_angle_gamma                 103.164491
_cell_volume                      3023.66327229

loop_
_atom_site_label
_atom_site_type_symbol
_atom_type_description
_atom_site_fract_x
_atom_site_fract_y
_atom_site_fract_z
_atom_type_partial_charge
C1    C     C_R   0.559437 0.516158 0.335839 0.883798
C2    C     C_R   0.443511 0.322805 0.064850 0.151625
C3    C     C_R   0.700322 0.508915 0.961236 -0.280415
C4    C     C_R   0.372840 0.298588 0.010442 -0.283589
C5    C     C_R   0.160947 0.350720 0.363766 -0.318163
C6    C     C_R   0.846686 0.663677 0.616461 -0.314652
C7    C     C_R   0.247289 0.373713 0.393336 0.016414
C8    C     C_R   0.753613 0.623546 0.609249 -0.003928
C9    C     C_R   0.207354 0.505853 0.473490 -0.059159
C10   C     C_R   0.798120 0.512288 0.503497 -0.056968
C11   C     C_R   0.121940 0.491875 0.438835 -0.038649
C12   C     C_R   0.440472 0.483737 0.664583 0.874041
C13   C     C_R   0.894304 0.555844 0.500893 -0.042429
C14   C     C_R   0.095832 0.408838 0.386828 0.116079
C15   C     C_R   0.919218 0.631655 0.561378 0.115140
C16   C     C_R   0.499306 0.329118 0.499833 0.889340
C17   C     C_R   0.500581 0.670858 0.500354 0.880996
C18   C     C_R   0.058797 0.552822 0.461883 -0.035392
C19   C     C_R   0.965672 0.520994 0.445526 -0.040399
C20   C     C_R   0.948132 0.453773 0.376139 0.116375
C21   C     C_R   0.084502 0.643940 0.501851 0.106428
C22   C     C_R   0.007297 0.388159 0.356579 0.165169
C23   C     C_R   0.580890 0.456250 0.091901 0.046172
C24   C     C_R   0.015343 0.676358 0.562117 0.163607
C25   C     C_1   0.498061 0.227323 0.499400 -0.222305
C26   C     C_1   0.501776 0.772649 0.500360 -0.223039
C27   C     C_1   0.498174 0.142106 0.499277 -0.016651
C28   C     C_1   0.501480 0.857818 0.500054 -0.015117
C29   C     C_1   0.499174 0.042422 0.499380 -0.002126
C30   C     C_1   0.500308 0.957453 0.499637 -0.001394
C31   C     C_R   0.599267 0.523694 0.238844 -0.127289
C32   C     C_R   0.404772 0.450906 0.760427 -0.163866
C33   C     C_R   0.726680 0.575091 0.110999 0.149293
C34   C     C_R   0.465715 0.413246 0.893943 0.044425
C35   C     C_R   0.303141 0.335014 0.876747 0.167389
C36   C     C_R   0.687487 0.585452 0.202800 0.134728
C37   C     C_R   0.316093 0.386986 0.791868 0.120188
C38   C     C_R   0.546261 0.465482 0.182182 -0.297649
C39   C     C_R   0.471657 0.470803 0.817578 -0.272269
C40   C     C_3   0.879128 0.464336 0.312771 -0.417392
C41   C     C_3   0.928039 0.488650 0.215248 -0.902546
C42   C     C_3   0.178928 0.712813 0.466639 -0.419283
C43   C     C_3   0.166366 0.802765 0.417893 -0.869950
C44   C     C_3   0.234473 0.380391 0.739475 -0.392870
C45   C     C_R   0.670704 0.513258 0.054826 0.066277
C46   C     C_3   0.226733 0.296440 0.674636 -0.820052
C47   C     C_3   0.732216 0.668833 0.258851 -0.408742
C48   C     C_3   0.670635 0.742121 0.277576 -0.835851
C49   C     C_3   0.825967 0.631031 0.072280 -0.434970
C50   C     C_3   0.825291 0.726418 0.025255 -0.859539
C51   C     C_3   0.209117 0.266373 0.913675 -0.419225
C52   C     C_3   0.152572 0.313528 0.987244 -0.893327
C53   C     C_3   0.678453 0.448314 0.807156 -0.399411
C54   C     C_3   0.656147 0.340903 0.785560 -0.813825
C55   C     C_3   0.439774 0.252847 0.143605 -0.408775
C56   C     C_R   0.379486 0.348267 0.927242 0.064694
C57   C     C_3   0.529209 0.214852 0.137067 -0.842240
C58   C     C_3   0.973650 0.294704 0.308158 -0.425113
C59   C     C_3   0.946581 0.206727 0.373849 -0.883800
C60   C     C_3   0.044532 0.754361 0.629171 -0.418164
C61   C     C_3   0.033987 0.709864 0.724178 -0.896110
C62   C     C_R   0.522349 0.400663 0.035003 0.046774
C63   C     C_R   0.542150 0.426593 0.942527 0.039786
C64   C     C_R   0.637586 0.465233 0.904109 0.137700
H1    H     H_    0.774280 0.449712 0.465108 0.130052
H2    H     H_    0.971985 0.437681 0.190020 0.260442
H3    H     H_    0.873991 0.484361 0.170809 0.248810
H4    H     H_    0.821894 0.397798 0.316105 0.198160
H5    H     H_    0.845564 0.525422 0.331472 0.211150
H6    H     H_    0.127480 0.780792 0.360611 0.262052
H7    H     H_    0.127535 0.846549 0.463680 0.251868
H8    H     H_    0.236395 0.849197 0.390767 0.252715
H9    H     H_    0.220876 0.733672 0.521878 0.200047
H10   H     H_    0.221942 0.678388 0.415174 0.223368
H11   H     H_    0.530153 0.532489 0.800991 0.158303
H12   H     H_    0.226621 0.561094 0.521179 0.126558
H13   H     H_    0.473990 0.433039 0.208111 0.172809
H14   H     H_    0.171148 0.298895 0.633192 0.244387
H15   H     H_    0.293895 0.301046 0.628786 0.280994
H16   H     H_    0.208387 0.225501 0.712067 0.230737
H17   H     H_    0.167064 0.373362 0.785669 0.196371
H18   H     H_    0.240361 0.449560 0.702170 0.215609
H19   H     H_    0.601174 0.708505 0.317064 0.244634
H20   H     H_    0.705745 0.802226 0.316853 0.245749
H21   H     H_    0.659915 0.772900 0.212915 0.254022
H22   H     H_    0.747012 0.641481 0.322897 0.224019
H23   H     H_    0.698452 0.653192 0.646404 0.128758
H24   H     H_    0.800869 0.711640 0.225755 0.210083
H25   H     H_    0.783821 0.713043 0.968892 0.257708
H26   H     H_    0.794459 0.774012 0.073837 0.264002
H27   H     H_    0.898384 0.764579 0.997427 0.245452
H28   H     H_    0.872529 0.645322 0.124184 0.198204
H29   H     H_    0.862556 0.586514 0.025218 0.194867
H30   H     H_    0.191444 0.333741 0.044704 0.262508
H31   H     H_    0.137216 0.379729 0.959300 0.258564
H32   H     H_    0.084985 0.261938 0.012934 0.248279
H33   H     H_    0.164922 0.242433 0.861203 0.214795
H34   H     H_    0.298349 0.330969 0.372826 0.130060
H35   H     H_    0.219704 0.196961 0.939308 0.191408
H36   H     H_    0.679892 0.297996 0.835603 0.251594
H37   H     H_    0.579657 0.313154 0.786017 0.261696
H38   H     H_    0.693252 0.331076 0.717220 0.246087
H39   H     H_    0.655538 0.490134 0.756506 0.216484
H40   H     H_    0.756286 0.473620 0.796167 0.198530
H41   H     H_    0.519843 0.157466 0.190329 0.244388
H42   H     H_    0.544228 0.183342 0.070068 0.258937
H43   H     H_    0.590133 0.273686 0.147198 0.261650
H44   H     H_    0.424928 0.283646 0.210420 0.190640
H45   H     H_    0.147825 0.288887 0.321583 0.154878
H46   H     H_    0.380639 0.188394 0.143501 0.198808
H47   H     H_    0.006693 0.197899 0.406439 0.262097
H48   H     H_    0.888168 0.214813 0.427209 0.261872
H49   H     H_    0.922673 0.140033 0.336849 0.250713
H50   H     H_    0.027726 0.285091 0.251108 0.194728
H51   H     H_    0.910631 0.294947 0.277063 0.224566
H52   H     H_    0.960597 0.670375 0.748764 0.259844
H53   H     H_    0.080614 0.658524 0.724326 0.258009
H54   H     H_    0.054569 0.768136 0.771686 0.251176
H55   H     H_    0.118705 0.794060 0.611905 0.221099
H56   H     H_    0.859974 0.722169 0.662300 0.157416
H57   H     H_    0.003730 0.811029 0.628948 0.195147
H58   H     H_    0.770707 0.543188 0.929976 0.154132
H59   H     H_    0.312220 0.241821 0.035575 0.153860
H60   H     H_    0.973450 0.563191 0.210033 0.259466
N1    N     N_R   0.268300 0.449640 0.447270 -0.085378
N2    N     N_R   0.731700 0.550360 0.552730 -0.088666
O1    O     O_R   0.616880 0.525390 0.394380 -0.607338
O2    O     O_R   0.383120 0.474610 0.605620 -0.598855
O3    O     O_R   0.468100 0.493070 0.360490 -0.603712
O4    O     O_R   0.531900 0.506930 0.639510 -0.605718
O5    O     O_R   0.574410 0.389880 0.516950 -0.587919
O6    O     O_R   0.425590 0.610120 0.483050 -0.596414
O7    O     O_R   0.425630 0.357560 0.483060 -0.610308
O8    O     O_R   0.574370 0.642440 0.516940 -0.589427
Zn1   Zn    Zn3+2 0.599340 0.521580 0.522630 0.916327
Zn2   Zn    Zn3+2 0.400660 0.478420 0.477370 0.912243

loop_
_geom_bond_atom_site_label_1
_geom_bond_atom_site_label_2
_ccdc_geom_bond_type
C51   H33   S    
C57   H41   S    
C11   C18   A    
C34   C56   A    
C43   H8    S    
C23   C45   A    
C7    H34   S    
C27   C29   S    
C18   C21   A    
C33   C45   A    
C54   H37   S    
O4    Zn1   S    
C41   H3    S    
C53   C54   S    
C62   C63   A    
C12   O4    A    
C36   C47   S    
C17   C26   S    
C41   H60   S    
C35   C37   A    
O1    Zn1   S    
C44   H18   S    
C2    C55   S    
O2    Zn2   S    
C46   H15   S    
C20   C40   S    
C11   C14   A    
C53   H40   S    
C33   C49   S    
C1    C31   S    
C33   C36   A    
C60   H55   S    
C52   H31   S    
C18   C19   A    
C32   C39   A    
C16   O5    A    
C6    C15   A    
C50   H26   S    
C23   C62   A    
C19   C20   A    
O7    Zn2   S    
C59   H47   S    
C52   H30   S    
C9    H12   S    
C39   H11   S    
C3    H58   S    
O6    Zn2   S    
C57   H42   S    
C35   C56   A    
C1    O3    A    
C12   C32   S    
C17   O6    A    
C54   H36   S    
C16   O7    A    
C6    H56   S    
C44   C46   S    
C51   H35   S    
C42   H10   S    
C40   H5    S    
C13   C19   A    
C63   C64   A    
C61   H53   S    
C51   C52   S    
C47   H22   S    
C44   H17   S    
C46   H14   S    
C6    C8    A    
C58   C59   S    
C3    C64   A    
C3    C45   A    
C9    N1    A    
C34   C39   A    
C4    H59   S    
C60   C61   S    
C2    C4    A    
C29   C30   T    
O3    Zn2   S    
C50   H25   S    
C47   C48   S    
C24   C60   S    
C61   H52   S    
C59   H48   S    
C32   C37   A    
C7    N1    A    
C9    C11   A    
C5    C14   A    
O8    Zn1   S    
N1    Zn2   S    
C8    N2    A    
C40   C41   S    
C57   H43   S    
C20   C22   A    
N2    Zn1   S    
C43   H6    S    
C55   C57   S    
C55   H46   S    
C35   C51   S    
C58   H51   S    
C42   C43   S    
C49   H28   S    
C5    C7    A    
C10   H1    S    
C16   C25   S    
C15   C24   A    
C42   H9    S    
C43   H7    S    
C61   H54   S    
C31   C36   A    
O5    Zn1   S    
C54   H38   S    
C1    O1    A    
C59   H49   S    
C10   C13   A    
C22   C58   S    
C48   H19   S    
C41   H2    S    
C12   O2    A    
C38   H13   S    
C25   C27   T    
C23   C38   A    
C26   C28   T    
C31   C38   A    
C55   H44   S    
C8    H23   S    
C47   H24   S    
C14   C22   A    
C37   C44   S    
C13   C15   A    
C46   H16   S    
C5    H45   S    
C53   H39   S    
C28   C30   S    
C34   C63   A    
C53   C64   S    
C52   H32   S    
C60   H57   S    
C21   C42   S    
C48   H20   S    
C50   H27   S    
C49   C50   S    
C40   H4    S    
C21   C24   A    
C17   O8    A    
C58   H50   S    
C48   H21   S    
C49   H29   S    
C10   N2    A    
C4    C56   A    
C2    C62   A    
