data_mof_unit_23691.cif
_audit_creation_date              2013-03-05T15:46:19-0500
_audit_creation_method            fapswitch 2.2
_symmetry_space_group_name_H-M    P1
_symmetry_Int_Tables_number       1
_space_group_crystal_system       triclinic
_cell_length_a                    17.493297
_cell_length_b                    24.479793
_cell_length_c                    14.978828
_cell_angle_alpha                 90.360619
_cell_angle_beta                  126.42294
_cell_angle_gamma                 89.483258
_cell_volume                      5161.18725023

loop_
_atom_site_label
_atom_site_type_symbol
_atom_site_description
_atom_site_fract_x
_atom_site_fract_y
_atom_site_fract_z
_atom_type_partial_charge
C1    C     C_R   0.809030 0.625243 0.908227 -0.103245
C2    C     C_R   0.152289 0.348728 0.092959 -0.104603
C3    C     C_R   0.153713 0.650525 0.093298 -0.104385
C4    C     C_R   0.812357 0.371093 0.906880 -0.116295
C5    C     C_R   0.310257 0.126764 0.906970 -0.114731
C6    C     C_R   0.647157 0.846536 0.090219 -0.096757
C7    C     C_R   0.652924 0.150773 0.093306 -0.105502
C8    C     C_R   0.312460 0.871009 0.906922 -0.122458
H1    H     H_    0.750115 0.631177 0.822583 0.100815
H2    H     H_    0.196519 0.334741 0.178051 0.144088
H3    H     H_    0.198119 0.664508 0.178446 0.141659
H4    H     H_    0.756696 0.360018 0.822035 0.117158
H5    H     H_    0.254092 0.137906 0.822360 0.116536
H6    H     H_    0.686454 0.832577 0.174936 0.133906
H7    H     H_    0.697215 0.164691 0.178506 0.142257
H8    H     H_    0.256961 0.859721 0.822172 0.116185
N1    N     N_R   0.892620 0.603790 0.941800 -0.048896
N2    N     N_R   0.107380 0.396210 0.058200 -0.047546
N3    N     N_R   0.107380 0.603790 0.058200 -0.046387
N4    N     N_R   0.892620 0.396210 0.941800 -0.048808
N5    N     N_R   0.392620 0.103790 0.941800 -0.048989
N6    N     N_R   0.607380 0.896210 0.058200 -0.047710
N7    N     N_R   0.607380 0.103790 0.058200 -0.046548
N8    N     N_R   0.392620 0.896210 0.941800 -0.050186
C9    C     C_R   0.906194 0.375080 0.093627 -0.085211
C10   C     C_R   0.058607 0.650140 0.908225 -0.081522
C11   C     C_R   0.057290 0.349171 0.908058 -0.081419
C12   C     C_R   0.904745 0.624257 0.093910 -0.079666
C13   C     C_R   0.406271 0.875023 0.093657 -0.085206
C14   C     C_R   0.557901 0.150423 0.908349 -0.080579
C15   C     C_R   0.552252 0.848336 0.906636 -0.084951
C16   C     C_R   0.403900 0.122747 0.093295 -0.085019
H9    H     H_    0.934395 0.367652 0.178954 0.149014
H10   H     H_    0.014961 0.665882 0.824998 0.177953
H11   H     H_    0.013241 0.333475 0.824725 0.178209
H12   H     H_    0.934840 0.629886 0.179687 0.145907
H13   H     H_    0.434538 0.867476 0.178964 0.149115
H14   H     H_    0.513985 0.166162 0.825112 0.177679
H15   H     H_    0.500790 0.835473 0.823310 0.166092
H16   H     H_    0.431487 0.130257 0.178479 0.148555
N9    N     N_R   0.952210 0.397600 0.057910 -0.033171
N10   N     N_R   0.047790 0.602400 0.942090 -0.063806
N11   N     N_R   0.047790 0.397600 0.942090 -0.064268
N12   N     N_R   0.952210 0.602400 0.057910 -0.034280
N13   N     N_R   0.452210 0.897600 0.057910 -0.033819
N14   N     N_R   0.547790 0.102400 0.942090 -0.064026
N15   N     N_R   0.547790 0.897600 0.942090 -0.065673
N16   N     N_R   0.452210 0.102400 0.057910 -0.032339
C17   C     C_R   0.054559 0.545631 0.307004 0.253175
C18   C     C_R   0.010038 0.453647 0.741200 0.297999
C19   C     C_R   0.009831 0.545684 0.741157 0.297168
C20   C     C_R   0.054349 0.454485 0.306666 0.257468
C21   C     C_R   0.553703 0.045685 0.306676 0.256806
C22   C     C_R   0.512732 0.953680 0.744141 0.302366
C23   C     C_R   0.511899 0.045660 0.743377 0.295755
C24   C     C_R   0.553874 0.954503 0.306518 0.258398
N17   N     N_R   0.026300 0.529110 0.206760 -0.114433
N18   N     N_R   0.973700 0.470890 0.793240 -0.106562
N19   N     N_R   0.973700 0.529110 0.793240 -0.106240
N20   N     N_R   0.026300 0.470890 0.206760 -0.113124
N21   N     N_R   0.526300 0.029110 0.206760 -0.112712
N22   N     N_R   0.473700 0.970890 0.793240 -0.108070
N23   N     N_R   0.473700 0.029110 0.793240 -0.106180
N24   N     N_R   0.526300 0.970890 0.206760 -0.112473
C25   C     C_R   0.738868 0.454686 0.700015 -0.115395
C26   C     C_R   0.268256 0.544944 0.246874 -0.100789
C27   C     C_R   0.268279 0.454067 0.247813 -0.090045
C28   C     C_R   0.738693 0.545470 0.700032 -0.117646
C29   C     C_R   0.237748 0.954604 0.701657 -0.115639
C30   C     C_R   0.768082 0.044941 0.246231 -0.099867
C31   C     C_R   0.767984 0.954066 0.246350 -0.090010
C32   C     C_R   0.237434 0.045477 0.701543 -0.113449
H17   H     H_    0.724087 0.412842 0.671147 0.123546
H18   H     H_    0.291649 0.586853 0.264497 0.113812
H19   H     H_    0.291239 0.411921 0.265639 0.110440
H20   H     H_    0.724301 0.587165 0.670545 0.120771
H21   H     H_    0.222833 0.912815 0.672486 0.119497
H22   H     H_    0.791443 0.086860 0.264080 0.113163
H23   H     H_    0.790600 0.911796 0.263046 0.115079
H24   H     H_    0.222284 0.087158 0.671945 0.119959
N25   N     N_R   0.818530 0.472270 0.792960 -0.046041
N26   N     N_R   0.181470 0.527730 0.207040 -0.038914
N27   N     N_R   0.181470 0.472270 0.207040 -0.040116
N28   N     N_R   0.818530 0.527730 0.792960 -0.046721
N29   N     N_R   0.318530 0.972270 0.792960 -0.045397
N30   N     N_R   0.681470 0.027730 0.207040 -0.039644
N31   N     N_R   0.681470 0.972270 0.207040 -0.040856
N32   N     N_R   0.318530 0.027730 0.792960 -0.045226
C33   C     C_R   0.813203 0.637580 0.002333 0.016203
C34   C     C_R   0.121543 0.319063 0.000399 0.004678
C35   C     C_R   0.124519 0.679626 0.000825 0.005938
C36   C     C_R   0.820106 0.357470 0.001122 0.004140
C37   C     C_R   0.316353 0.138928 0.000848 0.000795
C38   C     C_R   0.613050 0.814780 0.996451 0.021592
C39   C     C_R   0.623298 0.180111 0.000949 0.006240
C40   C     C_R   0.320230 0.857416 0.001153 0.008134
C41   C     C_R   0.072765 0.500118 0.370090 -0.238334
C42   C     C_R   0.037359 0.499427 0.713000 -0.292989
C43   C     C_R   0.571577 0.000157 0.369692 -0.243400
C44   C     C_R   0.540730 0.999428 0.716616 -0.288644
C45   C     C_R   0.688025 0.500183 0.641870 0.025795
C46   C     C_R   0.323499 0.499140 0.271213 -0.018317
C47   C     C_R   0.185874 0.000083 0.644729 0.024798
C48   C     C_R   0.823279 0.999195 0.269719 -0.015759
Ni1   Ni    Ni4+2 0.934150 0.565840 0.869060 0.252837
Ni2   Ni    Ni4+2 0.065850 0.434160 0.130940 0.282039
Ni3   Ni    Ni4+2 0.065850 0.565840 0.130940 0.283520
Ni4   Ni    Ni4+2 0.934150 0.434160 0.869060 0.250904
Ni5   Ni    Ni4+2 0.434150 0.065840 0.869060 0.252340
Ni6   Ni    Ni4+2 0.565850 0.934160 0.130940 0.279829
Ni7   Ni    Ni4+2 0.565850 0.065840 0.130940 0.284068
Ni8   Ni    Ni4+2 0.434150 0.934160 0.869060 0.244924
C49   C     C_3   0.519999 0.461204 0.516331 -0.152864
C50   C     C_3   0.500052 0.538142 0.376382 -0.151035
C51   C     C_3   0.492007 0.449945 0.399033 -0.152922
C52   C     C_3   0.528375 0.549145 0.494112 -0.158095
C53   C     C_3   0.020654 0.956962 0.511124 -0.156684
C54   C     C_3   0.997121 0.042222 0.384391 -0.152305
C55   C     C_3   0.994903 0.952363 0.393360 -0.152233
C56   C     C_3   0.022969 0.046555 0.502298 -0.156663
C57   C     C_3   0.451431 0.510002 0.473715 -0.122110
C58   C     C_3   0.570616 0.489078 0.420703 -0.120208
C59   C     C_3   0.948479 0.003496 0.474157 -0.118664
C60   C     C_3   0.071132 0.995495 0.422864 -0.117098
H25   H     H_    0.400804 0.518506 0.493969 0.135678
H26   H     H_    0.622818 0.480629 0.402932 0.132825
H27   H     H_    0.896334 0.006718 0.493520 0.135342
H28   H     H_    0.124744 0.992294 0.405870 0.132680
H29   H     H_    0.529901 0.429962 0.575879 0.128026
H30   H     H_    0.488935 0.569277 0.316076 0.125773
H31   H     H_    0.474819 0.409560 0.357351 0.126236
H32   H     H_    0.544471 0.589691 0.535021 0.125877
H33   H     H_    0.031969 0.922306 0.565349 0.128499
H34   H     H_    0.984675 0.076775 0.329463 0.126492
H35   H     H_    0.980809 0.914097 0.345831 0.130277
H36   H     H_    0.035974 0.084940 0.549141 0.129191
C61   C     C_3   0.424065 0.498915 0.357172 0.169763
C62   C     C_3   0.596407 0.500262 0.536256 0.166418
C63   C     C_3   0.923498 0.999051 0.357316 0.168257
C64   C     C_3   0.094560 0.999996 0.538692 0.164755
C65   C     C_R   0.671877 0.319899 0.952253 -0.227895
C66   C     C_R   0.267726 0.721208 0.053477 -0.219071
C67   C     C_R   0.262372 0.277552 0.043821 -0.217906
C68   C     C_R   0.656246 0.683326 0.900966 -0.206834
C69   C     C_R   0.172533 0.819657 0.953044 -0.228075
C70   C     C_R   0.766865 0.221702 0.054622 -0.217135
C71   C     C_R   0.701839 0.730196 0.096147 -0.204789
C72   C     C_R   0.170735 0.176883 0.961179 -0.229291
H37   H     H_    0.636337 0.358233 0.912672 0.136043
H38   H     H_    0.303510 0.682425 0.089906 0.131702
H39   H     H_    0.296599 0.317073 0.073694 0.133743
H40   H     H_    0.635351 0.664497 0.824043 0.124454
H41   H     H_    0.136929 0.858086 0.914200 0.136559
H42   H     H_    0.802639 0.183002 0.091770 0.131540
H43   H     H_    0.719031 0.746623 0.173212 0.139950
H44   H     H_    0.136508 0.137608 0.928946 0.137277
C73   C     C_R   0.121789 0.775995 0.951098 0.047003
C74   C     C_R   0.817215 0.264184 0.054810 0.039801
C75   C     C_R   0.751737 0.684335 0.100844 0.038520
C76   C     C_R   0.120108 0.221315 0.958991 0.049944
C77   C     C_R   0.620898 0.276393 0.950502 0.049878
C78   C     C_R   0.317815 0.763846 0.053662 0.041621
C79   C     C_R   0.312219 0.234124 0.044358 0.041286
C80   C     C_R   0.603301 0.727498 0.895734 0.037789
C81   C     C_R   0.170809 0.727161 0.002395 0.080487
C82   C     C_R   0.769301 0.313687 0.004747 0.074755
C83   C     C_R   0.738506 0.666252 0.002755 0.062810
C84   C     C_R   0.167512 0.271159 0.001447 0.079336
C85   C     C_R   0.669790 0.227649 0.002668 0.081190
C86   C     C_R   0.269798 0.813466 0.004719 0.073000
C87   C     C_R   0.266104 0.183491 0.004436 0.074668
C88   C     C_R   0.635385 0.756321 0.994554 0.062766
C89   C     C_R   0.140212 0.498096 0.654240 -0.107590
C90   C     C_R   0.976648 0.501528 0.434403 -0.174129
C91   C     C_R   0.149593 0.498652 0.569005 -0.022773
C92   C     C_R   0.967366 0.500856 0.518792 -0.045432
C93   C     C_R   0.642286 0.000784 0.655645 -0.101277
C94   C     C_R   0.477413 0.998447 0.436594 -0.171325
C95   C     C_R   0.650406 0.001320 0.569349 -0.025045
C96   C     C_R   0.469387 0.997823 0.521980 -0.049265
H45   H     H_    0.202742 0.496900 0.739745 0.120031
H46   H     H_    0.913584 0.502792 0.349111 0.115778
H47   H     H_    0.219401 0.497673 0.586948 0.120648
H48   H     H_    0.897184 0.501786 0.499981 0.126825
H49   H     H_    0.705327 0.001839 0.740813 0.121487
H50   H     H_    0.413814 0.997529 0.351653 0.116628
H51   H     H_    0.719770 0.002582 0.586213 0.120381
H52   H     H_    0.399603 0.996624 0.504161 0.128610
C97   C     C_R   0.067427 0.500362 0.460255 0.236212
C98   C     C_R   0.049088 0.499184 0.627642 0.250363
C99   C     C_R   0.567578 0.000214 0.460967 0.238282
C100  C     C_R   0.551717 0.999020 0.630487 0.246389
N33   N     N_R   0.094263 0.598463 0.352148 0.234435
O1    O     O_R   0.114024 0.613619 0.447109 -0.368174
O2    O     O_R   0.117480 0.630135 0.302450 -0.427223
N34   N     N_R   0.988518 0.401870 0.686695 0.224316
O3    O     O_R   0.906461 0.379558 0.644889 -0.421783
O4    O     O_R   0.044379 0.380714 0.665068 -0.375473
N35   N     N_R   0.987591 0.597252 0.686223 0.223480
O5    O     O_R   0.043061 0.617794 0.664253 -0.377399
O6    O     O_R   0.905531 0.620149 0.645011 -0.421616
N36   N     N_R   0.093654 0.401347 0.351114 0.234187
O7    O     O_R   0.117647 0.369384 0.301690 -0.427711
O8    O     O_R   0.112034 0.386067 0.445097 -0.367377
N37   N     N_R   0.592224 0.098749 0.351481 0.234004
O9    O     O_R   0.610613 0.114051 0.445701 -0.366750
O10   O     O_R   0.615170 0.130702 0.301872 -0.426640
N38   N     N_R   0.493521 0.901668 0.691039 0.224025
O11   O     O_R   0.409542 0.880425 0.641323 -0.425529
O12   O     O_R   0.553578 0.879902 0.676620 -0.376733
N39   N     N_R   0.490458 0.097173 0.688446 0.224395
O13   O     O_R   0.547511 0.117826 0.669013 -0.375537
O14   O     O_R   0.407876 0.119920 0.644852 -0.419216
N40   N     N_R   0.593261 0.901413 0.351272 0.234165
O15   O     O_R   0.617518 0.869407 0.302174 -0.432381
O16   O     O_R   0.611788 0.886316 0.445422 -0.367281
C101  C     C_1   0.021236 0.782065 0.898245 0.076244
N41   N     N_1   0.940660 0.786865 0.855917 -0.048463
C102  C     C_1   0.916152 0.254720 0.101153 0.096423
N42   N     N_1   0.995175 0.247147 0.138101 -0.047831
C103  C     C_1   0.813357 0.657122 0.206458 0.053554
N43   N     N_1   0.862098 0.635401 0.291398 -0.032210
C104  C     C_1   0.021429 0.215179 0.914725 0.074035
N44   N     N_1   0.942355 0.210345 0.879279 -0.057168
C105  C     C_1   0.520239 0.282526 0.896958 0.072705
N45   N     N_1   0.439581 0.287373 0.854096 -0.053249
C106  C     C_1   0.416479 0.754464 0.098628 0.090788
N46   N     N_1   0.495257 0.746956 0.134394 -0.054824
C107  C     C_1   0.408639 0.243343 0.081210 0.099308
N47   N     N_1   0.485632 0.250693 0.110574 -0.054038
C108  C     C_1   0.517929 0.740622 0.787701 0.086457
N48   N     N_1   0.449352 0.750209 0.700378 -0.011364

loop_
_geom_bond_atom_site_label_1
_geom_bond_atom_site_label_2
_geom_bond_distance
_ccdc_geom_bond_type
C4    C36   1.378470 A    
C31   C48   1.375126 A    
C27   N27   1.329492 A    
C52   H32   1.110156 S    
C2    N2    1.320897 A    
C16   N16   1.328238 A    
C26   C46   1.375244 A    
C29   H21   1.081343 S    
C104  N44   1.157304 T    
C8    C40   1.377936 A    
C25   C45   1.365490 A    
C42   C98   1.410050 S    
N29   Ni8   1.871391 S    
C71   C75   1.391992 A    
C90   H46   1.084633 S    
C31   H23   1.080818 S    
C78   C106  1.449021 S    
C27   H19   1.079666 S    
C65   H37   1.085070 S    
N31   Ni6   1.882391 S    
C51   H31   1.110071 S    
C55   C60   1.551802 S    
C21   C43   1.373815 A    
C76   C84   1.401133 A    
C65   C77   1.385375 A    
C10   N10   1.335796 A    
C65   C82   1.396931 A    
C14   C39   1.370700 A    
C49   H29   1.110521 S    
C80   C108  1.442315 S    
N8    N13   1.399862 A    
C30   H22   1.079745 S    
C53   C55   1.543376 S    
N40   O16   1.300802 A    
N29   N32   1.357652 A    
C95   H51   1.083381 S    
C93   H49   1.083403 S    
N15   Ni8   1.829598 S    
C6    N6    1.337401 A    
C59   C63   1.534954 S    
C20   C41   1.372559 A    
C72   C87   1.396139 A    
C25   H17   1.081432 S    
C14   H14   1.075364 S    
C11   C34   1.368013 A    
C3    C35   1.361143 A    
C72   C76   1.384580 A    
C50   C61   1.528780 S    
C57   C61   1.534346 S    
C2    C34   1.359292 A    
C33   C83   1.480999 S    
C20   N20   1.331739 A    
C7    C39   1.361101 A    
C38   C88   1.484574 S    
C69   C86   1.396432 A    
C18   N34   1.430166 S    
C10   H10   1.075187 S    
C2    H2    1.081705 S    
C51   C61   1.530242 S    
C75   C83   1.413519 A    
N38   O11   1.301133 A    
N6    Ni6   1.868971 S    
C32   C47   1.366492 A    
C23   N23   1.330370 A    
C23   C44   1.385629 A    
C21   N37   1.435150 S    
C24   N24   1.332121 A    
C48   C63   1.436505 S    
C3    N3    1.321131 A    
C12   C33   1.392889 A    
C56   C64   1.528412 S    
C4    H4    1.080597 S    
C71   H43   1.081096 S    
C24   N40   1.435091 S    
C54   H34   1.110195 S    
N3    N10   1.399862 A    
C60   H28   1.110141 S    
N5    N16   1.399937 A    
C77   C85   1.402010 A    
C58   H26   1.109997 S    
C19   C42   1.384690 A    
C67   H39   1.086993 S    
N6    N15   1.399937 A    
N25   Ni4   1.871391 S    
C53   H33   1.110562 S    
N35   O5    1.301092 A    
C8    H8    1.080437 S    
C93   C100  1.395026 A    
C15   N15   1.334890 A    
C70   C85   1.392210 A    
C68   C80   1.389236 A    
C50   H30   1.109996 S    
C22   C44   1.385468 A    
C44   C100  1.412684 S    
C21   N21   1.333504 A    
C4    N4    1.327584 A    
C5    C37   1.376457 A    
N24   Ni6   1.867059 S    
C96   H52   1.084425 S    
C32   N32   1.328880 A    
C107  N47   1.157484 T    
C60   C64   1.531098 S    
N4    N9    1.399862 A    
C52   C62   1.529215 S    
C29   C47   1.365613 A    
C67   C84   1.390599 A    
C20   N36   1.435028 S    
C18   C42   1.384975 A    
N36   O7    1.300857 A    
C68   C83   1.400679 A    
C28   N28   1.328473 A    
C1    H1    1.076388 S    
C28   C45   1.364634 A    
C58   C62   1.530778 S    
N34   O4    1.301049 A    
C91   C97   1.393069 A    
C96   C100  1.391846 A    
C9    N9    1.327098 A    
C102  N42   1.157489 T    
N40   O15   1.300821 A    
C74   C102  1.448833 S    
N17   N20   1.425211 A    
C22   N22   1.331084 A    
N33   O2    1.300855 A    
N18   N19   1.425211 A    
C75   C103  1.443508 S    
C23   N39   1.430345 S    
C12   N12   1.336605 A    
C55   H35   1.110156 S    
C19   N35   1.430415 S    
C13   N13   1.326907 A    
C50   C52   1.544899 S    
C56   H36   1.110417 S    
C5    N5    1.326978 A    
C18   N18   1.330143 A    
N23   Ni5   1.867058 S    
N21   N24   1.425211 A    
C70   H42   1.086823 S    
N2    Ni2   1.868971 S    
N39   O13   1.300921 A    
C57   H25   1.111155 S    
C103  N43   1.157850 T    
C94   H50   1.084551 S    
N1    Ni1   1.868971 S    
C26   N26   1.330835 A    
C26   H18   1.079619 S    
C69   C73   1.384628 A    
C25   N25   1.328512 A    
C106  N46   1.157543 T    
C78   C86   1.407144 A    
N16   Ni7   1.829599 S    
N22   N23   1.425211 A    
C73   C101  1.444314 S    
C105  N45   1.157300 T    
C95   C99   1.393760 A    
N19   Ni1   1.867058 S    
C90   C92   1.366918 A    
C54   C60   1.553179 S    
N26   Ni3   1.871390 S    
C51   C58   1.550424 S    
C39   C85   1.417112 S    
N35   O6    1.301347 A    
C89   C91   1.380641 A    
N36   O8    1.300774 A    
C67   C79   1.365896 A    
C31   N31   1.329909 A    
N32   Ni5   1.882392 S    
N39   O14   1.301277 A    
N26   N27   1.357652 A    
C22   N38   1.429799 S    
C15   C38   1.383802 A    
N9    Ni2   1.840372 S    
C80   C88   1.418221 A    
C53   C64   1.528697 S    
C19   N19   1.329241 A    
C73   C81   1.401960 A    
C54   C63   1.529354 S    
C30   N30   1.330395 A    
C59   H27   1.111309 S    
N25   N28   1.357652 A    
C79   C87   1.407325 A    
C29   N29   1.327761 A    
C74   C82   1.407180 A    
C91   H47   1.083453 S    
N30   N31   1.357652 A    
C41   C97   1.407986 S    
N12   Ni3   1.829599 S    
C92   C98   1.391286 A    
C92   H48   1.084430 S    
C11   N11   1.335063 A    
N37   O9    1.300769 A    
C71   C88   1.405090 A    
C37   C87   1.415499 S    
C9    C36   1.378406 A    
C1    C33   1.398699 A    
C34   C84   1.410791 S    
N13   Ni6   1.840372 S    
C30   C48   1.375599 A    
C5    H5    1.080185 S    
C14   N14   1.336470 A    
N34   O3    1.301315 A    
C79   C107  1.449232 S    
C66   C78   1.367772 A    
C13   C40   1.377959 A    
C94   C96   1.367209 A    
C45   C62   1.435442 S    
C56   C59   1.534171 S    
C70   C74   1.367791 A    
N20   Ni2   1.867059 S    
C28   H20   1.081319 S    
C49   C57   1.532220 S    
N7    Ni7   1.882255 S    
N17   Ni3   1.879909 S    
C1    N1    1.335354 A    
N27   Ni2   1.882391 S    
C11   H11   1.075467 S    
C66   H38   1.086824 S    
N30   Ni7   1.871390 S    
C10   C35   1.370259 A    
N1    N12   1.399937 A    
C55   C63   1.529445 S    
C6    H6    1.079332 S    
C32   H24   1.081278 S    
N2    N11   1.399937 A    
C66   C81   1.391971 A    
C43   C99   1.409850 S    
C94   C99   1.392925 A    
C6    C38   1.390160 A    
C17   N17   1.333078 A    
C17   N33   1.435190 S    
C93   C95   1.381835 A    
N21   Ni7   1.879909 S    
C7    N7    1.321177 A    
N28   Ni1   1.882392 S    
C101  N41   1.157282 T    
C7    H7    1.081742 S    
C8    N8    1.327205 A    
C69   H41   1.085116 S    
C15   H15   1.064570 S    
C16   C37   1.377513 A    
N18   Ni4   1.879908 S    
N11   Ni4   1.829598 S    
C16   H16   1.078048 S    
C53   C59   1.533029 S    
N10   Ni1   1.840371 S    
C54   C56   1.544358 S    
N8    Ni8   1.882255 S    
C17   C41   1.373010 A    
C3    H3    1.081711 S    
C90   C97   1.393451 A    
C89   H45   1.083513 S    
C50   C58   1.554739 S    
C77   C105  1.444340 S    
C36   C82   1.420128 S    
C76   C104  1.444397 S    
N22   Ni8   1.879908 S    
C12   H12   1.069023 S    
C35   C81   1.415775 S    
N38   O12   1.300855 A    
N33   O1    1.300833 A    
N14   Ni5   1.840371 S    
C13   H13   1.078158 S    
C108  N48   1.157823 T    
N7    N14   1.399862 A    
C49   C62   1.528269 S    
C40   C86   1.418629 S    
C52   C57   1.534440 S    
C72   H44   1.085013 S    
C24   C43   1.373065 A    
C49   C51   1.541897 S    
C47   C64   1.435817 S    
N37   O10   1.300891 A    
C46   C61   1.436276 S    
C89   C98   1.394877 A    
C68   H40   1.081614 S    
C27   C46   1.373199 A    
C9    H9    1.078224 S    
N5    Ni5   1.868971 S    
N4    Ni4   1.882255 S    
N3    Ni3   1.882255 S    
