data_mof_unit_29097.cif
_audit_creation_date              2012-10-26T20:21:32-0400
_audit_creation_method            fapswitch 2.2
_symmetry_space_group_name_H-M    P1
_symmetry_Int_Tables_number       1
_space_group_crystal_system       triclinic
_cell_length_a                    10.868335
_cell_length_b                    9.614333
_cell_length_c                    11.688037
_cell_angle_alpha                 90.150895
_cell_angle_beta                  91.826121
_cell_angle_gamma                 89.711546
_cell_volume                      1220.66446677

loop_
_atom_site_label
_atom_site_type_symbol
_atom_type_description
_atom_site_fract_x
_atom_site_fract_y
_atom_site_fract_z
_atom_type_partial_charge
C1    C     C_R   0.262663 0.500281 0.507308 0.548059
C2    C     C_R   0.935028 0.616019 0.554727 0.200504
C3    C     C_R   0.937665 0.375912 0.487627 0.207134
C4    C     C_R   0.064115 0.622524 0.547714 0.205446
C5    C     C_R   0.871800 0.497930 0.512616 -0.070571
C6    C     C_R   0.128717 0.499733 0.519831 -0.068096
C7    C     C_R   0.447076 0.074322 0.410356 0.348434
C8    C     C_R   0.550123 0.926354 0.590861 0.339271
C9    C     C_R   0.558627 0.075314 0.586226 0.331429
C10   C     C_R   0.450611 0.926139 0.408573 0.334949
C11   C     C_3   0.137831 0.210007 0.629767 -0.099921
C12   C     C_R   0.737633 0.499458 0.503312 0.565606
C13   C     C_3   0.868076 0.695604 0.724224 -0.085936
C14   C     C_3   0.885307 0.235874 0.337741 -0.093376
C15   C     C_3   0.081550 0.863160 0.536771 -0.068208
C16   C     C_3   0.280846 0.158600 0.304739 -0.064233
C17   C     C_3   0.530412 0.881722 0.780735 -0.112132
C18   C     C_3   0.750229 0.110538 0.670840 -0.058970
C19   C     C_3   0.298262 0.821860 0.296947 -0.076702
C20   C     C_R   0.499868 0.499839 0.284204 0.517840
C21   C     C_R   0.500329 0.500117 0.715805 0.533303
C22   C     C_1   0.499852 0.499619 0.162463 -0.007558
C23   C     C_1   0.500247 0.500238 0.837530 -0.028769
C24   C     C_1   0.499930 0.499791 0.059914 -0.042060
C25   C     C_1   0.500110 0.500096 0.940073 -0.056431
C26   C     C_R   0.064201 0.373525 0.506536 0.202440
Cu1   Cu    Cu3+1 0.500000 0.640660 0.500000 1.052879
Cu2   Cu    Cu3+1 0.500000 0.359340 0.500000 1.047703
H1    H     H_    0.048796 0.174351 0.663334 0.105195
H2    H     H_    0.035022 0.848255 0.451225 0.111556
H3    H     H_    0.158699 0.935653 0.524942 0.111100
H4    H     H_    0.018599 0.914457 0.596895 0.169727
H5    H     H_    0.229865 0.093645 0.366019 0.109093
H6    H     H_    0.247830 0.130933 0.216912 0.096724
H7    H     H_    0.256382 0.269424 0.316902 0.167413
H8    H     H_    0.561341 0.809344 0.849687 0.132941
H9    H     H_    0.430560 0.862536 0.762938 0.124681
H10   H     H_    0.544283 0.988754 0.814254 0.143902
H11   H     H_    0.781652 0.066268 0.588368 0.166055
H12   H     H_    0.175330 0.296680 0.683777 0.112210
H13   H     H_    0.769760 0.035271 0.740881 0.121191
H14   H     H_    0.806164 0.204540 0.689649 0.136008
H15   H     H_    0.249771 0.826032 0.378564 0.111073
H16   H     H_    0.291252 0.713726 0.264272 0.134582
H17   H     H_    0.249376 0.888297 0.232850 0.092205
H18   H     H_    0.205400 0.123696 0.638224 0.120132
H19   H     H_    0.812526 0.601270 0.740947 0.113907
H20   H     H_    0.823666 0.784688 0.767126 0.153854
H21   H     H_    0.962301 0.684354 0.763519 0.113837
H22   H     H_    0.833767 0.140658 0.312782 0.142094
H23   H     H_    0.982246 0.221074 0.312040 0.113992
H24   H     H_    0.841913 0.324782 0.290391 0.104085
N1    N     N_R   0.500000 0.852070 0.500000 -0.258242
N2    N     N_R   0.500000 0.147930 0.500000 -0.257633
O1    O     O_R   0.319640 0.618740 0.499990 -0.480718
O2    O     O_3   0.871353 0.723200 0.605831 -0.536799
O3    O     O_3   0.878202 0.253918 0.457079 -0.542263
O4    O     O_3   0.129915 0.738895 0.585003 -0.557920
O5    O     O_3   0.410139 0.142845 0.311257 -0.517055
O6    O     O_3   0.601371 0.855771 0.683525 -0.533637
O7    O     O_3   0.624466 0.149118 0.669352 -0.544046
O8    O     O_3   0.423596 0.859896 0.305651 -0.514343
O9    O     O_R   0.680360 0.381260 0.500010 -0.445030
O10   O     O_R   0.680360 0.618740 0.500010 -0.438697
O11   O     O_R   0.319640 0.381260 0.499990 -0.481157
O12   O     O_R   0.500010 0.618790 0.337200 -0.462679
O13   O     O_R   0.499990 0.381210 0.662800 -0.460023
O14   O     O_R   0.499990 0.618790 0.662800 -0.461455
O15   O     O_R   0.500010 0.381210 0.337200 -0.455722
O16   O     O_3   0.123389 0.246194 0.512938 -0.562171

loop_
_geom_bond_atom_site_label_1
_geom_bond_atom_site_label_2
_ccdc_geom_bond_type
C8    N1    A    
C7    C10   A    
C1    O11   A    
C18   H11   S    
Cu1   N1    S    
C18   O7    S    
C15   H3    S    
Cu1   O14   S    
C17   H8    S    
C16   H5    S    
C13   H20   S    
C18   H14   S    
C14   H24   S    
Cu1   O1    S    
C2    C4    A    
C14   H23   S    
C19   H16   S    
C13   O2    S    
C21   C23   S    
Cu2   O11   S    
C1    O1    A    
C11   O16   S    
C15   H4    S    
C16   H7    S    
Cu1   O12   S    
C2    O2    S    
C21   O13   A    
C6    C26   A    
C15   H2    S    
C13   H21   S    
C3    O3    S    
C20   O12   A    
C26   O16   S    
C19   H15   S    
C22   C24   T    
C17   H10   S    
C23   C25   T    
C21   O14   A    
C7    O5    S    
C11   H12   S    
C12   O10   A    
C15   O4    S    
C9    O7    S    
C20   O15   A    
C10   O8    S    
C2    C5    A    
Cu1   O10   S    
C14   H22   S    
C17   O6    S    
C1    C6    S    
Cu2   O9    S    
Cu2   O13   S    
C24   C25   S    
C11   H1    S    
C5    C12   S    
C4    C6    A    
C18   H13   S    
C4    O4    S    
Cu1   Cu2   S    
C14   O3    S    
C12   O9    A    
Cu2   N2    S    
C10   N1    A    
C11   H18   S    
C17   H9    S    
C9    N2    A    
C19   O8    S    
C7    N2    A    
C16   H6    S    
C13   H19   S    
C3    C26   A    
C8    O6    S    
C19   H17   S    
Cu2   O15   S    
C20   C22   S    
C8    C9    A    
C3    C5    A    
C16   O5    S    
