data_mof_unit_55609.cif
_audit_creation_date              2013-03-05T16:40:06-0500
_audit_creation_method            fapswitch 2.2
_symmetry_space_group_name_H-M    P1
_symmetry_Int_Tables_number       1
_space_group_crystal_system       triclinic
_cell_length_a                    19.237314
_cell_length_b                    18.5371
_cell_length_c                    10.737209
_cell_angle_alpha                 87.867929
_cell_angle_beta                  94.50284
_cell_angle_gamma                 88.324168
_cell_volume                      3812.48236369

loop_
_atom_site_label
_atom_site_type_symbol
_atom_site_description
_atom_site_fract_x
_atom_site_fract_y
_atom_site_fract_z
_atom_type_partial_charge
O1    O     O_R   0.398180 0.560840 0.499970 -0.554153
O2    O     O_R   0.601820 0.560840 0.500030 -0.614102
O3    O     O_R   0.398180 0.439210 0.499910 -0.537899
O4    O     O_R   0.601820 0.439210 0.500090 -0.551051
C1    C     C_R   0.365322 0.501023 0.506480 1.012308
C2    C     C_R   0.633756 0.499463 0.487518 0.985016
O5    O     O_R   0.499990 0.560820 0.316770 -0.568475
O6    O     O_R   0.500010 0.560820 0.683230 -0.642994
O7    O     O_R   0.499990 0.439200 0.316710 -0.630526
O8    O     O_R   0.500010 0.439200 0.683290 -0.612679
C3    C     C_R   0.506397 0.500791 0.261359 0.906030
C4    C     C_R   0.500200 0.498397 0.741364 0.893519
Zn1   Zn    Zn3+2 0.500000 0.581210 0.500000 1.044583
Zn2   Zn    Zn3+2 0.500000 0.418790 0.500000 1.076649
C5    C     C_R   0.517371 0.564359 0.060510 0.220465
C6    C     C_R   0.512017 0.561469 0.933488 0.088026
C7    C     C_R   0.524869 0.501202 0.134146 -0.208091
C8    C     C_R   0.509532 0.495311 0.876306 -0.205400
C9    C     C_R   0.543247 0.435884 0.079226 -0.122590
C10   C     C_R   0.526781 0.430393 0.949579 -0.046491
C11   C     C_3   0.460536 0.623850 0.918337 -0.403993
C12   C     C_3   0.466339 0.626507 0.059275 -0.441593
H1    H     H_    0.481771 0.672053 0.871783 0.226636
H2    H     H_    0.417224 0.611938 0.100570 0.235334
H3    H     H_    0.408188 0.608249 0.878812 0.253056
H4    H     H_    0.491432 0.676013 0.093646 0.227372
C13   C     C_R   0.749310 0.435778 0.459374 0.316109
C14   C     C_R   0.249271 0.441209 0.503064 0.356907
C15   C     C_R   0.820176 0.439881 0.441487 0.397400
C16   C     C_R   0.177023 0.446993 0.477624 0.332028
C17   C     C_R   0.848160 0.506741 0.413074 -0.048813
C18   C     C_R   0.143717 0.515316 0.463222 -0.052576
C19   C     C_R   0.805493 0.568820 0.390192 0.332496
C20   C     C_R   0.180808 0.578261 0.482208 0.371334
C21   C     C_R   0.733847 0.565059 0.402416 -0.152429
C22   C     C_R   0.252757 0.573202 0.513493 -0.166554
C23   C     C_R   0.706314 0.499692 0.449991 -0.294120
C24   C     C_R   0.288568 0.504753 0.511345 -0.290722
C25   C     C_R   0.960552 0.510138 0.310218 -0.112646
C26   C     C_R   0.033885 0.514465 0.322661 -0.118860
C27   C     C_R   0.067859 0.520295 0.443569 0.033459
C28   C     C_R   0.923666 0.512681 0.419120 0.025763
C29   C     C_R   0.030176 0.524540 0.549948 0.385096
C30   C     C_R   0.958097 0.521328 0.537558 0.368619
C31   C     C_R   0.546032 0.721730 0.583851 -0.055436
C32   C     C_R   0.457908 0.732475 0.415104 0.021137
C33   C     C_R   0.547740 0.797844 0.589737 0.311318
C34   C     C_R   0.458273 0.808747 0.419445 0.233848
C35   C     C_R   0.502934 0.841790 0.507827 0.060902
N1    N     N_R   0.500000 0.689440 0.500000 -0.155085
C36   C     C_R   0.451220 0.961451 0.570551 -0.094510
C37   C     C_R   0.554074 0.961970 0.448094 -0.101295
C38   C     C_R   0.449046 0.038038 0.564787 0.271777
C39   C     C_R   0.551438 0.038541 0.445393 0.264691
C40   C     C_R   0.498837 0.076594 0.502452 -0.050010
C41   C     C_R   0.503640 0.922846 0.510994 0.080925
C42   C     C_R   0.541419 0.192307 0.587068 -0.225484
C43   C     C_R   0.457264 0.199099 0.412155 -0.197242
H5    H     H_    0.575183 0.159707 0.654180 0.166682
H6    H     H_    0.425022 0.172197 0.341791 0.165708
C44   C     C_R   0.543932 0.268206 0.584356 0.052520
C45   C     C_R   0.458536 0.275223 0.410961 0.134244
N2    N     N_R   0.500000 0.310560 0.500000 -0.108639
C46   C     C_R   0.497951 0.157281 0.501713 0.239952
C47   C     C_2   0.577604 0.375420 0.159015 0.593938
H7    H     H_    0.621339 0.386848 0.224691 0.080475
O9    O     O_2   0.554593 0.314778 0.159839 -0.523567
C48   C     C_2   0.518261 0.357920 0.897017 0.560834
H8    H     H_    0.472632 0.347387 0.835253 0.075246
O10   O     O_2   0.561747 0.309224 0.921857 -0.514481
C49   C     C_2   0.597264 0.677854 0.665415 0.611486
H9    H     H_    0.581781 0.649163 0.747677 0.059143
O11   O     O_2   0.658735 0.676674 0.644326 -0.521651
C50   C     C_2   0.414953 0.702403 0.310349 0.490933
H10   H     H_    0.409768 0.731264 0.220262 0.109252
O12   O     O_2   0.381344 0.648609 0.322759 -0.560923
Cl1   Cl    Cl    0.605211 0.838363 0.701423 -0.485979
Cl2   Cl    Cl    0.402174 0.864039 0.314150 -0.541821
C51   C     C_2   0.397657 0.923003 0.638631 0.574601
H11   H     H_    0.347443 0.949079 0.649495 0.144009
O13   O     O_2   0.409161 0.862532 0.686056 -0.545562
C52   C     C_2   0.610206 0.924355 0.384297 0.587555
H12   H     H_    0.658964 0.950557 0.371872 0.143450
O14   O     O_2   0.602604 0.864577 0.342222 -0.545947
Cl3   Cl    Cl    0.385194 0.087161 0.640286 -0.511602
Cl4   Cl    Cl    0.612655 0.088381 0.365286 -0.504718
C53   C     C_2   0.600007 0.295842 0.670806 0.583158
H13   H     H_    0.636493 0.257758 0.722554 0.106528
O15   O     O_2   0.607595 0.359380 0.688517 -0.503432
C54   C     C_2   0.418655 0.311879 0.301821 0.548769
H14   H     H_    0.416614 0.286188 0.212407 0.073601
O16   O     O_2   0.383893 0.367062 0.309513 -0.503043
Cl5   Cl    Cl    0.717407 0.349050 0.490276 -0.457823
Cl6   Cl    Cl    0.287255 0.353341 0.532670 -0.417686
Cl7   Cl    Cl    0.875456 0.361353 0.459522 -0.364777
Cl8   Cl    Cl    0.127387 0.368156 0.464727 -0.401952
Cl9   Cl    Cl    0.842686 0.651309 0.344994 -0.493916
Cl10  Cl    Cl    0.135584 0.663404 0.472000 -0.461724
C55   C     C_2   0.689268 0.629058 0.357748 0.617904
H15   H     H_    0.703970 0.682820 0.383970 0.147540
O17   O     O_2   0.637596 0.622442 0.286036 -0.577153
C56   C     C_2   0.287573 0.639460 0.556120 0.643081
H16   H     H_    0.276223 0.690859 0.505908 0.122789
O18   O     O_2   0.326771 0.637679 0.651404 -0.565063
C57   C     C_2   0.923106 0.505361 0.183698 0.548843
H17   H     H_    0.944876 0.529068 0.102097 0.089795
O19   O     O_2   0.868177 0.474302 0.168493 -0.504480
C58   C     C_2   0.074780 0.508795 0.210675 0.528446
H18   H     H_    0.055410 0.478166 0.131866 0.085562
O20   O     O_2   0.130002 0.539009 0.204202 -0.498991
Cl11  Cl    Cl    0.073722 0.530796 0.700759 -0.423756
Cl12  Cl    Cl    0.910604 0.527146 0.672059 -0.424341

loop_
_geom_bond_atom_site_label_1
_geom_bond_atom_site_label_2
_geom_bond_distance
_ccdc_geom_bond_type
C43   C45   1.411635 A    
C53   H13   1.086450 S    
C6    C11   1.496054 S    
C17   C28   1.456473 S    
C31   C49   1.471194 S    
C9    C10   1.411264 A    
O7    Zn2   1.990174 S    
C33   C35   1.402369 A    
O5    C3    1.288472 A    
C57   O19   1.220736 D    
O6    Zn1   1.989485 S    
C50   O12   1.213078 D    
O1    C1    1.294635 A    
C22   C56   1.486086 S    
C21   C23   1.429579 A    
C42   H5    1.085117 S    
C13   C15   1.395451 A    
C43   H6    1.084780 S    
C5    C6    1.362833 A    
C58   H18   1.084376 S    
C25   C57   1.493726 S    
C36   C41   1.425153 A    
C34   Cl2   1.775075 S    
C44   N2    1.392528 A    
O2    Zn1   1.983906 S    
C16   Cl8   1.772736 S    
C44   C53   1.482641 S    
C19   C21   1.398253 A    
C5    C12   1.490564 S    
C48   H8    1.084762 S    
C47   O9    1.220115 D    
C18   C27   1.457733 S    
C17   C19   1.396554 A    
C8    C10   1.429123 A    
C26   C58   1.492942 S    
C31   C33   1.415928 A    
C1    C24   1.481253 S    
C27   C29   1.403456 A    
O2    C2    1.293608 A    
C28   C30   1.403832 A    
C21   C55   1.485425 S    
C37   C39   1.417970 A    
C25   C28   1.416123 A    
C38   C40   1.407605 A    
C43   C46   1.388930 A    
C32   C34   1.416562 A    
C50   H10   1.083991 S    
O4    C2    1.298107 A    
O8    Zn2   2.017822 S    
C25   C26   1.411492 A    
C39   Cl4   1.773068 S    
C7    C9    1.414085 A    
C14   Cl6   1.772968 S    
Zn1   N1    2.006268 S    
C36   C38   1.417994 A    
C18   C20   1.398454 A    
C56   O18   1.221177 D    
C29   C30   1.385772 A    
C45   N2    1.391675 A    
C54   O16   1.214632 D    
C55   H15   1.085036 S    
C14   C24   1.419939 A    
O6    C4    1.293938 A    
C40   C46   1.495008 S    
C2    C23   1.482981 S    
C37   C52   1.493014 S    
O7    C3    1.281080 A    
O3    Zn2   1.984005 S    
O8    C4    1.282097 A    
C30   Cl12  1.773418 S    
C48   O10   1.220117 D    
C26   C27   1.416164 A    
C55   O17   1.220653 D    
C52   H12   1.083952 S    
C52   O14   1.220551 D    
C11   H1    1.111448 S    
C12   H2    1.110882 S    
C13   Cl5   1.766741 S    
O1    Zn1   2.005601 S    
C33   Cl1   1.769728 S    
C4    C8    1.444717 S    
C32   C50   1.478632 S    
C42   C46   1.384359 A    
C15   Cl7   1.773014 S    
C5    C7    1.385605 A    
C11   H3    1.112166 S    
C39   C40   1.408766 A    
C3    C7    1.437932 S    
C10   C48   1.484919 S    
O3    C1    1.299278 A    
C42   C44   1.408472 A    
C35   C41   1.504622 S    
C57   H17   1.084399 S    
C32   N1    1.383905 A    
C51   O13   1.220714 D    
C14   C16   1.395458 A    
C49   H9    1.080448 S    
C15   C17   1.398436 A    
C16   C18   1.400321 A    
C54   H14   1.085939 S    
C31   N1    1.378022 A    
C13   C23   1.420802 A    
C34   C35   1.399964 A    
Zn2   N2    2.006268 S    
C45   C54   1.480765 S    
C22   C24   1.427809 A    
C20   Cl10  1.775316 S    
C58   O20   1.220872 D    
C9    C47   1.491093 S    
C20   C22   1.398012 A    
O4    Zn2   2.005754 S    
C56   H16   1.085018 S    
C36   C51   1.492139 S    
C51   H11   1.083970 S    
C29   Cl11  1.773121 S    
O5    Zn1   2.017107 S    
C6    C8    1.392158 A    
C47   H7    1.085548 S    
C12   H4    1.111095 S    
C49   O11   1.221082 D    
C53   O15   1.211227 D    
C38   Cl3   1.772305 S    
C19   Cl9   1.774523 S    
C11   C12   1.511374 S    
C37   C41   1.425144 A    
