data_mof_unit_41706.cif
_audit_creation_date              2012-12-10T19:45:44-0500
_audit_creation_method            fapswitch 2.2
_symmetry_space_group_name_H-M    P1
_symmetry_Int_Tables_number       1
_space_group_crystal_system       triclinic
_cell_length_a                    10.794433
_cell_length_b                    14.85572
_cell_length_c                    14.878765
_cell_angle_alpha                 64.183004
_cell_angle_beta                  105.911529
_cell_angle_gamma                 101.977646
_cell_volume                      2054.7796328

loop_
_atom_site_label
_atom_site_type_symbol
_atom_type_description
_atom_site_fract_x
_atom_site_fract_y
_atom_site_fract_z
_atom_type_partial_charge
C1    C     C_R   0.479523 0.119357 0.312443 0.783829
C2    C     C_R   0.618741 0.777694 0.974688 -0.209244
C3    C     C_R   0.402295 0.153765 0.126876 -0.207980
C4    C     C_R   0.597680 0.846236 0.873125 -0.207964
C5    C     C_R   0.512502 0.288370 0.178345 -0.261013
C6    C     C_R   0.487490 0.711630 0.821653 -0.261009
C7    C     C_R   0.484192 0.360318 0.077605 0.092104
C8    C     C_R   0.515793 0.639682 0.922393 0.092101
C9    C     C_R   0.419125 0.325245 0.000386 0.170956
C10   C     C_R   0.580852 0.674755 0.999614 0.170955
C11   C     C_R   0.516305 0.465624 0.051915 0.069486
C12   C     C_R   0.520474 0.880643 0.687557 0.783834
C13   C     C_R   0.483678 0.534376 0.948084 0.069486
C14   C     C_R   0.422408 0.495388 0.873285 -0.229289
C15   C     C_R   0.577572 0.504612 0.126714 -0.229287
C16   C     C_R   0.263472 0.999116 0.502274 0.781249
C17   C     C_R   0.736528 0.000884 0.497726 0.781249
C18   C     C_R   0.391090 0.393066 0.899200 -0.244588
C19   C     C_R   0.608885 0.606934 0.100800 -0.244586
C20   C     C_R   0.667802 0.256315 0.699384 0.078296
C21   C     C_R   0.332203 0.743686 0.300614 0.078301
C22   C     C_R   0.660341 0.189504 0.654335 0.033252
C23   C     C_R   0.870076 0.001478 0.495588 -0.078912
C24   C     C_R   0.339661 0.810497 0.345664 0.033250
C25   C     C_R   0.526260 0.292824 0.501373 0.294549
C26   C     C_R   0.473742 0.707176 0.498627 0.294541
C27   C     C_R   0.549600 0.371049 0.536906 -0.063480
C28   C     C_R   0.450405 0.628952 0.463094 -0.063480
C29   C     C_R   0.603788 0.344564 0.642076 0.115038
C30   C     C_R   0.396219 0.655437 0.357923 0.115034
C31   C     C_R   0.507560 0.470062 0.475879 0.093283
C32   C     C_R   0.492445 0.529939 0.524121 0.093283
C33   C     C_R   0.515992 0.487338 0.631576 -0.257275
C34   C     C_R   0.129924 0.998521 0.504412 -0.078908
C35   C     C_R   0.484014 0.512663 0.368424 -0.257259
C36   C     C_R   0.582070 0.402271 0.688822 -0.203915
C37   C     C_R   0.417937 0.597730 0.311178 -0.203909
C38   C     C_R   0.362530 0.049167 0.787037 -0.121202
C39   C     C_R   0.637457 0.950931 0.212932 -0.121190
C40   C     C_R   0.274091 0.013007 0.718962 -0.093844
C41   C     C_R   0.725904 0.987054 0.281030 -0.093825
C42   C     C_R   0.192834 0.077867 0.634122 0.125631
C43   C     C_R   0.807162 0.922172 0.365847 0.125617
C44   C     C_R   0.201309 0.179104 0.618527 -0.146765
C45   C     C_R   0.903668 0.960441 0.436895 -0.003890
C46   C     C_R   0.798682 0.820949 0.381391 -0.146766
C47   C     C_R   0.289888 0.214898 0.686759 -0.133683
C48   C     C_R   0.710093 0.785193 0.313135 -0.133682
C49   C     C_R   0.369941 0.149879 0.771183 -0.119671
C50   C     C_R   0.630037 0.850233 0.228737 -0.119680
C51   C     C_R   0.966293 0.041113 0.557188 -0.236855
C52   C     C_R   0.033705 0.958886 0.442812 -0.236850
C53   C     C_3   0.583158 0.700637 0.589986 -0.763339
C54   C     C_3   0.416843 0.299364 0.410015 -0.763345
C55   C     C_3   0.741006 0.230781 0.808151 -0.916894
C56   C     C_R   0.096331 0.039564 0.563100 -0.003904
C57   C     C_3   0.258997 0.769218 0.191847 -0.916888
C58   C     C_R   0.465942 0.187124 0.204029 -0.051440
C59   C     C_R   0.534047 0.812876 0.795970 -0.051441
C60   C     C_R   0.381230 0.222307 0.025313 -0.209245
Cu1   Cu    Cu3+1 0.466270 0.918260 0.475690 0.933821
Cu2   Cu    Cu3+1 0.533730 0.081740 0.524310 0.933818
H1    H     H_    0.437493 0.177571 0.824370 0.121465
H2    H     H_    0.704925 0.119999 0.697952 0.133364
H3    H     H_    0.485718 0.520035 0.672836 0.155278
H4    H     H_    0.514288 0.479964 0.327165 0.155274
H5    H     H_    0.424723 0.998993 0.852443 0.124301
H6    H     H_    0.575264 0.001123 0.147545 0.124314
H7    H     H_    0.268448 0.934626 0.732470 0.104137
H8    H     H_    0.731553 0.065425 0.267561 0.104120
H9    H     H_    0.139546 0.230167 0.553488 0.126629
H10   H     H_    0.860448 0.769870 0.446408 0.126629
H11   H     H_    0.296192 0.292967 0.674379 0.135734
H12   H     H_    0.562476 0.822571 0.175531 0.121459
H13   H     H_    0.703784 0.707134 0.325475 0.135716
H14   H     H_    0.940230 0.070721 0.603789 0.156103
H15   H     H_    0.059769 0.929281 0.396209 0.156096
H16   H     H_    0.343172 0.366921 0.839350 0.140420
H17   H     H_    0.656799 0.633079 0.160651 0.140414
H18   H     H_    0.430004 0.691207 0.760792 0.147513
H19   H     H_    0.569999 0.308791 0.239204 0.147512
H20   H     H_    0.632938 0.924655 0.854968 0.148274
H21   H     H_    0.367031 0.075347 0.145034 0.148271
H22   H     H_    0.545640 0.671896 0.660568 0.203351
H23   H     H_    0.331569 0.195293 0.966440 0.133315
H24   H     H_    0.656674 0.653192 0.599540 0.197469
H25   H     H_    0.641669 0.771237 0.582878 0.267371
H26   H     H_    0.343328 0.346810 0.400459 0.197464
H27   H     H_    0.454361 0.328103 0.339432 0.203354
H28   H     H_    0.358330 0.228764 0.417123 0.267371
H29   H     H_    0.791531 0.162250 0.838187 0.227753
H30   H     H_    0.815065 0.293891 0.812115 0.246917
H31   H     H_    0.673517 0.216693 0.858321 0.230190
H32   H     H_    0.208478 0.837752 0.161809 0.227750
H33   H     H_    0.326484 0.783299 0.141677 0.230189
H34   H     H_    0.668394 0.804709 0.033562 0.133311
H35   H     H_    0.184934 0.706109 0.187887 0.246914
H36   H     H_    0.396321 0.541525 0.793208 0.133330
H37   H     H_    0.603656 0.458475 0.206791 0.133328
H38   H     H_    0.608191 0.378728 0.770803 0.164505
H39   H     H_    0.391816 0.621273 0.229197 0.164508
H40   H     H_    0.295077 0.880001 0.302046 0.133362
N1    N     N_R   0.584450 0.204570 0.560790 -0.193656
N2    N     N_R   0.415550 0.795430 0.439210 -0.193657
O1    O     O_R   0.455540 0.022090 0.338120 -0.586347
O2    O     O_R   0.544460 0.977910 0.661880 -0.586351
O3    O     O_R   0.512510 0.160150 0.379180 -0.583434
O4    O     O_R   0.487490 0.839850 0.620820 -0.583434
O5    O     O_R   0.291160 0.930970 0.479480 -0.582711
O6    O     O_R   0.708840 0.069030 0.520520 -0.582712
O7    O     O_R   0.348130 0.069020 0.520540 -0.579472
O8    O     O_R   0.651870 0.930980 0.479460 -0.579469

loop_
_geom_bond_atom_site_label_1
_geom_bond_atom_site_label_2
_ccdc_geom_bond_type
C37   H39   S    
C26   C53   S    
C34   C56   A    
C8    C13   A    
C23   C45   A    
C27   C29   A    
C39   H6    S    
C14   C18   A    
C55   H31   S    
Cu1   O5    S    
C17   O6    A    
C33   H3    S    
C39   C41   A    
C38   C49   A    
C7    C11   A    
C29   C36   A    
C17   C23   S    
C5    C58   A    
C53   H22   S    
C49   H1    S    
C35   C37   A    
C54   H28   S    
C50   H12   S    
C33   C36   A    
C44   H9    S    
C51   C56   A    
Cu1   O4    S    
C55   H29   S    
C16   C34   S    
C15   C19   A    
C12   C59   S    
C11   C15   A    
Cu2   O7    S    
C53   H24   S    
Cu1   O1    S    
C46   H10   S    
C44   C47   A    
C42   C56   S    
C3    C60   A    
C12   O2    A    
C40   C42   A    
C13   C14   A    
C41   C43   A    
C48   H13   S    
C42   C44   A    
C53   H25   S    
C20   C55   S    
C16   O5    A    
C14   H36   S    
C20   C29   A    
C46   C48   A    
C40   H7    S    
C27   C31   A    
C28   C32   A    
Cu1   N2    S    
C25   C54   S    
C47   H11   S    
C54   H27   S    
C47   C49   A    
C5    C7    A    
C25   N1    A    
C6    C8    A    
Cu2   O3    S    
C45   C52   A    
C22   N1    A    
C30   C37   A    
C24   N2    A    
C2    C4    A    
C21   C57   S    
C55   H30   S    
C5    H19   S    
C23   C51   A    
C31   C32   A    
Cu2   O6    S    
C10   C19   A    
C18   H16   S    
C57   H35   S    
C36   H38   S    
C51   H14   S    
C19   H17   S    
C48   C50   A    
C43   C45   S    
C1    O3    A    
C20   C22   A    
C57   H32   S    
C3    H21   S    
C6    H18   S    
C31   C35   A    
C52   H15   S    
C2    C10   A    
C17   O8    A    
C12   O4    A    
Cu2   N1    S    
C7    C9    A    
C34   C52   A    
C6    C59   A    
C15   H37   S    
C60   H23   S    
Cu2   O2    S    
C25   C27   A    
C21   C30   A    
C26   C28   A    
C35   H4    S    
C9    C60   A    
C32   C33   A    
C54   H26   S    
C2    H34   S    
C1    C58   S    
C38   C40   A    
C11   C13   A    
C4    C59   A    
C28   C30   A    
C24   H40   S    
Cu1   Cu2   S    
C43   C46   A    
C26   N2    A    
C22   H2    S    
C3    C58   A    
C9    C18   A    
C39   C50   A    
C4    H20   S    
C38   H5    S    
C8    C10   A    
C57   H33   S    
C21   C24   A    
Cu1   O8    S    
C16   O7    A    
C1    O1    A    
C41   H8    S    
