data_mof_unit_42855.cif
_audit_creation_date              2012-12-10T17:47:04-0500
_audit_creation_method            fapswitch 2.2
_symmetry_space_group_name_H-M    P1
_symmetry_Int_Tables_number       1
_space_group_crystal_system       triclinic
_cell_length_a                    17.777206
_cell_length_b                    17.863251
_cell_length_c                    19.419672
_cell_angle_alpha                 100.139502
_cell_angle_beta                  76.19403
_cell_angle_gamma                 115.713854
_cell_volume                      5377.11095368

loop_
_atom_site_label
_atom_site_type_symbol
_atom_type_description
_atom_site_fract_x
_atom_site_fract_y
_atom_site_fract_z
_atom_type_partial_charge
C1    C     C_R   0.455979 0.280670 0.467732 0.539662
C2    C     C_2   0.487225 0.452576 0.976311 0.270105
C3    C     C_2   0.515995 0.525019 0.017758 0.287134
C4    C     C_R   0.543245 0.719714 0.532417 0.510410
C5    C     C_R   0.515428 0.515357 0.235917 -0.010596
C6    C     C_R   0.561135 0.809295 0.547872 -0.019909
C7    C     C_R   0.438958 0.192735 0.454176 -0.004153
C8    C     C_R   0.629010 0.946072 0.609009 0.252802
C9    C     C_R   0.622050 0.863682 0.589385 0.257773
C10   C     C_R   0.515837 0.840399 0.520003 -0.212294
C11   C     C_R   0.532063 0.925436 0.529398 -0.027434
C12   C     C_R   0.488801 0.454801 0.900740 0.025043
C13   C     C_R   0.587512 0.977919 0.576299 0.020121
C14   C     C_R   0.494554 0.959497 0.493336 0.039065
C15   C     C_R   0.504560 0.043634 0.511383 0.037266
C16   C     C_R   0.723392 0.547883 0.467957 0.539199
C17   C     C_R   0.561740 0.094170 0.557268 -0.141392
C18   C     C_R   0.602320 0.062058 0.588753 -0.144736
C19   C     C_R   0.452761 0.913874 0.436241 -0.162721
C20   C     C_R   0.422063 0.949419 0.397957 -0.121226
C21   C     C_R   0.428468 0.030715 0.416627 0.016610
C22   C     C_R   0.463942 0.076667 0.477375 -0.023131
C23   C     C_R   0.412543 0.419195 0.875127 -0.116037
C24   C     C_R   0.402883 0.067856 0.373522 0.251709
C25   C     C_R   0.410661 0.149707 0.391833 -0.167396
C26   C     C_R   0.459014 0.154776 0.499998 0.208967
C27   C     C_R   0.186461 0.439194 0.552309 0.003572
C28   C     C_R   0.276522 0.453217 0.532437 0.490988
C29   C     C_R   0.813854 0.568400 0.456926 0.048962
C30   C     C_R   0.049038 0.383497 0.629170 -0.118744
C31   C     C_R   0.132347 0.390587 0.608016 -0.160312
C32   C     C_R   0.156204 0.480325 0.518265 -0.113481
C33   C     C_R   0.075511 0.481033 0.543264 -0.016135
C34   C     C_R   0.410895 0.432103 0.806843 0.254028
C35   C     C_R   0.019481 0.427791 0.596984 0.060398
C36   C     C_R   0.048326 0.531052 0.514400 -0.049151
C37   C     C_R   0.960400 0.512193 0.526973 -0.064188
C38   C     C_R   0.907060 0.462458 0.583009 -0.096500
C39   C     C_R   0.935222 0.419581 0.617853 0.250070
C40   C     C_R   0.511586 0.511079 0.311506 0.503817
C41   C     C_R   0.105998 0.602551 0.477425 0.265944
C42   C     C_R   0.076070 0.642877 0.442003 0.282615
C43   C     C_R   0.988322 0.618048 0.448039 -0.033691
C44   C     C_R   0.929517 0.549561 0.487727 -0.023463
C45   C     C_R   0.571299 0.491620 0.110506 0.290597
C46   C     C_R   0.958468 0.662398 0.416370 -0.143753
C47   C     C_R   0.871875 0.639237 0.422902 -0.200112
C48   C     C_R   0.841838 0.520214 0.485229 0.248783
C49   C     C_R   0.489058 0.488143 0.688694 0.512093
C50   C     C_R   0.487676 0.478358 0.762362 0.019035
C51   C     C_R   0.564335 0.511693 0.787687 -0.196175
C52   C     C_R   0.564914 0.499836 0.856411 -0.117783
C53   C     C_3   0.400483 0.165473 0.616862 0.016187
C54   C     C_3   0.417731 0.213735 0.688714 -0.247971
C55   C     C_3   0.336939 0.190517 0.745111 -0.460050
C56   C     C_R   0.569981 0.489209 0.182863 -0.138676
C57   C     C_3   0.643522 0.976327 0.726369 0.021376
C58   C     C_3   0.591679 0.027091 0.761886 -0.284277
C59   C     C_3   0.556029 0.010619 0.840040 -0.486893
C60   C     C_3   0.755956 0.870660 0.583160 0.029540
C61   C     C_3   0.773304 0.821193 0.512844 -0.271976
C62   C     C_3   0.867251 0.858180 0.478991 -0.490632
C63   C     C_3   0.424086 0.057221 0.250856 0.004613
C64   C     C_3   0.374605 0.074587 0.205718 -0.254093
C65   C     C_3   0.431013 0.110991 0.136593 -0.493243
C66   C     C_3   0.801627 0.320264 0.664202 0.000574
C67   C     C_R   0.463910 0.546444 0.216608 -0.152250
C68   C     C_3   0.736067 0.347983 0.714587 -0.254551
C69   C     C_3   0.646426 0.293935 0.700559 -0.484238
C70   C     C_3   0.781751 0.382202 0.450082 0.003253
C71   C     C_3   0.705379 0.300452 0.468364 -0.241249
C72   C     C_3   0.697958 0.233914 0.406023 -0.478539
C73   C     C_3   0.153649 0.687271 0.332785 0.011171
C74   C     C_3   0.237953 0.677791 0.316398 -0.236092
C75   C     C_3   0.268317 0.666280 0.236429 -0.504835
C76   C     C_3   0.210406 0.685109 0.542474 0.015512
C77   C     C_3   0.240691 0.777702 0.533095 -0.239939
C78   C     C_R   0.466302 0.550955 0.145576 -0.187228
C79   C     C_3   0.280350 0.833159 0.595555 -0.493438
C80   C     C_3   0.474965 0.620883 0.991423 -0.006728
C81   C     C_3   0.494883 0.670830 0.928122 -0.243658
C82   C     C_3   0.423836 0.697222 0.928552 -0.495710
C83   C     C_3   0.616422 0.386549 0.060881 0.030836
C84   C     C_3   0.699202 0.387393 0.071794 -0.273071
C85   C     C_3   0.690449 0.299396 0.076031 -0.492218
C86   C     C_3   0.301446 0.457006 0.788201 0.028447
C87   C     C_3   0.242926 0.457973 0.860101 -0.282659
C88   C     C_3   0.197987 0.514528 0.862355 -0.486590
C89   C     C_R   0.519732 0.524073 0.092393 0.099233
C90   C     C_3   0.375862 0.350618 0.040961 -0.013031
C91   C     C_3   0.365857 0.302319 0.102570 -0.251495
C92   C     C_3   0.275047 0.269831 0.144222 -0.483344
H1    H     H_    0.623892 0.546488 0.754171 0.146303
H2    H     H_    0.001872 0.716535 0.387947 0.156795
H3    H     H_    0.257152 0.322593 0.167358 0.146780
H4    H     H_    0.270153 0.234837 0.188207 0.143984
H5    H     H_    0.230211 0.227281 0.108947 0.143983
H6    H     H_    0.353390 0.384870 0.909152 0.102212
H7    H     H_    0.624396 0.527319 0.875716 0.161214
H8    H     H_    0.380643 0.098012 0.621957 0.126428
H9    H     H_    0.347970 0.174087 0.602184 0.156530
H10   H     H_    0.464758 0.199613 0.706501 0.152814
H11   H     H_    0.444793 0.281801 0.683022 0.206270
H12   H     H_    0.289727 0.206295 0.729427 0.177438
H13   H     H_    0.352235 0.226009 0.796624 0.166652
H14   H     H_    0.309038 0.122797 0.752209 0.131226
H15   H     H_    0.424140 0.573078 0.132302 0.090541
H16   H     H_    0.394224 0.912833 0.352545 0.158372
H17   H     H_    0.695224 0.992143 0.756296 0.155489
H18   H     H_    0.603104 0.908373 0.730423 0.152433
H19   H     H_    0.632724 0.094659 0.758135 0.164346
H20   H     H_    0.538008 0.010195 0.733982 0.159205
H21   H     H_    0.513756 0.943550 0.845023 0.144256
H22   H     H_    0.518628 0.047994 0.864078 0.147873
H23   H     H_    0.608478 0.028718 0.869671 0.146211
H24   H     H_    0.794056 0.868687 0.620042 0.150846
H25   H     H_    0.778978 0.937561 0.574156 0.158955
H26   H     H_    0.646940 0.104370 0.622131 0.144757
H27   H     H_    0.754117 0.755420 0.522687 0.204810
H28   H     H_    0.735598 0.822132 0.475125 0.150110
H29   H     H_    0.888439 0.924528 0.469755 0.149866
H30   H     H_    0.877508 0.823281 0.426985 0.145074
H31   H     H_    0.906097 0.853841 0.513998 0.156757
H32   H     H_    0.447763 0.851973 0.416312 0.107027
H33   H     H_    0.611471 0.467250 0.197571 0.127753
H34   H     H_    0.447272 0.010057 0.220706 0.139699
H35   H     H_    0.481589 0.115372 0.259380 0.117371
H36   H     H_    0.320769 0.015550 0.192880 0.172200
H37   H     H_    0.393777 0.179555 0.357621 0.115498
H38   H     H_    0.348322 0.119322 0.236394 0.161384
H39   H     H_    0.482454 0.172496 0.148210 0.139231
H40   H     H_    0.392331 0.119665 0.104014 0.141357
H41   H     H_    0.459459 0.068138 0.105485 0.145273
H42   H     H_    0.789290 0.257156 0.676740 0.151997
H43   H     H_    0.793383 0.313084 0.607939 0.123431
H44   H     H_    0.738190 0.343828 0.770487 0.172842
H45   H     H_    0.751431 0.413897 0.708207 0.170576
H46   H     H_    0.641995 0.299431 0.645720 0.170549
H47   H     H_    0.600824 0.315217 0.738775 0.154339
H48   H     H_    0.466768 0.796574 0.491734 0.149599
H49   H     H_    0.628774 0.227631 0.707547 0.131039
H50   H     H_    0.840941 0.371778 0.440457 0.130271
H51   H     H_    0.776202 0.401074 0.400314 0.145294
H52   H     H_    0.712253 0.277722 0.515150 0.144191
H53   H     H_    0.646306 0.311279 0.482187 0.211130
H54   H     H_    0.688318 0.254293 0.359193 0.149252
H55   H     H_    0.642810 0.175034 0.421000 0.159451
H56   H     H_    0.756220 0.221759 0.391505 0.142319
H57   H     H_    0.160646 0.737726 0.302272 0.149861
H58   H     H_    0.102689 0.629108 0.313465 0.102942
H59   H     H_    0.581887 0.160607 0.565789 0.170497
H60   H     H_    0.287161 0.734103 0.339138 0.181733
H61   H     H_    0.229829 0.622533 0.340977 0.192960
H62   H     H_    0.220354 0.609888 0.212640 0.140052
H63   H     H_    0.328787 0.658493 0.226545 0.141389
H64   H     H_    0.279559 0.721727 0.210351 0.148199
H65   H     H_    0.196010 0.510025 0.470920 0.186141
H66   H     H_    0.844733 0.461149 0.603785 0.177380
H67   H     H_    0.262540 0.675490 0.556369 0.157480
H68   H     H_    0.156232 0.666038 0.588264 0.117286
H69   H     H_    0.288424 0.793830 0.483306 0.194489
H70   H     H_    0.849913 0.675857 0.400507 0.104073
H71   H     H_    0.186041 0.790072 0.528610 0.192929
H72   H     H_    0.233252 0.818936 0.645898 0.142948
H73   H     H_    0.301347 0.899638 0.586871 0.155151
H74   H     H_    0.336522 0.823449 0.600174 0.153714
H75   H     H_    0.420834 0.566644 0.256423 0.146706
H76   H     H_    0.466214 0.660084 0.041239 0.141283
H77   H     H_    0.413967 0.564763 0.988670 0.091671
H78   H     H_    0.555149 0.727362 0.929959 0.178628
H79   H     H_    0.503021 0.632228 0.877812 0.176404
H80   H     H_    0.363081 0.641573 0.926292 0.144802
H81   H     H_    0.008162 0.343719 0.671226 0.160255
H82   H     H_    0.439709 0.732261 0.881454 0.144081
H83   H     H_    0.416043 0.738060 0.977443 0.144286
H84   H     H_    0.601938 0.351128 0.009139 0.183077
H85   H     H_    0.562668 0.351706 0.102553 0.113089
H86   H     H_    0.750794 0.415949 0.026717 0.176752
H87   H     H_    0.717166 0.425644 0.121700 0.161597
H88   H     H_    0.641324 0.270857 0.122407 0.141435
H89   H     H_    0.751943 0.302000 0.082528 0.147940
H90   H     H_    0.672650 0.259852 0.026562 0.146577
H91   H     H_    0.263678 0.439263 0.745286 0.160710
H92   H     H_    0.154329 0.358121 0.635287 0.134329
H93   H     H_    0.351666 0.521059 0.779019 0.108643
H94   H     H_    0.194520 0.393640 0.869536 0.172398
H95   H     H_    0.280740 0.480720 0.903336 0.140501
H96   H     H_    0.245152 0.579202 0.852676 0.143022
H97   H     H_    0.157545 0.515374 0.915523 0.146155
H98   H     H_    0.156995 0.491113 0.821375 0.153686
H99   H     H_    0.331938 0.308539 0.004797 0.137963
H100  H     H_    0.357012 0.403383 0.063052 0.098477
H101  H     H_    0.383236 0.248847 0.081376 0.163738
H102  H     H_    0.409392 0.343680 0.139241 0.163028
O1    O     O_3   0.500000 0.500000 0.500000 -0.438932
O2    O     O_R   0.548260 0.471800 0.330740 -0.556392
O3    O     O_R   0.433390 0.433420 0.655640 -0.508784
O4    O     O_R   0.470210 0.546620 0.357990 -0.543090
O5    O     O_R   0.548140 0.548160 0.655640 -0.545983
O6    O     O_3   0.475404 0.196238 0.565566 -0.597791
O7    O     O_3   0.682097 0.997752 0.655727 -0.593933
O8    O     O_3   0.669230 0.834364 0.615896 -0.547894
O9    O     O_3   0.368856 0.023282 0.314127 -0.574709
O10   O     O_3   0.884309 0.375179 0.676346 -0.586406
O11   O     O_3   0.782791 0.443296 0.507478 -0.597781
O12   O     O_R   0.690590 0.583040 0.521630 -0.546699
O13   O     O_3   0.133957 0.711666 0.405950 -0.569600
O14   O     O_3   0.192396 0.637049 0.477468 -0.586965
O15   O     O_3   0.544497 0.601461 0.990375 -0.584191
O16   O     O_3   0.627141 0.469256 0.057067 -0.557412
O17   O     O_3   0.334054 0.396286 0.783506 -0.564113
O18   O     O_3   0.460265 0.376009 0.002806 -0.592833
O19   O     O_R   0.304570 0.412130 0.559980 -0.552956
O20   O     O_R   0.515630 0.331630 0.426410 -0.552419
O21   O     O_R   0.489210 0.673200 0.491990 -0.555656
O22   O     O_R   0.414390 0.306840 0.521640 -0.526872
O23   O     O_R   0.580770 0.688330 0.559970 -0.502664
O24   O     O_R   0.677090 0.493090 0.426400 -0.542213
O25   O     O_R   0.327750 0.511740 0.491990 -0.543411
Zn1   Zn    Zn3+2 0.578510 0.578520 0.558300 0.948666
Zn2   Zn    Zn3+2 0.559220 0.450000 0.422240 0.922947
Zn3   Zn    Zn3+2 0.447700 0.556900 0.461160 0.917112
Zn4   Zn    Zn3+2 0.414570 0.414580 0.558300 0.944592

loop_
_geom_bond_atom_site_label_1
_geom_bond_atom_site_label_2
_ccdc_geom_bond_type
C69   H47   S    
C66   C68   S    
C87   C88   S    
C76   H67   S    
C77   H71   S    
C8    C13   A    
C31   H92   S    
C61   H27   S    
C11   C13   A    
C41   C42   A    
C5    C56   A    
C19   C20   A    
C79   H72   S    
C5    C67   A    
C2    C12   S    
C6    C9    A    
C81   C82   S    
C68   H45   S    
C24   O9    S    
C49   O3    A    
C53   C54   S    
O23   Zn1   S    
C88   H98   S    
C12   C23   A    
C70   H51   S    
C85   H90   S    
C7    C26   A    
C63   O9    S    
C13   C18   A    
C55   H13   S    
C58   H20   S    
C21   C22   A    
C8    O7    S    
O4    Zn3   S    
C16   O12   A    
C59   H22   S    
C40   O2    A    
C30   C31   A    
C73   H58   S    
C11   C14   A    
C72   H54   S    
C66   H43   S    
C28   O19   A    
C69   H49   S    
C34   O17   S    
C92   H4    S    
C33   C36   A    
C73   C74   S    
O1    Zn1   S    
C12   C52   A    
C66   H42   S    
C47   H70   S    
C75   H64   S    
C15   C22   A    
C57   H17   S    
C82   H82   S    
C45   C56   A    
C53   H9    S    
C8    C9    A    
C64   H36   S    
C48   O11   S    
C36   C37   A    
C16   O24   A    
C70   C71   S    
O1    Zn4   S    
C45   C89   A    
C18   H26   S    
C30   H81   S    
O2    Zn2   S    
C66   O10   S    
C73   O13   S    
C25   H37   S    
C53   H8    S    
C4    O21   A    
C39   O10   S    
C61   H28   S    
C74   H60   S    
C36   C41   A    
C17   H59   S    
C67   C78   A    
C10   H48   S    
C80   H77   S    
C62   H31   S    
C65   H39   S    
C92   H5    S    
C50   C51   A    
C87   H94   S    
C57   C58   S    
C90   H99   S    
C77   C79   S    
C78   C89   A    
C77   H69   S    
C88   H97   S    
C82   H80   S    
C19   H32   S    
C34   C50   A    
C70   H50   S    
C74   C75   S    
C83   H85   S    
C55   H14   S    
C27   C31   A    
C58   H19   S    
C63   H34   S    
C1    O20   A    
C54   H11   S    
C68   H44   S    
C84   C85   S    
C24   C25   A    
C38   H66   S    
C4    C6    S    
C9    O8    S    
C91   C92   S    
O1    Zn2   S    
C91   H102  S    
C86   C87   S    
C68   C69   S    
C90   H100  S    
C29   C48   A    
O12   Zn1   S    
C16   C29   S    
C72   H56   S    
C55   H12   S    
C92   H3    S    
C79   H73   S    
C51   C52   A    
C74   H61   S    
C60   C61   S    
C70   O11   S    
C71   H52   S    
C84   H87   S    
C35   C39   A    
C43   C44   A    
C37   C38   A    
O20   Zn2   S    
C83   C84   S    
C46   H2    S    
C59   H21   S    
C23   C34   A    
C1    O22   A    
C17   C18   A    
C42   O13   S    
C46   C47   A    
C81   H78   S    
C86   O17   S    
C84   H86   S    
C51   H1    S    
C30   C35   A    
C60   O8    S    
C71   H53   S    
C29   C47   A    
C49   C50   S    
C28   O25   A    
C60   H25   S    
C86   H91   S    
C60   H24   S    
C42   C43   A    
C21   C24   A    
O21   Zn3   S    
C62   H30   S    
C65   H40   S    
C26   O6    S    
O24   Zn2   S    
C32   H65   S    
C49   O5    A    
C67   H75   S    
C69   H46   S    
C15   C17   A    
C54   C55   S    
C76   H68   S    
C85   H89   S    
C73   H57   S    
C27   C32   A    
C1    C7    S    
C53   O6    S    
C14   C19   A    
C54   H10   S    
O5    Zn1   S    
C64   H38   S    
C80   C81   S    
O3    Zn4   S    
C6    C10   A    
O1    Zn3   S    
C87   H95   S    
C57   H18   S    
C72   H55   S    
C52   H7    S    
C2    O18   S    
C45   O16   S    
C7    C25   A    
C3    C89   S    
C64   C65   S    
C41   O14   S    
C2    C3    D    
C58   C59   S    
O22   Zn4   S    
C71   C72   S    
C44   C48   A    
C32   C33   A    
O25   Zn3   S    
C90   O18   S    
C76   C77   S    
O19   Zn4   S    
C75   H62   S    
C90   C91   S    
C38   C39   A    
C40   O4    A    
C3    O15   S    
C37   C44   A    
C85   H88   S    
C91   H101  S    
C33   C35   A    
C80   H76   S    
C81   H79   S    
C79   H74   S    
C61   C62   S    
C43   C46   A    
C65   H41   S    
C83   O16   S    
C10   C11   A    
C63   C64   S    
C75   H63   S    
C88   H96   S    
C23   H6    S    
C20   C21   A    
C86   H93   S    
C59   H23   S    
C4    O23   A    
C22   C26   A    
C5    C40   S    
C57   O7    S    
C27   C28   S    
C14   C15   A    
C78   H15   S    
C82   H83   S    
C83   H84   S    
C56   H33   S    
C62   H29   S    
C63   H35   S    
C76   O14   S    
C80   O15   S    
C20   H16   S    
