data_mof_unit_14591.cif
_audit_creation_date              2012-12-11T14:58:29-0500
_audit_creation_method            fapswitch 2.2
_symmetry_space_group_name_H-M    P1
_symmetry_Int_Tables_number       1
_space_group_crystal_system       triclinic
_cell_length_a                    11.048462
_cell_length_b                    11.090548
_cell_length_c                    18.724816
_cell_angle_alpha                 90.978564
_cell_angle_beta                  90.852419
_cell_angle_gamma                 58.664736
_cell_volume                      1959.41692356

loop_
_atom_site_label
_atom_site_type_symbol
_atom_type_description
_atom_site_fract_x
_atom_site_fract_y
_atom_site_fract_z
_atom_type_partial_charge
C1    C     C_R   0.358809 0.767839 0.396339 0.551583
C2    C     C_R   0.586894 0.085909 0.185178 0.035025
C3    C     C_R   0.323067 0.289948 0.178961 -0.041689
C4    C     C_R   0.438452 0.186227 0.291267 0.114000
C5    C     C_R   0.445811 0.187821 0.217634 -0.056899
C6    C     C_R   0.062002 0.671589 0.320788 -0.059597
C7    C     C_R   0.976675 0.781901 0.367730 -0.039601
C8    C     C_R   0.610681 0.965138 0.148578 -0.035874
C9    C     C_R   0.733796 0.882139 0.109746 0.192262
C10   C     C_R   0.206250 0.402290 0.217608 0.104895
C11   C     C_R   0.212430 0.411787 0.292125 -0.054174
C12   C     C_R   0.378304 0.345984 0.393771 0.557525
C13   C     C_R   0.929723 0.755213 0.430838 0.197727
C14   C     C_R   0.964504 0.616942 0.445936 0.021840
C15   C     C_R   0.043199 0.507682 0.396230 -0.057106
C16   C     C_R   0.095756 0.533113 0.333770 0.072631
C17   C     C_R   0.334981 0.308559 0.327515 -0.035627
C18   C     C_R   0.957136 0.287026 0.308143 -0.141974
C19   C     C_R   0.985292 0.279803 0.235871 -0.106662
C20   C     C_R   0.874348 0.334226 0.185730 0.059275
C21   C     C_R   0.734390 0.395919 0.207160 -0.129761
C22   C     C_R   0.706214 0.403597 0.279537 -0.105891
C23   C     C_R   0.778492 0.376936 0.403612 0.518340
C24   C     C_R   0.817040 0.351234 0.329701 0.055460
C25   C     C_R   0.361823 0.700620 0.271304 -0.145630
C26   C     C_R   0.361821 0.724641 0.198788 -0.130156
C27   C     C_R   0.350649 0.849514 0.176771 0.028744
C28   C     C_R   0.335328 0.950707 0.227509 -0.129935
C29   C     C_R   0.336886 0.926333 0.299959 -0.099191
C30   C     C_R   0.352697 0.800157 0.321740 0.046474
C31   C     C_R   0.345356 0.197821 0.682822 0.149625
C32   C     C_R   0.328270 0.171451 0.753583 -0.105516
C33   C     C_R   0.274471 0.281076 0.804466 -0.028740
C34   C     C_R   0.345622 0.769518 0.604683 0.582579
C35   C     C_R   0.227823 0.418018 0.783523 -0.120626
C36   C     C_R   0.243990 0.446035 0.713653 -0.066299
C37   C     C_R   0.313458 0.332941 0.663642 0.036063
C38   C     C_R   0.909204 0.388361 0.707327 -0.093218
C39   C     C_R   0.941618 0.373397 0.779254 -0.118765
C40   C     C_R   0.915409 0.286082 0.821048 0.012906
C41   C     C_R   0.859400 0.209967 0.789478 -0.136098
C42   C     C_R   0.822189 0.228510 0.717386 -0.132487
C43   C     C_R   0.841507 0.322842 0.676929 0.036835
C44   C     C_R   0.192566 0.880681 0.707921 -0.181521
C45   C     C_R   0.368480 0.352169 0.596414 0.568753
C46   C     C_R   0.178339 0.889626 0.781221 -0.163824
C47   C     C_R   0.297150 0.846603 0.825234 -0.011478
C48   C     C_R   0.430116 0.794398 0.795966 -0.115092
C49   C     C_R   0.446103 0.786022 0.722888 0.165849
C50   C     C_R   0.326953 0.822251 0.677896 0.050534
C51   C     C_R   0.911053 0.317002 0.111561 0.550560
C52   C     C_R   0.305671 0.263028 0.102824 0.559646
C53   C     C_R   0.309872 0.896385 0.104125 0.544963
C54   C     C_R   0.945777 0.280739 0.897199 0.528606
C55   C     C_R   0.268632 0.253343 0.879687 0.517142
C56   C     C_R   0.768080 0.373796 0.608903 0.539941
C57   C     C_R   0.275287 0.893900 0.898311 0.546554
C58   C     C_R   0.848575 0.901188 0.119949 0.224254
C59   C     C_R   0.839427 0.996845 0.173468 0.000966
C60   C     C_R   0.705862 0.095578 0.201760 -0.092605
Cr1   Cr    Cr6+3 0.601770 0.606860 0.505860 1.091022
Cr2   Cr    Cr6+3 0.291380 0.601660 0.495070 1.013138
Cr3   Cr    Cr6+3 0.606880 0.291510 0.499120 1.126540
Cr4   Cr    Cr6+3 0.062440 0.063090 0.008210 1.058812
Cr5   Cr    Cr6+3 0.062880 0.375170 0.998920 1.132833
Cr6   Cr    Cr6+3 0.374700 0.061720 0.992470 1.056246
H1    H     H_    0.076341 0.400426 0.409807 0.092135
H2    H     H_    0.043333 0.242805 0.346515 0.093116
H3    H     H_    0.093360 0.230868 0.218465 0.097283
H4    H     H_    0.648659 0.435593 0.168428 0.119557
H5    H     H_    0.598458 0.448994 0.297063 0.108067
H6    H     H_    0.365712 0.605796 0.288248 0.111405
H7    H     H_    0.363195 0.650046 0.160182 0.147227
H8    H     H_    0.314009 0.051798 0.210377 0.087449
H9    H     H_    0.320374 0.007061 0.338635 0.145986
H10   H     H_    0.357877 0.066280 0.769104 0.152258
H11   H     H_    0.183235 0.503211 0.822667 0.163309
H12   H     H_    0.927101 0.459879 0.676914 0.157194
H13   H     H_    0.981365 0.435526 0.803094 0.145067
H14   H     H_    0.837931 0.142216 0.820930 0.148976
H15   H     H_    0.769918 0.176653 0.694782 0.160091
H16   H     H_    0.099785 0.911019 0.674945 0.158730
H17   H     H_    0.953783 0.887255 0.357265 0.139753
H18   H     H_    0.073754 0.933187 0.803406 0.151648
H19   H     H_    0.520403 0.768514 0.830144 0.177639
H20   H     H_    0.695976 0.173464 0.240449 0.142556
H21   H     H_    0.108844 0.692227 0.276256 0.133255
H22   H     H_    0.532378 0.938060 0.148786 0.164440
O1    O     O_R   0.748800 0.497470 0.428000 -0.515923
O2    O     O_R   0.300070 0.471040 0.567100 -0.533741
O3    O     O_R   0.491670 0.258900 0.574910 -0.436450
O4    O     O_R   0.718780 0.304180 0.577850 -0.495945
O5    O     O_3   0.500010 0.500010 0.500020 -0.285645
O6    O     O_R   0.186690 0.923650 0.086970 -0.482875
O7    O     O_R   0.957250 0.194250 0.084630 -0.521949
O8    O     O_R   0.934970 0.407490 0.085330 -0.420643
O9    O     O_R   0.203780 0.365190 0.067090 -0.412368
O10   O     O_R   0.417600 0.174890 0.067840 -0.509943
O11   O     O_R   0.375320 0.946260 0.070860 -0.519261
O12   O     O_R   0.476420 0.724060 0.429470 -0.458164
O13   O     O_R   0.160600 0.919630 0.926660 -0.487731
O14   O     O_R   0.933060 0.190520 0.936020 -0.489133
O15   O     O_R   0.908880 0.403460 0.925020 -0.479135
O16   O     O_R   0.179600 0.361450 0.918490 -0.500921
O17   O     O_R   0.391510 0.170860 0.907530 -0.470912
O18   O     O_R   0.351130 0.942530 0.922260 -0.512750
O19   O     O_3   0.166667 0.166667 0.999870 -0.340864
O20   O     O_R   0.264580 0.744340 0.416750 -0.527622
O21   O     O_R   0.309380 0.472470 0.418200 -0.521852
O22   O     O_R   0.501710 0.260430 0.414300 -0.434377
O23   O     O_R   0.728090 0.305600 0.428960 -0.489296
O24   O     O_R   0.738760 0.495930 0.588610 -0.508258
O25   O     O_R   0.467110 0.722640 0.578360 -0.424839
O26   O     O_R   0.254530 0.742800 0.577360 -0.535162
Br1   Br    Br    0.576585 0.013936 0.340695 -0.465745
Br2   Br    Br    0.827674 0.908543 0.497374 -0.433395
C61   C     C_3   0.927266 0.584030 0.516729 -0.311093
H23   H     H_    0.980173 0.609003 0.560269 0.134696
H24   H     H_    0.810905 0.649312 0.524211 0.220288
H25   H     H_    0.961993 0.470650 0.520587 0.122939
Br3   Br    Br    0.739093 0.744773 0.044126 -0.382601
Br4   Br    Br    0.404924 0.052262 0.611570 -0.436532
C62   C     C_3   0.197254 0.595418 0.697120 -0.352963
H26   H     H_    0.293511 0.598395 0.686071 0.162795
H27   H     H_    0.141354 0.667945 0.742643 0.130630
H28   H     H_    0.121818 0.634033 0.651505 0.176310
Br5   Br    Br    0.632530 0.735650 0.692826 -0.457547
Br6   Br    Br    0.013059 0.797479 0.060897 -0.380998
C63   C     C_3   0.970011 0.982809 0.207356 -0.356258
H29   H     H_    0.950000 0.021694 0.263429 0.111148
H30   H     H_    0.057582 0.871448 0.207002 0.166820
H31   H     H_    0.005673 0.043356 0.178788 0.190084
Br7   Br    Br    0.035243 0.549917 0.173712 -0.434074

loop_
_geom_bond_atom_site_label_1
_geom_bond_atom_site_label_2
_ccdc_geom_bond_type
C33   C55   S    
C7    H17   S    
C58   Br6   S    
C41   C42   A    
C4    Br1   S    
C35   C36   A    
C10   Br7   S    
Cr6   O19   S    
C28   H8    S    
C41   H14   S    
C12   O22   A    
C62   H26   S    
C53   O11   A    
C34   O25   A    
Cr4   O14   S    
C28   C29   A    
C26   C27   A    
C55   O17   A    
C18   C24   A    
C36   C37   A    
Cr2   O26   S    
C20   C51   S    
C44   H16   S    
C61   H24   S    
C38   C39   A    
Cr1   O5    S    
C62   H27   S    
Cr2   O20   S    
C18   H2    S    
C15   C16   A    
C52   O9    A    
C26   H7    S    
C18   C19   A    
Cr5   O8    S    
C11   C17   A    
C47   C48   A    
C44   C46   A    
C8    C9    A    
Cr3   O4    S    
C9    Br3   S    
C23   C24   S    
C23   O1    A    
C51   O8    A    
C63   H31   S    
C57   O18   A    
C59   C60   A    
C21   C22   A    
C42   H15   S    
Cr6   O18   S    
C1    O12   A    
C12   O21   A    
Cr1   O1    S    
Cr4   O13   S    
C49   Br5   S    
C34   C50   S    
C54   O15   A    
C36   C62   S    
Cr4   O7    S    
C61   H25   S    
C39   C40   A    
C60   H20   S    
C62   H28   S    
C38   H12   S    
C58   C59   A    
C6    C16   A    
C55   O16   A    
C35   H11   S    
C6    H21   S    
C31   C37   A    
C8    H22   S    
C39   H13   S    
Cr6   O11   S    
C12   C17   S    
C29   C30   A    
C47   C57   S    
C11   C16   S    
C31   C32   A    
C7    C13   A    
C14   C61   S    
C15   H1    S    
C25   H6    S    
C45   O2    A    
C46   H18   S    
C4    C17   A    
C40   C41   A    
C40   C54   S    
Cr1   O25   S    
C22   C24   A    
C19   H3    S    
Cr1   O12   S    
C42   C43   A    
Cr5   O15   S    
Cr6   O17   S    
C37   C45   S    
C22   H5    S    
C23   O23   A    
Cr4   O19   S    
C63   H29   S    
C44   C50   A    
C25   C30   A    
C46   C47   A    
C9    C58   A    
C53   O6    A    
C14   C15   A    
C54   O14   A    
C2    C8    A    
C31   Br4   S    
C4    C5    A    
C3    C5    A    
C32   H10   S    
C3    C52   S    
C27   C53   S    
C6    C7    A    
C29   H9    S    
C34   O26   A    
C57   O13   A    
Cr3   O5    S    
C21   H4    S    
C32   C33   A    
Cr6   O10   S    
C19   C20   A    
C59   C63   S    
C25   C26   A    
Cr4   O6    S    
C38   C43   A    
C3    C10   A    
C61   H23   S    
Cr2   O21   S    
Cr3   O22   S    
C48   C49   A    
Cr2   O2    S    
C52   O10   A    
C1    C30   S    
C33   C35   A    
Cr5   O19   S    
C2    C60   A    
Cr3   O23   S    
C45   O3    A    
C13   Br2   S    
C10   C11   A    
C1    O20   A    
Cr5   O9    S    
C2    C5    S    
C43   C56   S    
C56   O4    A    
C20   C21   A    
C49   C50   A    
Cr2   O5    S    
Cr3   O3    S    
C27   C28   A    
C48   H19   S    
Cr5   O16   S    
C13   C14   A    
Cr1   O24   S    
C56   O24   A    
C51   O7    A    
C63   H30   S    
