data_mof_unit_35909.cif
_audit_creation_date              2013-03-05T15:43:41-0500
_audit_creation_method            fapswitch 2.2
_symmetry_space_group_name_H-M    P1
_symmetry_Int_Tables_number       1
_space_group_crystal_system       triclinic
_cell_length_a                    13.942868
_cell_length_b                    13.982347
_cell_length_c                    27.260697
_cell_angle_alpha                 89.909071
_cell_angle_beta                  89.989894
_cell_angle_gamma                 120.353992
_cell_volume                      4586.04932055

loop_
_atom_site_label
_atom_site_type_symbol
_atom_site_description
_atom_site_fract_x
_atom_site_fract_y
_atom_site_fract_z
_atom_type_partial_charge
O1    O     O_R   0.137150 0.468200 0.553200 -0.495718
O2    O     O_R   0.531800 0.668950 0.553200 -0.489947
O3    O     O_R   0.331050 0.862850 0.553200 -0.494839
O4    O     O_R   0.173970 0.688730 0.549930 -0.483443
O5    O     O_R   0.311270 0.485240 0.549930 -0.480226
O6    O     O_R   0.514760 0.826030 0.549930 -0.485492
C1    C     C_R   0.233391 0.787980 0.568370 0.554331
C2    C     C_R   0.211762 0.445588 0.568573 0.552890
C3    C     C_R   0.554209 0.766381 0.568475 0.555328
O7    O     O_R   0.140110 0.470540 0.446010 -0.516528
O8    O     O_R   0.529460 0.669570 0.446010 -0.527444
O9    O     O_R   0.330430 0.859890 0.446010 -0.523694
O10   O     O_R   0.176710 0.690910 0.450560 -0.505662
O11   O     O_R   0.309090 0.485800 0.450560 -0.508516
O12   O     O_R   0.514200 0.823290 0.450560 -0.507073
C4    C     C_R   0.232566 0.788478 0.431518 0.541834
C5    C     C_R   0.212417 0.445585 0.431558 0.538340
C6    C     C_R   0.555046 0.767165 0.431524 0.537808
Cr1   Cr    Cr6+3 0.164410 0.584450 0.499910 1.049847
Cr2   Cr    Cr6+3 0.415550 0.579960 0.499910 1.048463
Cr3   Cr    Cr6+3 0.420040 0.835590 0.499910 1.046193
O13   O     O_3   0.333333 0.666667 0.499990 -0.272345
C7    C     C_3   0.586426 0.849814 0.737796 0.121648
C8    C     C_3   0.170168 0.750229 0.738563 0.124421
C9    C     C_3   0.266084 0.449215 0.736827 0.123855
C10   C     C_3   0.792617 0.952933 0.714087 -0.223307
C11   C     C_3   0.045549 0.828454 0.715286 -0.219504
C12   C     C_3   0.188200 0.241507 0.723424 -0.215653
C13   C     C_3   0.819631 0.974911 0.769449 -0.214975
C14   C     C_3   0.026024 0.833871 0.770831 -0.216633
C15   C     C_3   0.182239 0.224058 0.779765 -0.212975
H1    H     H_    0.859240 0.944457 0.695677 0.101754
H2    H     H_    0.043087 0.897655 0.696196 0.101810
H3    H     H_    0.120522 0.165492 0.705760 0.096229
H4    H     H_    0.793480 0.025003 0.696484 0.175110
H5    H     H_    0.977207 0.750823 0.699273 0.178862
H6    H     H_    0.267058 0.251771 0.708797 0.189128
H7    H     H_    0.820794 0.052132 0.779619 0.194118
H8    H     H_    0.956072 0.752712 0.782878 0.199719
H9    H     H_    0.257657 0.224507 0.792759 0.189443
H10   H     H_    0.904602 0.989889 0.776348 0.085991
H11   H     H_    0.001991 0.897355 0.777242 0.089097
H12   H     H_    0.111145 0.140061 0.788403 0.087088
C16   C     C_1   0.798974 0.898473 0.894324 0.027970
C17   C     C_1   0.104291 0.902993 0.894165 0.021946
C18   C     C_1   0.138626 0.265155 0.902426 0.024871
C19   C     C_3   0.679273 0.845185 0.707154 0.009314
C20   C     C_3   0.160027 0.838482 0.707003 0.011033
C21   C     C_3   0.174588 0.341972 0.710610 0.012958
C22   C     C_3   0.614903 0.861707 0.794067 0.116117
C23   C     C_3   0.162156 0.770320 0.794772 0.121156
C24   C     C_3   0.260459 0.432356 0.793839 0.117050
C25   C     C_3   0.732819 0.875810 0.801030 0.013494
C26   C     C_3   0.131985 0.863401 0.800906 0.015003
C27   C     C_3   0.165504 0.312542 0.806760 0.010607
C28   C     C_3   0.725992 0.768009 0.781896 -0.269890
C29   C     C_3   0.229541 0.971735 0.779094 -0.272678
C30   C     C_3   0.054948 0.300183 0.787321 -0.265013
C31   C     C_3   0.692477 0.748739 0.727213 -0.259475
C32   C     C_3   0.249730 0.955313 0.724688 -0.263502
C33   C     C_3   0.059615 0.315851 0.730811 -0.264519
C34   C     C_1   0.767538 0.889442 0.852634 0.002085
C35   C     C_1   0.116661 0.883302 0.852483 -0.001315
C36   C     C_1   0.155408 0.291471 0.859883 -0.005368
C37   C     C_1   0.647091 0.825113 0.655267 0.005999
C38   C     C_1   0.177651 0.824644 0.655088 -0.000684
C39   C     C_1   0.180390 0.362160 0.657414 0.002503
C40   C     C_1   0.610674 0.802089 0.614319 0.055753
C41   C     C_1   0.198515 0.809362 0.614126 0.049734
C42   C     C_1   0.191688 0.392651 0.615416 0.051209
H13   H     H_    0.613613 0.668585 0.723285 0.220027
H14   H     H_    0.333901 0.966062 0.720727 0.208301
H15   H     H_    0.043391 0.383812 0.721604 0.212207
H16   H     H_    0.756847 0.741861 0.705876 0.141222
H17   H     H_    0.247937 0.020441 0.701811 0.137248
H18   H     H_    0.992293 0.239159 0.713435 0.137376
H19   H     H_    0.664600 0.695304 0.803776 0.190739
H20   H     H_    0.307000 0.998480 0.800499 0.180645
H21   H     H_    0.038479 0.362073 0.805101 0.196912
H22   H     H_    0.508559 0.768409 0.733200 0.147397
H23   H     H_    0.254966 0.763135 0.732219 0.138597
H24   H     H_    0.244228 0.514518 0.730028 0.150472
H25   H     H_    0.554597 0.781859 0.812035 0.134915
H26   H     H_    0.246792 0.803576 0.810688 0.129626
H27   H     H_    0.234686 0.489643 0.809422 0.145405
H28   H     H_    0.807005 0.772955 0.786625 0.133018
H29   H     H_    0.210028 0.039154 0.781597 0.124855
H30   H     H_    0.984257 0.217042 0.797008 0.140160
O14   O     O_R   0.176750 0.985260 0.074180 -0.483305
O15   O     O_R   0.014740 0.191490 0.074180 -0.473131
O16   O     O_R   0.808510 0.823250 0.074180 -0.528407
O17   O     O_R   0.146100 0.172630 0.068980 -0.509130
O18   O     O_R   0.827370 0.973470 0.068980 -0.512325
O19   O     O_R   0.026530 0.853900 0.068980 -0.468246
C43   C     C_R   0.066141 0.152668 0.096231 0.529838
C44   C     C_R   0.775492 0.882598 0.087389 0.558805
C45   C     C_R   0.085545 0.934831 0.095983 0.539483
Cr4   Cr    Cr6+3 0.155170 0.075460 0.019960 1.038845
Cr5   Cr    Cr6+3 0.924540 0.079710 0.019960 1.049398
Cr6   Cr    Cr6+3 0.920290 0.844830 0.019960 1.050186
C46   C     C_R   0.107663 0.220721 0.950865 0.566863
C47   C     C_R   0.839078 0.909348 0.943365 0.527020
C48   C     C_R   0.091151 0.930358 0.943215 0.528142
O20   O     O_3   0.000000 0.000000 0.020040 -0.331858
O21   O     O_R   0.148270 0.170520 0.969620 -0.512938
O22   O     O_R   0.829480 0.977750 0.969620 -0.462213
O23   O     O_R   0.022250 0.851730 0.969620 -0.466644
C49   C     C_R   0.618574 0.895238 0.360054 -0.137202
C50   C     C_R   0.092924 0.735733 0.364053 -0.134209
C51   C     C_R   0.282159 0.422783 0.352782 -0.130558
C52   C     C_R   0.639856 0.908066 0.309711 0.002641
C53   C     C_R   0.064004 0.758849 0.318144 0.012877
C54   C     C_R   0.264889 0.377840 0.306057 0.007207
C55   C     C_R   0.671769 0.924664 0.207589 0.002552
C56   C     C_R   0.024247 0.799229 0.221185 0.016965
C57   C     C_R   0.223553 0.300358 0.209555 0.002596
C58   C     C_R   0.655671 0.002915 0.232740 -0.134658
C59   C     C_R   0.954528 0.696176 0.243368 -0.122718
C60   C     C_R   0.330025 0.384546 0.223149 -0.137539
C61   C     C_R   0.638634 0.993973 0.283498 -0.138554
C62   C     C_R   0.974497 0.675970 0.291478 -0.127980
C63   C     C_R   0.350757 0.422757 0.271293 -0.134241
C64   C     C_R   0.698004 0.937027 0.157544 -0.145484
C65   C     C_R   0.012434 0.816716 0.171473 -0.125656
C66   C     C_R   0.199969 0.267346 0.160840 -0.124541
H31   H     H_    0.710480 0.009899 0.137866 0.125808
H32   H     H_    0.946807 0.750912 0.150066 0.127250
H33   H     H_    0.264586 0.307304 0.133328 0.138432
H34   H     H_    0.597353 0.950332 0.378860 0.128741
H35   H     H_    0.045905 0.652610 0.379009 0.129366
H36   H     H_    0.363042 0.492633 0.362144 0.131726
H37   H     H_    0.657496 0.071448 0.213292 0.120404
H38   H     H_    0.887292 0.629858 0.222896 0.105880
H39   H     H_    0.396453 0.422455 0.196354 0.116638
H40   H     H_    0.625286 0.054515 0.302280 0.111691
H41   H     H_    0.922263 0.594413 0.307223 0.108051
H42   H     H_    0.432807 0.489812 0.280954 0.121656
C67   C     C_R   0.717234 0.859141 0.134098 -0.005753
C68   C     C_R   0.089331 0.917003 0.148807 -0.017146
C69   C     C_R   0.092444 0.184971 0.147295 -0.008858
C70   C     C_R   0.643542 0.735143 0.360770 -0.135094
C71   C     C_R   0.246752 0.925427 0.369546 -0.130095
C72   C     C_R   0.088986 0.294851 0.374331 -0.135635
C73   C     C_R   0.660269 0.743953 0.310564 0.010171
C74   C     C_R   0.219752 0.949421 0.323699 0.011615
C75   C     C_R   0.071252 0.245983 0.328012 0.013245
C76   C     C_R   0.656754 0.829629 0.284692 0.058293
C77   C     C_R   0.130130 0.864974 0.297196 0.063013
C78   C     C_R   0.158568 0.290254 0.293244 0.063327
C79   C     C_R   0.673543 0.664105 0.285559 -0.139123
C80   C     C_R   0.285452 0.054546 0.302628 -0.130167
C81   C     C_R   0.967054 0.156537 0.315122 -0.130412
C82   C     C_R   0.681826 0.668073 0.234820 -0.137766
C83   C     C_R   0.267303 0.073798 0.254270 -0.123985
C84   C     C_R   0.947972 0.115104 0.267384 -0.125951
C85   C     C_R   0.680972 0.754200 0.208981 0.011808
C86   C     C_R   0.182597 0.988456 0.226677 0.019308
C87   C     C_R   0.031442 0.164420 0.231715 0.021308
C88   C     C_R   0.669022 0.835846 0.233710 0.056335
C89   C     C_R   0.110935 0.884847 0.248626 0.063517
C90   C     C_R   0.138227 0.250634 0.244974 0.065331
C91   C     C_R   0.698875 0.763462 0.159025 -0.127344
C92   C     C_R   0.171857 0.003260 0.176876 -0.132903
C93   C     C_R   0.009348 0.131737 0.182726 -0.149500
C94   C     C_R   0.614234 0.804962 0.384964 -0.004501
C95   C     C_R   0.187571 0.817358 0.388754 -0.004361
C96   C     C_R   0.193692 0.384424 0.386163 0.004099
H43   H     H_    0.710447 0.701266 0.140598 0.130824
H44   H     H_    0.229943 0.081206 0.159470 0.120919
H45   H     H_    0.927460 0.066431 0.171890 0.104592
H46   H     H_    0.691438 0.605330 0.215879 0.100109
H47   H     H_    0.321819 0.154208 0.237957 0.117442
H48   H     H_    0.867302 0.046499 0.258032 0.134499
H49   H     H_    0.675140 0.597382 0.305128 0.104544
H50   H     H_    0.353808 0.120421 0.322822 0.109343
H51   H     H_    0.899891 0.120042 0.341619 0.117216
H52   H     H_    0.642506 0.666667 0.380024 0.132628
H53   H     H_    0.318390 0.989587 0.388859 0.131555
H54   H     H_    0.021604 0.265036 0.400698 0.117241
O24   O     O_R   0.179100 0.982980 0.967000 -0.462137
O25   O     O_R   0.017020 0.196120 0.967000 -0.490803
O26   O     O_R   0.803880 0.820900 0.967000 -0.478960
N1    N     N_R   0.599250 0.947357 0.817931 0.127230
O27   O     O_R   0.680995 0.034399 0.838507 -0.302573
O28   O     O_R   0.499184 0.931559 0.821862 -0.305325
N2    N     N_R   0.089310 0.666916 0.821656 0.126178
O29   O     O_R   0.998331 0.649019 0.843156 -0.296597
O30   O     O_R   0.119675 0.593386 0.826319 -0.330733
N3    N     N_R   0.368115 0.463419 0.816566 0.105509
O31   O     O_R   0.410176 0.399026 0.814828 -0.280807
O32   O     O_R   0.420157 0.555070 0.841476 -0.337051
N4    N     N_R   0.564155 0.935439 0.719066 0.104170
O33   O     O_R   0.473326 0.905918 0.694607 -0.361073
O34   O     O_R   0.635416 0.040502 0.724642 -0.287489
N5    N     N_R   0.089820 0.636862 0.722502 0.094779
O35   O     O_R   0.122247 0.586390 0.692597 -0.373260
O36   O     O_R   0.984470 0.590968 0.732762 -0.288849
N6    N     N_R   0.377184 0.490708 0.715497 0.082941
O37   O     O_R   0.418716 0.577770 0.687309 -0.380557
O38   O     O_R   0.427640 0.434038 0.718058 -0.290623

loop_
_geom_bond_atom_site_label_1
_geom_bond_atom_site_label_2
_geom_bond_distance
_ccdc_geom_bond_type
C11   C20   1.546580 S    
C72   C75   1.398039 A    
C49   C94   1.406475 A    
O8    C6    1.285142 A    
C10   H1    1.113589 S    
N5    O36   1.301630 A    
O12   C6    1.289328 A    
O1    C2    1.299997 A    
C28   C31   1.545123 S    
C65   C68   1.405403 A    
C93   H45   1.082557 S    
C22   N1    1.473646 S    
O11   C5    1.279258 A    
C8    H23   1.115609 S    
C76   C88   1.397460 A    
O6    C3    1.310017 A    
O17   Cr4   1.956289 S    
O15   C43   1.249775 A    
O5    Cr2   1.942878 S    
C69   C93   1.398221 A    
C11   H2    1.113650 S    
C14   C26   1.552550 S    
C64   C67   1.401286 A    
C43   C69   1.452936 S    
Cr4   O21   1.944902 S    
C15   H12   1.113475 S    
C70   H52   1.084828 S    
C19   C37   1.468005 S    
C24   H27   1.114973 S    
O3    C1    1.295668 A    
N1    O28   1.302021 A    
C44   C67   1.455251 S    
C25   C28   1.552613 S    
C38   C41   1.200269 T    
C26   C35   1.470092 S    
C32   H14   1.110492 S    
O7    C5    1.284216 A    
Cr6   O20   1.872292 S    
C15   H9    1.106680 S    
C48   O24   1.247159 A    
C77   C89   1.405724 A    
C80   C83   1.393610 A    
N3    O32   1.301149 A    
C58   H37   1.083389 S    
C20   C38   1.466116 S    
C73   C79   1.398785 A    
C9    N6    1.471239 S    
C17   C48   1.428392 S    
C87   C90   1.410029 A    
O16   C44   1.190460 A    
O4    Cr1   1.952705 S    
C54   C63   1.401333 A    
O9    C4    1.280386 A    
C4    C95   1.473255 S    
C79   C82   1.386683 A    
C13   H7    1.107344 S    
C66   H33   1.084452 S    
N6    O37   1.300826 A    
C72   H54   1.084462 S    
O16   Cr6   2.056030 S    
C23   C26   1.566134 S    
Cr6   O26   2.069830 S    
O18   Cr5   1.946011 S    
C85   C91   1.378546 A    
C24   C27   1.561978 S    
C87   C93   1.395371 A    
C13   H10   1.110089 S    
C37   C40   1.201519 T    
C8    C23   1.572378 S    
Cr5   O20   1.879977 S    
C12   H3    1.113594 S    
C33   H18   1.113467 S    
Cr3   O13   2.038223 S    
C11   C14   1.547157 S    
C71   C74   1.393844 A    
C73   C76   1.411246 A    
C7    N4    1.471193 S    
C6    C94   1.458796 S    
C22   H25   1.114794 S    
C20   C32   1.550182 S    
C85   C88   1.407151 A    
C66   C69   1.402472 A    
C46   O21   1.214621 A    
C18   C46   1.429041 S    
O8    Cr2   2.057539 S    
O1    Cr1   2.065152 S    
C22   C25   1.565405 S    
C21   C33   1.553632 S    
O10   Cr1   1.946959 S    
O2    Cr2   2.062533 S    
C60   H39   1.083838 S    
O11   Cr2   1.943644 S    
C57   C90   1.411570 A    
Cr1   O13   2.032825 S    
C80   H50   1.083682 S    
C83   C86   1.401216 A    
C5    C96   1.452141 S    
C58   C61   1.398587 A    
C16   C47   1.427602 S    
C7    C22   1.572490 S    
C8    N5    1.472070 S    
O4    C1    1.305871 A    
O6    Cr3   1.949323 S    
O9    Cr3   2.064850 S    
C17   C35   1.202330 T    
O17   C43   1.247891 A    
C28   H19   1.113705 S    
C29   H29   1.107577 S    
C18   C36   1.202782 T    
C52   C61   1.404171 A    
C59   C62   1.398521 A    
C47   O26   1.252741 A    
N1    O27   1.302055 A    
C52   C76   1.409610 A    
C71   C95   1.405529 A    
C75   C78   1.414106 A    
C51   C96   1.402358 A    
C8    C20   1.567146 S    
C28   H28   1.103826 S    
C31   H16   1.113695 S    
C81   C84   1.395236 A    
O19   Cr6   1.951262 S    
O7    Cr1   2.067070 S    
C56   C59   1.402949 A    
C27   C36   1.469851 S    
C82   H46   1.083717 S    
C83   H47   1.083596 S    
C51   H36   1.085592 S    
C67   C91   1.402844 A    
C82   C85   1.399399 A    
C51   C54   1.387475 A    
C72   C96   1.399083 A    
C49   H34   1.084157 S    
C74   C80   1.402126 A    
C59   H38   1.083243 S    
C30   H21   1.112952 S    
C10   C13   1.548784 S    
C65   H32   1.084153 S    
C75   C81   1.401247 A    
C55   C64   1.400043 A    
C10   C19   1.548432 S    
C79   H49   1.083918 S    
Cr2   O13   2.046593 S    
C86   C89   1.410380 A    
C57   C66   1.390489 A    
C9    H24   1.114298 S    
C7    H22   1.114234 S    
C91   H43   1.085274 S    
C50   C53   1.401401 A    
C78   C90   1.400888 A    
N2    O30   1.300754 A    
O15   Cr5   2.056829 S    
C74   C77   1.410486 A    
C46   O25   1.212013 A    
C48   O23   1.256786 A    
C60   C63   1.392019 A    
Cr5   O22   1.941518 S    
C86   C92   1.392441 A    
Cr6   O23   1.942625 S    
C56   C65   1.401125 A    
C21   C39   1.471306 S    
C54   C78   1.409274 A    
C33   H15   1.110701 S    
C2    C42   1.429820 S    
C29   H20   1.113318 S    
C12   C15   1.550393 S    
C63   H42   1.083526 S    
C29   C32   1.548520 S    
C30   H30   1.110632 S    
C1    C41   1.424646 S    
O5    C2    1.308450 A    
C64   H31   1.084125 S    
C49   C52   1.396049 A    
C70   C73   1.383147 A    
C11   H5    1.110422 S    
O18   C44   1.207672 A    
O14   Cr4   2.060014 S    
C32   H17   1.113574 S    
C70   C94   1.400043 A    
O19   C45   1.249499 A    
C57   C60   1.400794 A    
C56   C89   1.412219 A    
C61   H40   1.083489 S    
C16   C34   1.201835 T    
N4    O33   1.300622 A    
C39   C42   1.203266 T    
C7    C19   1.569162 S    
C68   C92   1.401685 A    
O10   C4    1.288767 A    
C9    C24   1.567591 S    
C53   C62   1.403619 A    
C23   N2    1.473548 S    
C84   H48   1.077358 S    
C71   H53   1.084311 S    
C13   C25   1.557891 S    
C12   H6    1.108468 S    
C30   C33   1.552374 S    
Cr4   O20   1.867329 S    
C12   C21   1.548953 S    
C14   H8    1.107684 S    
C47   O22   1.255548 A    
C24   N3    1.472371 S    
C62   H41   1.083515 S    
N3    O31   1.300232 A    
C92   H44   1.083980 S    
C9    C21   1.567511 S    
C55   C88   1.414167 A    
C3    C40   1.426898 S    
C55   C58   1.402892 A    
O3    Cr3   2.067442 S    
C50   C95   1.406417 A    
C19   C31   1.549216 S    
N5    O35   1.300477 A    
C81   H51   1.083842 S    
C53   C77   1.411554 A    
C10   H4    1.109994 S    
O12   Cr3   1.947144 S    
C25   C34   1.468840 S    
C27   C30   1.555033 S    
O14   C45   1.248897 A    
C50   H35   1.084059 S    
C14   H11   1.109875 S    
Cr5   O25   2.065677 S    
N6    O38   1.300344 A    
C15   C27   1.556051 S    
N2    O29   1.301422 A    
O2    C3    1.303282 A    
Cr4   O24   2.075947 S    
C23   H26   1.115014 S    
C45   C68   1.466555 S    
C31   H13   1.109740 S    
C84   C87   1.400651 A    
C26   C29   1.553292 S    
N4    O34   1.301503 A    
