data_mof_unit_35978.cif
_audit_creation_date              2012-12-10T16:55:01-0500
_audit_creation_method            fapswitch 2.2
_symmetry_space_group_name_H-M    P1
_symmetry_Int_Tables_number       1
_space_group_crystal_system       triclinic
_cell_length_a                    9.725862
_cell_length_b                    10.877011
_cell_length_c                    15.390662
_cell_angle_alpha                 90.174559
_cell_angle_beta                  73.283011
_cell_angle_gamma                 90.564474
_cell_volume                      1559.26618741

loop_
_atom_site_label
_atom_site_type_symbol
_atom_type_description
_atom_site_fract_x
_atom_site_fract_y
_atom_site_fract_z
_atom_type_partial_charge
C1    C     C_R   0.998508 0.265443 0.501502 0.863191
C2    C     C_R   0.679266 0.557273 0.910552 0.066924
C3    C     C_R   0.777550 0.537116 0.961248 0.093859
C4    C     C_R   0.534568 0.587476 0.956327 -0.095263
C5    C     C_R   0.484055 0.565462 0.051141 -0.100251
C6    C     C_R   0.586565 0.562312 0.101167 0.460835
C7    C     C_R   0.730946 0.544286 0.055611 -0.304513
C8    C     C_R   0.438539 0.640858 0.912536 0.380890
C9    C     C_R   0.293469 0.650940 0.959183 -0.171135
C10   C     C_R   0.240248 0.609828 0.048440 -0.049721
C11   C     C_R   0.333556 0.557748 0.093256 -0.035518
C12   C     C_R   0.916345 0.501483 0.672611 0.783730
C13   C     C_R   0.094949 0.624150 0.094305 -0.221345
C14   C     C_R   0.039367 0.584812 0.183696 0.312452
C15   C     C_R   0.272408 0.500283 0.178676 0.348428
C16   C     C_2   0.879514 0.932383 0.548188 0.447708
C17   C     C_2   0.999772 0.867275 0.513126 -0.484551
C18   C     C_2   0.889062 0.066878 0.559691 0.344638
C19   C     C_2   0.995317 0.132832 0.501863 -0.482496
C20   C     C_2   0.390691 0.484589 0.571644 -0.154485
C21   C     C_2   0.545854 0.452559 0.564874 0.663247
C22   C     C_R   0.999116 0.734711 0.503837 0.897263
C23   C     C_R   0.083430 0.503243 0.327114 0.851871
C24   C     C_R   0.870107 0.511753 0.772044 -0.051738
C25   C     C_R   0.129526 0.525142 0.227851 -0.204435
C26   C     C_R   0.921661 0.510676 0.916833 -0.174940
C27   C     C_R   0.968248 0.500571 0.822645 -0.186867
C28   C     C_R   0.726182 0.537159 0.816507 -0.227113
Cu1   Cu    Cu3+1 0.138640 0.500020 0.499980 0.962920
Cu2   Cu    Cu3+1 0.861360 0.499980 0.500020 1.016952
H1    H     H_    0.806426 0.533660 0.094494 0.189542
H2    H     H_    0.024407 0.669119 0.061354 0.161060
H3    H     H_    0.105017 0.910628 0.495738 0.124337
H4    H     H_    0.078151 0.089916 0.448062 0.125202
H5    H     H_    0.312431 0.488378 0.637680 0.145534
H6    H     H_    0.417859 0.477485 0.439297 0.270038
H7    H     H_    0.222288 0.693763 0.925619 0.161681
H8    H     H_    0.998189 0.496992 0.954891 0.137671
H9    H     H_    0.080274 0.481931 0.789653 0.154080
H10   H     H_    0.650473 0.538171 0.777201 0.208427
N1    N     N_2   0.346430 0.498660 0.500980 -0.270624
N2    N     N_2   0.652550 0.498630 0.501000 -0.057177
O1    O     O_R   0.117050 0.321960 0.499980 -0.571334
O2    O     O_R   0.882890 0.321920 0.500020 -0.546691
O3    O     O_R   0.052910 0.500040 0.629810 -0.597213
O4    O     O_R   0.818750 0.499990 0.629840 -0.536619
O5    O     O_R   0.117110 0.678080 0.499980 -0.587580
O6    O     O_R   0.882950 0.678040 0.500020 -0.550777
O7    O     O_R   0.181250 0.500010 0.370160 -0.528855
O8    O     O_R   0.947090 0.499960 0.370190 -0.599902
O9    O     O_3   0.751551 0.871686 0.590073 -0.561943
C29   C     C_3   0.650195 0.896095 0.542746 0.096912
H11   H     H_    0.687742 0.857866 0.472690 0.147340
H12   H     H_    0.631600 0.996603 0.538999 0.152840
C30   C     C_3   0.507891 0.834398 0.593294 -0.271021
H13   H     H_    0.525711 0.735325 0.603269 0.257624
H14   H     H_    0.466026 0.877548 0.661260 0.230212
C31   C     C_3   0.396363 0.846448 0.541604 -0.899415
H15   H     H_    0.378050 0.944781 0.529596 0.239056
H16   H     H_    0.293401 0.804644 0.582121 0.275451
H17   H     H_    0.432496 0.797655 0.475567 0.283301
O10   O     O_3   0.783938 0.119750 0.630159 -0.712260
H18   H     H_    0.817434 0.200844 0.645827 0.334328
O11   O     O_3   0.581192 0.380898 0.630420 -0.607192
C32   C     C_3   0.469149 0.302892 0.680706 -0.003720
H19   H     H_    0.517650 0.213327 0.689003 0.218832
H20   H     H_    0.386716 0.279952 0.645672 0.124407
C33   C     C_3   0.402368 0.356315 0.775663 -0.358923
H21   H     H_    0.484717 0.359342 0.812905 0.234222
H22   H     H_    0.365965 0.451777 0.770891 0.222404
C34   C     C_3   0.275327 0.278533 0.829683 -0.900123
H23   H     H_    0.191118 0.273688 0.793970 0.254892
H24   H     H_    0.228591 0.320633 0.897494 0.256960
H25   H     H_    0.310915 0.183997 0.838959 0.266397
O12   O     O_3   0.619537 0.586701 0.449617 -0.711727
H26   H     H_    0.712683 0.618938 0.411702 0.379606
O13   O     O_3   0.345208 0.413287 0.213155 -0.683341
H27   H     H_    0.417418 0.374217 0.161843 0.330838
O14   O     O_3   0.897641 0.608851 0.226369 -0.753943
H28   H     H_    0.851187 0.528808 0.248200 0.348356
O15   O     O_3   0.549373 0.577308 0.194593 -0.565724
C35   C     C_3   0.500356 0.698490 0.219295 0.093367
H29   H     H_    0.411155 0.692511 0.283312 0.178769
H30   H     H_    0.456063 0.745364 0.168943 0.117224
C36   C     C_3   0.620990 0.777250 0.236537 -0.320746
H31   H     H_    0.656747 0.735523 0.291949 0.262097
H32   H     H_    0.713476 0.780456 0.174133 0.239933
C37   C     C_3   0.571205 0.908114 0.263730 -0.940876
H33   H     H_    0.540193 0.953862 0.207817 0.265377
H34   H     H_    0.659926 0.961696 0.278156 0.263894
H35   H     H_    0.477950 0.907346 0.325644 0.255521
O16   O     O_3   0.483487 0.698104 0.829207 -0.759740
H36   H     H_    0.579033 0.735713 0.823174 0.339199

loop_
_geom_bond_atom_site_label_1
_geom_bond_atom_site_label_2
_ccdc_geom_bond_type
C8    C9    A    
C22   O6    A    
C30   H13   S    
C13   H2    S    
C16   O9    S    
C4    C8    A    
O15   C35   S    
Cu1   O7    S    
O13   H27   S    
C26   C27   A    
Cu1   Cu2   S    
Cu1   O5    S    
Cu2   O6    S    
C5    C11   A    
C3    C7    A    
C5    C6    A    
C23   O7    A    
C28   H10   S    
C31   H16   S    
C18   C19   D    
C21   O11   S    
C33   H21   S    
C20   H5    S    
C11   C15   A    
C1    O1    A    
C27   H9    S    
C16   C17   D    
C32   H20   S    
C24   C27   A    
C8    O16   S    
C9    C10   A    
C29   C30   S    
C31   H17   S    
C22   O5    A    
Cu2   O8    S    
C6    O15   S    
C13   C14   A    
Cu1   O1    S    
Cu2   O2    S    
H6    N1    S    
C17   H3    S    
C29   H12   S    
C20   N1    D    
C36   H32   S    
C1    C19   S    
C7    H1    S    
O9    C29   S    
C12   O4    A    
C34   H24   S    
C26   H8    S    
C23   O8    A    
C31   H15   S    
C36   H31   S    
C10   C13   A    
C21   N2    D    
Cu1   O3    S    
C2    C4    A    
O12   H26   S    
O10   H18   S    
C1    O2    A    
C37   H35   S    
C32   C33   S    
C9    H7    S    
N2    O12   S    
C14   O14   S    
C37   H33   S    
C16   C18   S    
C37   H34   S    
C32   H19   S    
C35   H30   S    
C30   H14   S    
C29   H11   S    
C36   C37   S    
Cu1   N1    S    
Cu2   O4    S    
C3    C26   A    
C18   O10   S    
C24   C28   A    
C4    C5    A    
C19   H4    S    
C34   H25   S    
C6    C7    A    
C12   O3    A    
C35   C36   S    
C12   C24   S    
C17   C22   S    
O11   C32   S    
C2    C3    A    
C34   H23   S    
C15   O13   S    
C33   C34   S    
O16   H36   S    
C23   C25   S    
C14   C25   A    
C15   C25   A    
C10   C11   A    
O14   H28   S    
C20   C21   S    
C33   H22   S    
C35   H29   S    
C30   C31   S    
Cu2   N2    S    
C2    C28   A    
