data_mof_unit_59738.cif
_audit_creation_date              2012-12-11T16:13:52-0500
_audit_creation_method            fapswitch 2.2
_symmetry_space_group_name_H-M    P1
_symmetry_Int_Tables_number       1
_space_group_crystal_system       triclinic
_cell_length_a                    26.160847
_cell_length_b                    7.264956
_cell_length_c                    23.794317
_cell_angle_alpha                 90.000044
_cell_angle_beta                  101.48039
_cell_angle_gamma                 89.999987
_cell_volume                      4431.80817233

loop_
_atom_site_label
_atom_site_type_symbol
_atom_type_description
_atom_site_fract_x
_atom_site_fract_y
_atom_site_fract_z
_atom_type_partial_charge
O1    O     O_R   0.192370 0.384760 0.193350 -0.532423
O2    O     O_R   0.807630 0.615240 0.806650 -0.532116
O3    O     O_R   0.307630 0.884760 0.306650 -0.532423
O4    O     O_R   0.692370 0.115240 0.693350 -0.532117
O5    O     O_R   0.296630 0.711620 0.196480 -0.513213
O6    O     O_R   0.703370 0.288380 0.803520 -0.507093
O7    O     O_R   0.203370 0.211620 0.303520 -0.513213
O8    O     O_R   0.796630 0.788380 0.696480 -0.507093
C1    C     C_R   0.311468 0.545931 0.183122 0.726876
C2    C     C_R   0.687642 0.453660 0.816167 0.731252
C3    C     C_R   0.188531 0.045931 0.316878 0.726876
C4    C     C_R   0.812357 0.953660 0.683833 0.731251
O9    O     O_R   0.192080 0.714290 0.186600 -0.540409
O10   O     O_R   0.807920 0.285710 0.813400 -0.539064
O11   O     O_R   0.307920 0.214290 0.313400 -0.540409
O12   O     O_R   0.692080 0.785710 0.686600 -0.539064
O13   O     O_R   0.202340 0.887460 0.296690 -0.539483
O14   O     O_R   0.797660 0.112540 0.703310 -0.543840
O15   O     O_R   0.297660 0.387460 0.203310 -0.539483
O16   O     O_R   0.702340 0.612540 0.796690 -0.543840
C5    C     C_R   0.173770 0.545890 0.171365 0.695885
C6    C     C_R   0.826275 0.454102 0.828592 0.712316
C7    C     C_R   0.326230 0.045890 0.328635 0.695886
C8    C     C_R   0.673725 0.954102 0.671408 0.712316
O17   O     O_3   0.253490 0.552180 0.286130 -0.370227
O18   O     O_3   0.746510 0.447820 0.713870 -0.375687
O19   O     O_3   0.246510 0.052180 0.213870 -0.370227
O20   O     O_3   0.753490 0.947820 0.786130 -0.375686
V1    V     V_3+5 0.249350 0.825920 0.243300 1.455008
V2    V     V_3+5 0.750650 0.174080 0.756700 1.439393
V3    V     V_3+5 0.250650 0.325920 0.256700 1.455009
V4    V     V_3+5 0.749350 0.674080 0.743300 1.439393
C9    C     C_3   0.530834 0.869874 0.486808 0.134959
C10   C     C_3   0.468651 0.130078 0.513733 0.134787
C11   C     C_3   0.969166 0.369874 0.013192 0.134959
C12   C     C_3   0.031349 0.630079 0.986267 0.134787
C13   C     C_3   0.513827 0.043797 0.450372 -0.174615
C14   C     C_3   0.485673 0.956163 0.550185 -0.176360
C15   C     C_3   0.986173 0.543796 0.049628 -0.174615
C16   C     C_3   0.014327 0.456163 0.949815 -0.176361
H1    H     H_    0.525343 0.078557 0.409192 0.120639
H2    H     H_    0.474156 0.921384 0.591364 0.117347
H3    H     H_    0.974657 0.578556 0.090808 0.120639
H4    H     H_    0.025844 0.421386 0.908636 0.117347
H5    H     H_    0.546064 0.296123 0.511351 0.116842
H6    H     H_    0.453411 0.703878 0.489208 0.116892
H7    H     H_    0.953936 0.796123 0.988649 0.116842
H8    H     H_    0.046589 0.203879 0.010791 0.116892
C17   C     C_1   0.371860 0.036439 0.374605 -0.186179
C18   C     C_1   0.627912 0.963537 0.625641 -0.185323
C19   C     C_1   0.128140 0.536439 0.125395 -0.186178
C20   C     C_1   0.872088 0.463537 0.874358 -0.185323
C21   C     C_3   0.474261 0.837533 0.494658 -0.175981
C22   C     C_3   0.525230 0.162439 0.505893 -0.176511
C23   C     C_3   0.025739 0.337534 0.005342 -0.175981
C24   C     C_3   0.974770 0.662439 0.994107 -0.176511
C25   C     C_3   0.457449 0.012727 0.458938 0.113682
C26   C     C_3   0.542060 0.987220 0.541609 0.114466
C27   C     C_3   0.042551 0.512728 0.041062 0.113682
C28   C     C_3   0.957940 0.487220 0.958391 0.114467
C29   C     C_1   0.410311 0.026458 0.412714 -0.067935
C30   C     C_1   0.589314 0.973505 0.587704 -0.068058
C31   C     C_1   0.089689 0.526458 0.087286 -0.067935
C32   C     C_1   0.910686 0.473505 0.912296 -0.068058
C33   C     C_R   0.869733 0.130449 0.629636 -0.244352
C34   C     C_R   0.119394 0.886580 0.357800 -0.208603
C35   C     C_R   0.630267 0.630449 0.870364 -0.244352
C36   C     C_R   0.380607 0.386580 0.142201 -0.208602
H9    H     H_    0.857345 0.257117 0.646613 0.203445
H10   H     H_    0.120572 0.773049 0.328574 0.169354
H11   H     H_    0.642654 0.757117 0.853387 0.203445
H12   H     H_    0.379429 0.273050 0.171427 0.169352
C37   C     C_R   0.905078 0.140561 0.592692 -0.215465
C38   C     C_R   0.082820 0.881153 0.393248 -0.177207
C39   C     C_R   0.594922 0.640562 0.907308 -0.215465
C40   C     C_R   0.417181 0.381153 0.106752 -0.177205
H13   H     H_    0.917088 0.274735 0.580805 0.212635
H14   H     H_    0.057417 0.762408 0.390436 0.189970
H15   H     H_    0.582911 0.774736 0.919194 0.212635
H16   H     H_    0.442584 0.262409 0.109565 0.189969
C41   C     C_R   0.924974 0.980659 0.571713 -0.140528
C42   C     C_R   0.077635 0.028277 0.430147 -0.150860
C43   C     C_R   0.575026 0.480660 0.928288 -0.140528
C44   C     C_R   0.422365 0.528277 0.069853 -0.150860
C45   C     C_R   0.907925 0.808128 0.588536 0.399858
C46   C     C_R   0.112391 0.179433 0.432901 0.408992
C47   C     C_R   0.592075 0.308129 0.911464 0.399858
C48   C     C_R   0.387608 0.679432 0.067098 0.408990
C49   C     C_R   0.868235 0.798291 0.620895 0.377493
C50   C     C_R   0.150669 0.181930 0.398470 0.395270
C51   C     C_R   0.631765 0.298292 0.879105 0.377493
C52   C     C_R   0.349330 0.681929 0.101530 0.395270
C53   C     C_R   0.850371 0.960354 0.644242 -0.210936
C54   C     C_R   0.152812 0.037998 0.358548 -0.215420
C55   C     C_R   0.649629 0.460354 0.855759 -0.210936
C56   C     C_R   0.347188 0.537997 0.141452 -0.215419
N1    N     N_R   0.976941 0.845443 0.505120 -0.213945
N2    N     N_R   0.022605 0.169716 0.493074 -0.226634
N3    N     N_R   0.523061 0.345445 0.994882 -0.213945
N4    N     N_R   0.477394 0.669716 0.006924 -0.226635
N5    N     N_R   0.012499 0.856837 0.472224 -0.280995
N6    N     N_R   0.987093 0.158190 0.526141 -0.303810
N7    N     N_R   0.487502 0.356838 0.027777 -0.280995
N8    N     N_R   0.512906 0.658190 0.973858 -0.303811
C57   C     C_R   0.036559 0.018922 0.465771 0.541507
C58   C     C_R   0.963744 0.995154 0.533381 0.536265
C59   C     C_R   0.463441 0.518922 0.034229 0.541507
C60   C     C_R   0.536256 0.495155 0.966619 0.536265
C61   C     C_3   0.567364 0.721340 0.472118 -0.373452
C62   C     C_3   0.542390 0.616418 0.417688 -0.305380
C63   C     C_3   0.580622 0.479282 0.400323 -0.762675
H17   H     H_    0.614750 0.552902 0.389853 0.232096
H18   H     H_    0.594395 0.379964 0.435544 0.224995
H19   H     H_    0.560993 0.401634 0.361847 0.218637
H20   H     H_    0.507476 0.540447 0.425227 0.193291
H21   H     H_    0.529838 0.714850 0.381822 0.200252
H22   H     H_    0.604094 0.788220 0.466077 0.177863
H23   H     H_    0.576771 0.623891 0.508702 0.167417
C64   C     C_3   0.432005 0.278437 0.528295 -0.374604
C65   C     C_3   0.456765 0.383272 0.582815 -0.298469
C66   C     C_3   0.418408 0.520334 0.599979 -0.785318
H24   H     H_    0.404793 0.619757 0.564743 0.227372
H25   H     H_    0.384189 0.446665 0.610209 0.226118
H26   H     H_    0.437870 0.597870 0.638552 0.215515
H27   H     H_    0.469176 0.284782 0.618696 0.195506
H28   H     H_    0.491742 0.459278 0.575474 0.193734
H29   H     H_    0.422694 0.375968 0.491722 0.167261
H30   H     H_    0.395233 0.211418 0.534145 0.172828
C67   C     C_3   0.932636 0.221340 0.027881 -0.373451
C68   C     C_3   0.957610 0.116418 0.082312 -0.305378
C69   C     C_3   0.919378 0.979283 0.099677 -0.762674
H31   H     H_    0.885250 0.052904 0.110147 0.232095
H32   H     H_    0.905605 0.879965 0.064456 0.224995
H33   H     H_    0.939007 0.901635 0.138153 0.218637
H34   H     H_    0.992524 0.040446 0.074773 0.193291
H35   H     H_    0.970162 0.214851 0.118178 0.200252
H36   H     H_    0.895906 0.288219 0.033923 0.177863
H37   H     H_    0.923229 0.123890 0.991297 0.167416
C70   C     C_3   0.067995 0.778438 0.971705 -0.374605
C71   C     C_3   0.043234 0.883273 0.917185 -0.298468
C72   C     C_3   0.081592 0.020334 0.900021 -0.785316
H38   H     H_    0.095207 0.119758 0.935256 0.227372
H39   H     H_    0.115811 0.946664 0.889791 0.226117
H40   H     H_    0.062130 0.097869 0.861448 0.215515
H41   H     H_    0.030824 0.784782 0.881304 0.195506
H42   H     H_    0.008258 0.959279 0.924527 0.193734
H43   H     H_    0.077305 0.875969 0.008278 0.167261
H44   H     H_    0.104767 0.711419 0.965856 0.172829
O21   O     O_3   0.929170 0.646560 0.572826 -0.533993
C73   C     C_3   0.972015 0.599346 0.616578 -0.195583
H45   H     H_    0.958741 0.558501 0.656414 0.134642
H46   H     H_    0.001028 0.713145 0.625787 0.115286
H47   H     H_    0.992354 0.479758 0.602101 0.181505
O22   O     O_3   0.106888 0.332199 0.465945 -0.520620
C74   C     C_3   0.136590 0.307780 0.521856 -0.159386
H48   H     H_    0.177246 0.354430 0.523882 0.132021
H49   H     H_    0.136178 0.163600 0.537871 0.091139
H50   H     H_    0.119766 0.396199 0.551586 0.164027
O23   O     O_3   0.570830 0.146561 0.927174 -0.533993
C75   C     C_3   0.527985 0.099348 0.883423 -0.195584
H51   H     H_    0.541258 0.058502 0.843586 0.134642
H52   H     H_    0.498972 0.213146 0.874214 0.115286
H53   H     H_    0.507646 0.979760 0.897900 0.181506
O24   O     O_3   0.393111 0.832197 0.034053 -0.520619
C76   C     C_3   0.363408 0.807776 0.978143 -0.159382
H54   H     H_    0.322751 0.854415 0.976117 0.132018
H55   H     H_    0.363823 0.663596 0.962127 0.091143
H56   H     H_    0.380230 0.896204 0.948413 0.164025
O25   O     O_3   0.848954 0.627436 0.631497 -0.547752
C77   C     C_3   0.808447 0.581971 0.584916 -0.187519
H57   H     H_    0.777881 0.690927 0.576637 0.104578
H58   H     H_    0.789190 0.454156 0.595480 0.146981
H59   H     H_    0.824109 0.555171 0.545520 0.156337
O26   O     O_3   0.184380 0.330579 0.403239 -0.528202
C78   C     C_3   0.233661 0.276807 0.435099 -0.193553
H60   H     H_    0.256711 0.402540 0.449234 0.151470
H61   H     H_    0.255668 0.195452 0.408400 0.119961
H62   H     H_    0.230860 0.196305 0.474201 0.083807
O27   O     O_3   0.651046 0.127436 0.868503 -0.547752
C79   C     C_3   0.691554 0.081972 0.915084 -0.187518
H63   H     H_    0.722119 0.190927 0.923363 0.104578
H64   H     H_    0.710810 0.954156 0.904520 0.146981
H65   H     H_    0.675891 0.055172 0.954480 0.156337
O28   O     O_3   0.315618 0.830576 0.096760 -0.528202
C80   C     C_3   0.266338 0.776800 0.064900 -0.193556
H66   H     H_    0.243288 0.902534 0.050761 0.151470
H67   H     H_    0.244330 0.695455 0.091601 0.119968
H68   H     H_    0.269138 0.696283 0.025800 0.083803

loop_
_geom_bond_atom_site_label_1
_geom_bond_atom_site_label_2
_ccdc_geom_bond_type
O17   V3    S    
H8    C23   S    
C43   C47   A    
C26   C30   S    
C76   H54   S    
C16   C28   S    
C23   C27   S    
C74   H49   S    
O13   V1    S    
O25   C77   S    
N3    N7    A    
C63   H17   S    
C9    C26   S    
C52   C56   A    
C69   H33   S    
O15   V3    S    
C40   C44   A    
C61   H22   S    
C78   H61   S    
O28   C80   S    
O1    C5    A    
N3    C60   A    
C14   C21   S    
C70   H43   S    
C36   C56   A    
N2    C57   A    
O9    V1    S    
O24   C76   S    
O10   V2    S    
C14   H2    S    
C47   C51   A    
C72   H39   S    
O16   V4    S    
C11   C15   S    
O4    C8    A    
C65   H28   S    
C7    C17   S    
O19   V1    S    
C77   H57   S    
C34   C38   A    
O1    V3    S    
C44   C59   S    
C33   C37   A    
C43   C60   S    
O2    V4    S    
C42   C57   S    
O3    V1    S    
C62   C63   S    
C66   H26   S    
C14   C26   S    
O3    C7    A    
C1    O15   A    
N4    N8    A    
C67   H37   S    
C68   H34   S    
C2    O16   A    
C73   H47   S    
C51   O27   S    
O2    C6    A    
C10   C25   S    
O14   V2    S    
C11   C67   S    
C79   H65   S    
C36   H12   S    
C34   C54   A    
C64   H30   S    
C12   C27   S    
N8    C60   A    
C33   C53   A    
O12   C8    A    
C74   H50   S    
C8    C18   S    
C38   C42   A    
C37   C41   A    
C67   H36   S    
C79   H64   S    
C61   H23   S    
C50   C54   A    
C78   H62   S    
O5    V1    S    
C9    C21   S    
C70   H44   S    
N5    C57   A    
C17   C29   T    
C11   C23   S    
O8    V4    S    
C75   H53   S    
C48   C52   A    
C12   C16   S    
O7    V3    S    
C71   C72   S    
C20   C32   T    
C72   H40   S    
C71   H42   S    
C45   C49   A    
C65   H27   S    
C80   H68   S    
C15   H3    S    
C48   O24   S    
C49   C53   A    
O4    V2    S    
C24   C28   S    
C11   C28   S    
C75   H52   S    
O7    C3    A    
O5    C1    A    
C12   C24   S    
N1    N5    A    
O23   C75   S    
O8    C4    A    
C16   C23   S    
C15   C27   S    
C66   H24   S    
O9    C5    A    
C63   H18   S    
C15   C24   S    
C36   C40   A    
C64   C65   S    
O11   V3    S    
C1    C56   S    
O22   C74   S    
N1    C58   A    
C3    C54   S    
O6    V2    S    
C35   C55   A    
H5    C22   S    
C10   C22   S    
C76   H56   S    
C72   H38   S    
C46   C50   A    
C18   C30   T    
C73   H46   S    
C4    C53   S    
C35   C39   A    
C13   C22   S    
C69   H31   S    
C62   H21   S    
C5    C19   S    
C79   H63   S    
C6    C20   S    
C67   C68   S    
C22   C26   S    
C10   C64   S    
C19   C31   T    
C41   C58   S    
C3    O13   A    
N4    C59   A    
C21   C25   S    
C10   C14   S    
C68   H35   S    
C52   O28   S    
C40   H16   S    
C69   H32   S    
C71   H41   S    
O6    C2    A    
C70   C71   S    
C25   C29   S    
O18   V4    S    
O12   V4    S    
C45   O21   S    
C50   O26   S    
C27   C31   S    
C73   H45   S    
C28   C32   S    
C75   H51   S    
O10   C6    A    
O20   V2    S    
C68   C69   S    
C46   O22   S    
C49   O25   S    
C78   H60   S    
N2    N6    A    
O21   C73   S    
C42   C46   A    
C39   C43   A    
C80   H66   S    
C34   H10   S    
C44   C48   A    
C77   H58   S    
C2    C55   S    
C33   H9    S    
H6    C21   S    
O11   C7    A    
C47   O23   S    
C9    C13   S    
N6    C58   A    
C63   H19   S    
C35   H11   S    
C13   H1    S    
C12   C70   S    
C13   C25   S    
C66   H25   S    
C80   H67   S    
C51   C55   A    
O27   C79   S    
C16   H4    S    
C9    C61   S    
C76   H55   S    
C38   H14   S    
C4    O14   A    
C74   H48   S    
C37   H13   S    
C65   C66   S    
N7    C59   A    
C61   C62   S    
C39   H15   S    
C62   H20   S    
C77   H59   S    
C41   C45   A    
H7    C24   S    
O26   C78   S    
C64   H29   S    
