data_mof_unit_15193.cif
_audit_creation_date              2012-10-26T19:26:31-0400
_audit_creation_method            fapswitch 2.2
_symmetry_space_group_name_H-M    P1
_symmetry_Int_Tables_number       1
_space_group_crystal_system       triclinic
_cell_length_a                    15.059473
_cell_length_b                    13.794719
_cell_length_c                    15.89373
_cell_angle_alpha                 89.945331
_cell_angle_beta                  88.5791
_cell_angle_gamma                 89.919909
_cell_volume                      3300.76263336

loop_
_atom_site_label
_atom_site_type_symbol
_atom_type_description
_atom_site_fract_x
_atom_site_fract_y
_atom_site_fract_z
_atom_type_partial_charge
C1    C     C_R   0.329222 0.500030 0.499435 0.493147
C2    C     C_R   0.904954 0.492437 0.575913 -0.009987
C3    C     C_R   0.953157 0.490269 0.497667 -0.017690
C4    C     C_R   0.500374 0.500072 0.340506 0.528189
C5    C     C_R   0.907779 0.487287 0.420337 -0.005326
C6    C     C_R   0.951969 0.487361 0.651696 0.398511
C7    C     C_R   0.044592 0.492739 0.651324 0.047791
C8    C     C_R   0.091872 0.504244 0.573824 -0.048960
C9    C     C_R   0.046955 0.490553 0.497176 0.010114
C10   C     C_R   0.096263 0.477474 0.420649 0.002774
C11   C     C_R   0.050766 0.472121 0.343380 0.019631
C12   C     C_3   0.600811 0.550220 0.946678 -0.069711
C13   C     C_R   0.956877 0.470565 0.343905 0.016246
C14   C     C_R   0.183485 0.526085 0.570025 -0.033780
C15   C     C_R   0.232672 0.499538 0.497645 -0.024368
C16   C     C_R   0.670682 0.499789 0.499897 0.537362
C17   C     C_R   0.189988 0.466946 0.425234 -0.021196
C18   C     C_R   0.443797 0.793933 0.553346 0.535748
C19   C     C_R   0.443837 0.206151 0.553288 0.532397
C20   C     C_R   0.554608 0.793906 0.444382 0.063037
C21   C     C_R   0.553819 0.206424 0.443259 0.084413
C22   C     C_R   0.545865 0.896485 0.433943 -0.051589
C23   C     C_3   0.605992 0.533440 0.047934 -0.023288
C24   C     C_R   0.546012 0.103536 0.433401 -0.085090
C25   C     C_R   0.493967 0.948415 0.493383 -0.010547
C26   C     C_R   0.493873 0.051799 0.493081 -0.011885
C27   C     C_R   0.442234 0.896824 0.553553 0.011889
C28   C     C_R   0.442141 0.103374 0.553294 0.014077
C29   C     C_R   0.585205 0.947918 0.364790 0.027707
C30   C     C_R   0.586721 0.051012 0.365269 0.002651
C31   C     C_R   0.389289 0.051039 0.611708 -0.091218
C32   C     C_R   0.389309 0.949235 0.611817 -0.087070
C33   C     C_R   0.499611 0.499978 0.659656 0.574918
C34   C     C_1   0.505705 0.501111 0.824151 0.004745
C35   C     C_3   0.434563 0.579815 0.049837 -0.017914
C36   C     C_3   0.482012 0.397012 0.049040 -0.047182
C37   C     C_3   0.498982 0.397867 0.950497 0.228488
C38   C     C_3   0.429457 0.563834 0.951558 0.219022
C39   C     C_1   0.502285 0.500098 0.748932 0.063981
C40   C     C_3   0.507081 0.503701 0.083490 -0.126544
C41   C     C_3   0.510415 0.503622 0.916560 -0.049329
C42   C     C_2   0.091328 0.471564 0.730896 0.370995
C43   C     C_2   0.227732 0.579996 0.638651 0.278069
C44   C     C_2   0.244233 0.416529 0.358963 0.253366
C45   C     C_1   0.504511 0.501853 0.176094 0.014948
C46   C     C_2   0.100825 0.478979 0.261644 0.343358
C47   C     C_2   0.910408 0.440508 0.266516 0.360119
C48   C     C_2   0.631608 0.743912 0.404623 0.311469
C49   C     C_2   0.631820 0.256197 0.405300 0.302051
C50   C     C_2   0.609702 0.894132 0.286162 0.299722
C51   C     C_2   0.616382 0.103013 0.287870 0.313839
C52   C     C_2   0.341484 0.566676 0.089227 0.233098
C53   C     C_2   0.386222 0.369957 0.072998 0.223714
C54   C     C_2   0.533315 0.314514 0.090008 0.293955
C55   C     C_2   0.456253 0.684005 0.073906 0.399766
C56   C     C_1   0.502357 0.500488 0.251380 0.074475
C57   C     C_2   0.648893 0.621039 0.090445 0.357345
C58   C     C_2   0.671485 0.451833 0.069555 0.289751
C59   C     C_2   0.602314 0.655779 0.914367 0.340311
C60   C     C_2   0.681351 0.506370 0.899866 0.202716
C61   C     C_2   0.764955 0.533455 0.346814 0.263585
C62   C     C_2   0.757510 0.496490 0.656073 0.316098
C63   C     C_R   0.814364 0.502075 0.422250 -0.043368
C64   C     C_R   0.767261 0.498048 0.499463 -0.019765
C65   C     C_R   0.811110 0.493145 0.576231 0.017693
Cu1   Cu    Cu3+1 0.499990 0.597420 0.500010 1.051966
Cu2   Cu    Cu3+1 0.499990 0.402580 0.500010 1.106589
F1    F     F_    0.390831 0.744037 0.608343 -0.590746
F2    F     F_    0.391032 0.256106 0.608444 -0.604886
F3    F     F_    0.572180 0.342299 0.926732 -0.605909
F4    F     F_    0.419438 0.649622 0.907052 -0.548410
F5    F     F_    0.908956 0.470691 0.726488 -0.560275
H1    H     H_    0.369103 0.521084 0.936980 0.138951
H2    H     H_    0.623249 0.683487 0.362586 0.156445
H3    H     H_    0.695524 0.249683 0.435241 0.125271
H4    H     H_    0.566676 0.836671 0.264550 0.096892
H5    H     H_    0.569335 0.147195 0.254129 0.139533
H6    H     H_    0.284622 0.553591 0.050151 0.182979
H7    H     H_    0.366368 0.367397 0.139174 0.157617
H8    H     H_    0.564025 0.324395 0.150381 0.137989
H9    H     H_    0.488030 0.698691 0.132742 0.139471
H10   H     H_    0.702386 0.659227 0.057651 0.207740
H11   H     H_    0.688819 0.395524 0.024624 0.211277
H12   H     H_    0.442809 0.363567 0.917731 0.215329
H13   H     H_    0.605882 0.668047 0.846794 0.149908
H14   H     H_    0.673716 0.451201 0.852071 0.223517
H15   H     H_    0.701043 0.501681 0.333201 0.138030
H16   H     H_    0.768948 0.553243 0.701777 0.167920
H17   H     H_    0.348239 0.088707 0.658099 0.198097
H18   H     H_    0.348231 0.911645 0.658222 0.209846
H19   H     H_    0.156321 0.437466 0.728636 0.088795
H20   H     H_    0.296574 0.565857 0.653065 0.151526
H21   H     H_    0.307687 0.446097 0.337874 0.114676
H22   H     H_    0.149567 0.536112 0.252261 0.131739
H23   H     H_    0.860607 0.383757 0.270529 0.133984
N1    N     N_R   0.499930 0.743810 0.499960 -0.253357
N2    N     N_R   0.499930 0.256190 0.499960 -0.239147
O1    O     O_R   0.370250 0.582280 0.500020 -0.465342
O2    O     O_2   0.188029 0.643314 0.677943 -0.410404
O3    O     O_2   0.219980 0.339063 0.330443 -0.431631
O4    O     O_2   0.091760 0.418413 0.206540 -0.371492
O5    O     O_2   0.923445 0.482095 0.199484 -0.351988
O6    O     O_2   0.706777 0.772298 0.417727 -0.422619
O7    O     O_2   0.627028 0.301190 0.339459 -0.512344
O8    O     O_2   0.679198 0.909822 0.247477 -0.346218
O9    O     O_2   0.693998 0.100612 0.263910 -0.373719
O10   O     O_2   0.328141 0.573690 0.165157 -0.537328
O11   O     O_2   0.330844 0.350068 0.020866 -0.467070
O12   O     O_R   0.370250 0.417720 0.500020 -0.460541
O13   O     O_2   0.534425 0.233288 0.059319 -0.364273
O14   O     O_2   0.427474 0.753264 0.035083 -0.335731
O15   O     O_2   0.634077 0.641965 0.164091 -0.493739
O16   O     O_2   0.701795 0.444264 0.140014 -0.450398
O17   O     O_2   0.598598 0.727028 0.959610 -0.434945
O18   O     O_2   0.756345 0.534790 0.914103 -0.427562
O19   O     O_2   0.793496 0.598783 0.301888 -0.377305
O20   O     O_2   0.701578 0.434684 0.671710 -0.481548
O21   O     O_R   0.499990 0.582310 0.379440 -0.547641
O22   O     O_R   0.499990 0.417690 0.379440 -0.475574
O23   O     O_R   0.629730 0.582260 0.499990 -0.518498
O24   O     O_R   0.629730 0.417740 0.499990 -0.488889
O25   O     O_R   0.499980 0.582240 0.620570 -0.456477
O26   O     O_R   0.499980 0.417760 0.620570 -0.421963
O27   O     O_2   0.058283 0.492142 0.799529 -0.329593

loop_
_geom_bond_atom_site_label_1
_geom_bond_atom_site_label_2
_ccdc_geom_bond_type
C23   C58   S    
C30   C51   S    
C59   O17   D    
C22   C29   A    
C18   N1    A    
C2    C65   A    
C49   O7    D    
C21   C49   S    
C19   N2    A    
C42   O27   D    
C7    C8    A    
C6    F5    S    
C12   C23   S    
C54   O13   D    
C29   C30   A    
C36   C37   S    
C53   H7    S    
C43   O2    D    
C16   O23   A    
C57   O15   D    
C10   C17   A    
C18   F1    S    
C23   C40   S    
C11   C13   A    
C5    C63   A    
C15   C17   A    
C42   H19   S    
C7    C42   S    
C61   C63   S    
C62   O20   D    
C44   H21   S    
C61   H15   S    
C1    O12   A    
C12   C59   S    
Cu2   O12   S    
C32   H18   S    
C45   C56   T    
C8    C9    A    
C31   H17   S    
C22   C25   A    
C58   O16   D    
Cu1   O25   S    
C4    O22   A    
C1    C15   S    
C55   H9    S    
C9    C10   A    
C5    C13   A    
Cu1   Cu2   S    
C20   N1    A    
C47   O5    D    
Cu1   O23   S    
C37   F3    S    
C4    C56   S    
C4    O21   A    
C2    C6    A    
C34   C41   S    
C52   H6    S    
Cu2   O24   S    
C54   H8    S    
C29   C50   S    
C40   C45   S    
C46   O4    D    
C35   C55   S    
C34   C39   T    
C48   H2    S    
C36   C40   S    
C35   C38   S    
C52   O10   D    
C38   C41   S    
C13   C47   S    
C60   H14   S    
C25   C26   A    
C48   O6    D    
C62   H16   S    
C16   O24   A    
C51   H5    S    
C12   C41   S    
C3    C9    A    
C36   C53   S    
C50   H4    S    
C50   O8    D    
C21   N2    A    
C31   C32   A    
C46   H22   S    
C60   O18   D    
C61   O19   D    
C49   H3    S    
C37   H12   S    
C33   C39   S    
C19   C28   A    
C20   C48   S    
C20   C22   A    
C33   O25   A    
C19   F2    S    
Cu1   N1    S    
C23   C57   S    
C38   F4    S    
C8    C14   A    
C62   C65   S    
C55   O14   D    
C27   C32   A    
C14   C15   A    
C28   C31   A    
C18   C27   A    
C24   C26   A    
C3    C5    A    
Cu2   O26   S    
C1    O1    A    
C6    C7    A    
C25   C27   A    
C26   C28   A    
C43   H20   S    
C64   C65   A    
Cu1   O1    S    
C2    C3    A    
C17   C44   S    
C58   H11   S    
C44   O3    D    
C53   O11   D    
C51   O9    D    
C35   C40   S    
C37   C41   S    
C24   C30   A    
C36   C54   S    
C10   C11   A    
Cu2   N2    S    
C63   C64   A    
C12   C60   S    
Cu1   O21   S    
C21   C24   A    
C35   C52   S    
C33   O26   A    
C47   H23   S    
C57   H10   S    
C11   C46   S    
C16   C64   S    
Cu2   O22   S    
C59   H13   S    
C14   C43   S    
C38   H1    S    
