data_mof_unit_5491.cif
_audit_creation_date              2012-12-11T15:08:59-0500
_audit_creation_method            fapswitch 2.2
_symmetry_space_group_name_H-M    P1
_symmetry_Int_Tables_number       1
_space_group_crystal_system       triclinic
_cell_length_a                    21.813604
_cell_length_b                    21.815362
_cell_length_c                    23.251416
_cell_angle_alpha                 90.075032
_cell_angle_beta                  90.073748
_cell_angle_gamma                 89.999497
_cell_volume                      11064.6714567

loop_
_atom_site_label
_atom_site_type_symbol
_atom_type_description
_atom_site_fract_x
_atom_site_fract_y
_atom_site_fract_z
_atom_type_partial_charge
C1    C     C_R   0.917248 0.156308 0.081581 -0.157384
C2    C     C_R   0.067818 0.858520 0.894880 -0.143214
C3    C     C_R   0.140080 0.066717 0.106147 -0.130784
C4    C     C_R   0.843722 0.917240 0.918326 -0.156914
C5    C     C_R   0.083941 0.844081 0.082468 -0.149820
C6    C     C_R   0.932728 0.140587 0.894370 -0.127756
C7    C     C_R   0.859032 0.932460 0.105320 -0.129411
C8    C     C_R   0.156280 0.082766 0.918468 -0.157868
C9    C     C_R   0.916032 0.844061 0.917482 -0.150687
C10   C     C_R   0.067511 0.141017 0.105512 -0.145687
C11   C     C_R   0.140462 0.932788 0.894257 -0.131723
C12   C     C_R   0.844075 0.084021 0.082411 -0.149973
C13   C     C_R   0.083986 0.155917 0.917571 -0.149940
C14   C     C_R   0.931698 0.858163 0.104699 -0.144316
C15   C     C_R   0.858401 0.067988 0.894986 -0.147756
C16   C     C_R   0.156313 0.917166 0.081537 -0.158147
C17   C     C_R   0.417165 0.656297 0.581569 -0.158063
C18   C     C_R   0.567963 0.358435 0.394959 -0.147670
C19   C     C_R   0.641044 0.567531 0.605491 -0.145759
C20   C     C_R   0.344061 0.416056 0.417462 -0.150665
C21   C     C_R   0.584041 0.344078 0.582397 -0.149997
C22   C     C_R   0.432753 0.640491 0.394286 -0.131772
C23   C     C_R   0.358137 0.431679 0.604680 -0.144384
C24   C     C_R   0.655918 0.583970 0.417556 -0.149935
C25   C     C_R   0.417237 0.343738 0.418293 -0.156828
C26   C     C_R   0.566739 0.640097 0.606130 -0.130781
C27   C     C_R   0.640566 0.432754 0.394348 -0.127745
C28   C     C_R   0.344081 0.583920 0.582490 -0.149804
C29   C     C_R   0.582766 0.656266 0.418440 -0.157781
C30   C     C_R   0.432440 0.359018 0.605304 -0.129408
C31   C     C_R   0.358481 0.567848 0.394911 -0.143295
C32   C     C_R   0.656323 0.417253 0.581552 -0.157477
C33   C     C_R   0.757005 0.730882 0.850217 0.086239
C34   C     C_R   0.245303 0.205675 0.197421 0.086676
C35   C     C_R   0.794427 0.246281 0.802696 0.087225
C36   C     C_R   0.242500 0.730757 0.150135 0.086172
C37   C     C_R   0.241880 0.269388 0.849335 0.086377
C38   C     C_R   0.753207 0.794070 0.196990 0.087132
C39   C     C_R   0.245835 0.793880 0.802912 0.086615
C40   C     C_R   0.730685 0.242327 0.150219 0.086479
C41   C     C_R   0.230952 0.256935 0.350213 0.086230
C42   C     C_R   0.705484 0.745409 0.697519 0.086716
C43   C     C_R   0.294000 0.745933 0.302853 0.086643
C44   C     C_R   0.742228 0.230604 0.650230 0.086487
C45   C     C_R   0.769335 0.741939 0.349335 0.086372
C46   C     C_R   0.294208 0.253124 0.697058 0.087159
C47   C     C_R   0.746149 0.294207 0.302799 0.087179
C48   C     C_R   0.230810 0.742566 0.650127 0.086166
C49   C     C_R   0.140120 0.199235 0.324349 -0.199811
C50   C     C_R   0.757010 0.838681 0.724991 -0.198336
C51   C     C_R   0.242770 0.839225 0.275112 -0.197527
C52   C     C_R   0.798692 0.139286 0.676770 -0.198651
C53   C     C_R   0.860559 0.798419 0.322647 -0.196485
C54   C     C_R   0.243559 0.159718 0.725303 -0.196064
C55   C     C_R   0.839560 0.243299 0.274890 -0.196780
C56   C     C_R   0.139838 0.799785 0.676305 -0.197581
C57   C     C_R   0.699500 0.639960 0.824260 -0.199827
C58   C     C_R   0.338489 0.257441 0.224777 -0.198336
C59   C     C_R   0.743797 0.339790 0.774656 -0.196786
C60   C     C_R   0.299558 0.639716 0.176398 -0.197587
C61   C     C_R   0.298207 0.360679 0.822573 -0.196487
C62   C     C_R   0.659864 0.743238 0.225146 -0.196067
C63   C     C_R   0.339065 0.742462 0.775270 -0.197532
C64   C     C_R   0.639472 0.299022 0.176653 -0.198636
C65   C     C_R   0.767779 0.813879 0.779223 0.152498
C66   C     C_R   0.163664 0.190388 0.269155 0.154965
C67   C     C_R   0.808154 0.163456 0.731698 0.154657
C68   C     C_R   0.231985 0.814189 0.220911 0.151372
C69   C     C_R   0.232314 0.185205 0.779215 0.150873
C70   C     C_R   0.836237 0.807826 0.267792 0.152870
C71   C     C_R   0.163670 0.808728 0.731437 0.153279
C72   C     C_R   0.814387 0.232295 0.220783 0.151872
C73   C     C_R   0.313776 0.268050 0.279074 0.152483
C74   C     C_R   0.690512 0.663591 0.769120 0.154967
C75   C     C_R   0.308605 0.663621 0.231487 0.153285
C76   C     C_R   0.732601 0.314511 0.720626 0.151902
C77   C     C_R   0.685284 0.732112 0.279105 0.150856
C78   C     C_R   0.307722 0.336291 0.767759 0.152876
C79   C     C_R   0.663537 0.308313 0.231644 0.154644
C80   C     C_R   0.314101 0.731793 0.721020 0.151362
C81   C     C_R   0.745600 0.755647 0.794690 -0.002210
C82   C     C_R   0.221738 0.213412 0.253888 -0.002570
C83   C     C_R   0.786045 0.222056 0.746492 -0.002236
C84   C     C_R   0.253930 0.755773 0.205623 -0.001845
C85   C     C_R   0.253727 0.243938 0.794122 -0.001572
C86   C     C_R   0.777612 0.785673 0.253105 -0.002073
C87   C     C_R   0.221947 0.785986 0.746521 -0.002487
C88   C     C_R   0.755832 0.253969 0.205618 -0.001941
C89   C     C_R   0.255630 0.245691 0.294620 -0.002207
C90   C     C_R   0.713356 0.721754 0.753935 -0.002558
C91   C     C_R   0.286004 0.721969 0.246503 -0.002486
C92   C     C_R   0.754062 0.255855 0.705552 -0.001962
C93   C     C_R   0.743951 0.753664 0.294074 -0.001551
C94   C     C_R   0.285708 0.277598 0.753134 -0.002084
C95   C     C_R   0.722031 0.285989 0.246533 -0.002230
C96   C     C_R   0.255754 0.753879 0.705665 -0.001837
C97   C     C_R   0.732850 0.673068 0.864469 -0.196012
C98   C     C_R   0.304453 0.226710 0.184027 -0.197719
C99   C     C_R   0.774255 0.305884 0.815610 -0.196758
C100  C     C_R   0.266411 0.672750 0.136063 -0.196292
C101  C     C_R   0.265208 0.327751 0.863016 -0.196225
C102  C     C_R   0.693601 0.773778 0.184183 -0.196727
C103  C     C_R   0.305143 0.773051 0.816130 -0.197488
C104  C     C_R   0.672518 0.265938 0.136280 -0.195939
C105  C     C_R   0.173227 0.232609 0.364541 -0.196004
C106  C     C_R   0.726319 0.804646 0.684214 -0.197749
C107  C     C_R   0.273321 0.805307 0.315999 -0.197494
C108  C     C_R   0.765636 0.172332 0.636379 -0.195930
C109  C     C_R   0.827632 0.765398 0.363074 -0.196237
C110  C     C_R   0.274067 0.193454 0.684319 -0.196726
C111  C     C_R   0.805650 0.273801 0.315815 -0.196744
C112  C     C_R   0.172873 0.766612 0.635991 -0.196298
C113  C     C_R   0.857702 0.143969 0.095527 0.104581
C114  C     C_R   0.117886 0.881767 0.866162 0.095835
C115  C     C_R   0.117342 0.117471 0.134470 0.095570
C116  C     C_R   0.856101 0.857676 0.904359 0.103998
C117  C     C_R   0.143911 0.857643 0.095535 0.104575
C118  C     C_R   0.881610 0.118116 0.866348 0.096531
C119  C     C_R   0.881316 0.881213 0.133158 0.096533
C120  C     C_R   0.143915 0.142297 0.904438 0.105325
C121  C     C_R   0.357642 0.643878 0.595576 0.104528
C122  C     C_R   0.618075 0.381663 0.366304 0.096458
C123  C     C_R   0.617513 0.617374 0.634437 0.095629
C124  C     C_R   0.357673 0.356137 0.404318 0.103942
C125  C     C_R   0.644002 0.357708 0.595495 0.104650
C126  C     C_R   0.381708 0.617934 0.366211 0.095888
C127  C     C_R   0.381174 0.381288 0.633127 0.096579
C128  C     C_R   0.642298 0.643885 0.404404 0.105277
C129  C     C_R   0.802303 0.846230 0.817569 -0.330717
C130  C     C_R   0.129910 0.158757 0.228826 -0.336171
C131  C     C_R   0.839561 0.129836 0.772202 -0.332739
C132  C     C_R   0.197684 0.846502 0.182414 -0.330203
C133  C     C_R   0.198070 0.153011 0.817778 -0.328438
C134  C     C_R   0.869745 0.839212 0.227257 -0.329996
C135  C     C_R   0.130014 0.840215 0.771866 -0.332928
C136  C     C_R   0.846697 0.198014 0.182273 -0.328784
C137  C     C_R   0.346133 0.302570 0.317420 -0.330682
C138  C     C_R   0.658918 0.629837 0.728765 -0.336170
C139  C     C_R   0.340060 0.629970 0.271940 -0.332922
C140  C     C_R   0.698315 0.346813 0.682117 -0.328818
C141  C     C_R   0.653085 0.697867 0.317665 -0.328430
C142  C     C_R   0.339079 0.369797 0.727203 -0.329976
C143  C     C_R   0.629915 0.339760 0.272120 -0.332752
C144  C     C_R   0.346421 0.697485 0.682531 -0.330192
C145  C     C_R   0.816078 0.821300 0.870817 0.064230
C146  C     C_R   0.152604 0.152355 0.173472 0.057562
C147  C     C_R   0.846715 0.153241 0.827283 0.058019
C148  C     C_R   0.183876 0.821349 0.129191 0.063725
C149  C     C_R   0.183870 0.178533 0.870737 0.063524
C150  C     C_R   0.846183 0.846398 0.172248 0.056963
C151  C     C_R   0.153048 0.846852 0.827137 0.056577
C152  C     C_R   0.821428 0.183990 0.129146 0.063989
C153  C     C_R   0.321290 0.316161 0.370745 0.064175
C154  C     C_R   0.652390 0.652623 0.673457 0.057580
C155  C     C_R   0.346796 0.653083 0.327173 0.056598
C156  C     C_R   0.684074 0.321442 0.629079 0.064031
C157  C     C_R   0.678541 0.683806 0.370681 0.063501
C158  C     C_R   0.346362 0.346166 0.672230 0.056962
C159  C     C_R   0.653211 0.346760 0.327257 0.058007
C160  C     C_R   0.321339 0.683812 0.629250 0.063688
C161  C     C_R   0.793172 0.764402 0.889236 0.230929
C162  C     C_R   0.208696 0.177900 0.155662 0.231592
C163  C     C_R   0.822014 0.209898 0.844668 0.231202
C164  C     C_R   0.206556 0.764232 0.110968 0.231599
C165  C     C_R   0.206126 0.235963 0.888623 0.231732
C166  C     C_R   0.789416 0.821787 0.154995 0.231679
C167  C     C_R   0.209409 0.821645 0.844758 0.231752
C168  C     C_R   0.764197 0.206467 0.111011 0.231068
C169  C     C_R   0.264471 0.293107 0.389227 0.230881
C170  C     C_R   0.677782 0.708805 0.655720 0.231553
C171  C     C_R   0.321713 0.709516 0.344733 0.231738
C172  C     C_R   0.706375 0.264117 0.611017 0.231128
C173  C     C_R   0.735910 0.706179 0.388618 0.231685
C174  C     C_R   0.321872 0.289330 0.655033 0.231659
C175  C     C_R   0.709761 0.321873 0.344726 0.231246
C176  C     C_R   0.264286 0.706610 0.610971 0.231552
H1    H     H_    0.939987 0.200365 0.082377 0.105471
H2    H     H_    0.042981 0.816651 0.886126 0.108634
H3    H     H_    0.181392 0.041289 0.115611 0.109306
H4    H     H_    0.799664 0.939980 0.917504 0.105448
H5    H     H_    0.061834 0.799762 0.084429 0.109369
H6    H     H_    0.958149 0.181936 0.885104 0.111354
H7    H     H_    0.817617 0.957847 0.114493 0.111632
H8    H     H_    0.200348 0.060041 0.917730 0.104833
H9    H     H_    0.938065 0.799698 0.915571 0.109449
H10   H     H_    0.042714 0.182852 0.114414 0.107266
H11   H     H_    0.181838 0.958131 0.884932 0.109613
H12   H     H_    0.799707 0.061999 0.084288 0.108956
H13   H     H_    0.061959 0.200280 0.915663 0.109079
H14   H     H_    0.956470 0.816247 0.113320 0.108706
H15   H     H_    0.816476 0.043251 0.886239 0.107330
H16   H     H_    0.200419 0.939817 0.082262 0.105028
H17   H     H_    0.439811 0.700404 0.582308 0.105027
H18   H     H_    0.543224 0.316514 0.386204 0.107363
H19   H     H_    0.682882 0.542732 0.614387 0.107234
H20   H     H_    0.299699 0.438095 0.415547 0.109405
H21   H     H_    0.562023 0.299710 0.584274 0.109006
H22   H     H_    0.458094 0.681868 0.384967 0.109658
H23   H     H_    0.316215 0.456448 0.613296 0.108690
H24   H     H_    0.700283 0.561941 0.415647 0.109052
H25   H     H_    0.439969 0.299679 0.417455 0.105457
H26   H     H_    0.541312 0.681408 0.615593 0.109345
H27   H     H_    0.681919 0.458171 0.385080 0.111316
H28   H     H_    0.299762 0.561810 0.584453 0.109333
H29   H     H_    0.560044 0.700331 0.417687 0.104835
H30   H     H_    0.457831 0.317608 0.614475 0.111656
H31   H     H_    0.316605 0.543016 0.386167 0.108617
H32   H     H_    0.700380 0.439998 0.582328 0.105457
H33   H     H_    0.820766 0.890603 0.805177 0.146837
H34   H     H_    0.085779 0.139162 0.240155 0.145247
H35   H     H_    0.858499 0.085299 0.761190 0.144885
H36   H     H_    0.179390 0.891018 0.194678 0.148342
H37   H     H_    0.180127 0.108272 0.805743 0.148561
H38   H     H_    0.914325 0.858126 0.238197 0.147353
H39   H     H_    0.085724 0.859596 0.760653 0.147238
H40   H     H_    0.891303 0.179886 0.194473 0.147092
H41   H     H_    0.390447 0.321152 0.304986 0.146868
H42   H     H_    0.639446 0.585639 0.740038 0.145241
H43   H     H_    0.359344 0.585627 0.260774 0.147225
H44   H     H_    0.680328 0.391490 0.694267 0.147047
H45   H     H_    0.608391 0.679831 0.305597 0.148589
H46   H     H_    0.357898 0.414428 0.738100 0.147347
H47   H     H_    0.585458 0.358846 0.261044 0.144904
H48   H     H_    0.390889 0.679097 0.694833 0.148366
H49   H     H_    0.739863 0.652556 0.906274 0.148839
H50   H     H_    0.325062 0.219922 0.142227 0.148952
H51   H     H_    0.781535 0.326959 0.857183 0.149055
H52   H     H_    0.259369 0.652033 0.094299 0.148774
H53   H     H_    0.257803 0.348833 0.904546 0.148699
H54   H     H_    0.672390 0.781021 0.142685 0.149489
H55   H     H_    0.325977 0.779906 0.857873 0.149480
H56   H     H_    0.651685 0.258702 0.094597 0.148608
H57   H     H_    0.152785 0.239498 0.406396 0.148834
H58   H     H_    0.719408 0.825321 0.642462 0.148956
H59   H     H_    0.280266 0.826196 0.357704 0.149481
H60   H     H_    0.758250 0.151416 0.594755 0.148603
H61   H     H_    0.848660 0.758087 0.404642 0.148704
H62   H     H_    0.281403 0.172192 0.642856 0.149480
H63   H     H_    0.826646 0.280932 0.357445 0.149062
H64   H     H_    0.152215 0.759662 0.594187 0.148773
H65   H     H_    0.095563 0.181209 0.336129 0.126944
H66   H     H_    0.773618 0.883933 0.713653 0.126203
H67   H     H_    0.226313 0.884599 0.286332 0.128750
H68   H     H_    0.816013 0.094314 0.665351 0.126567
H69   H     H_    0.905551 0.815777 0.333990 0.128716
H70   H     H_    0.227517 0.114105 0.714379 0.128991
H71   H     H_    0.885040 0.227051 0.286009 0.126604
H72   H     H_    0.095125 0.817605 0.664658 0.128562
H73   H     H_    0.681612 0.595333 0.835979 0.126943
H74   H     H_    0.383674 0.274193 0.213374 0.126211
H75   H     H_    0.727718 0.385349 0.785701 0.126591
H76   H     H_    0.317271 0.594948 0.164802 0.128561
H77   H     H_    0.315460 0.405723 0.833869 0.128716
H78   H     H_    0.614301 0.727085 0.214173 0.128997
H79   H     H_    0.384386 0.725895 0.786544 0.128750
H80   H     H_    0.594581 0.316506 0.165162 0.126580
N1    N     N_R   0.940200 0.105310 0.059970 -0.039317
N2    N     N_R   0.059800 0.894690 0.940030 -0.043858
N3    N     N_R   0.105310 0.059800 0.059970 -0.044156
N4    N     N_R   0.894690 0.940200 0.940030 -0.039357
N5    N     N_R   0.059800 0.894690 0.059970 -0.040388
N6    N     N_R   0.940200 0.105310 0.940030 -0.044825
N7    N     N_R   0.894690 0.940200 0.059970 -0.044720
N8    N     N_R   0.105310 0.059800 0.940030 -0.039503
N9    N     N_R   0.940200 0.894690 0.940030 -0.040443
N10   N     N_R   0.059800 0.105310 0.059970 -0.043416
N11   N     N_R   0.105310 0.940200 0.940030 -0.044074
N12   N     N_R   0.894690 0.059800 0.059970 -0.040773
N13   N     N_R   0.059800 0.105310 0.940030 -0.040825
N14   N     N_R   0.940200 0.894690 0.059970 -0.043656
N15   N     N_R   0.894690 0.059800 0.940030 -0.043090
N16   N     N_R   0.105310 0.940200 0.059970 -0.039667
N17   N     N_R   0.440200 0.605310 0.559970 -0.039682
N18   N     N_R   0.559800 0.394690 0.440030 -0.043120
N19   N     N_R   0.605310 0.559800 0.559970 -0.043390
N20   N     N_R   0.394690 0.440200 0.440030 -0.040452
N21   N     N_R   0.559800 0.394690 0.559970 -0.040766
N22   N     N_R   0.440200 0.605310 0.440030 -0.044060
N23   N     N_R   0.394690 0.440200 0.559970 -0.043638
N24   N     N_R   0.605310 0.559800 0.440030 -0.040832
N25   N     N_R   0.440200 0.394690 0.440030 -0.039374
N26   N     N_R   0.559800 0.605310 0.559970 -0.044144
N27   N     N_R   0.605310 0.440200 0.440030 -0.044842
N28   N     N_R   0.394690 0.559800 0.559970 -0.040395
N29   N     N_R   0.559800 0.605310 0.440030 -0.039517
N30   N     N_R   0.440200 0.394690 0.559970 -0.044711
N31   N     N_R   0.394690 0.559800 0.440030 -0.043833
N32   N     N_R   0.605310 0.440200 0.559970 -0.039300
Ni1   Ni    Ni4+2 0.000000 0.104370 0.000000 0.208829
Ni2   Ni    Ni4+2 0.000000 0.895630 0.000000 0.208417
Ni3   Ni    Ni4+2 0.104370 0.000000 0.000000 0.209377
Ni4   Ni    Ni4+2 0.895630 0.000000 0.000000 0.208861
Ni5   Ni    Ni4+2 0.500000 0.604370 0.500000 0.209382
Ni6   Ni    Ni4+2 0.500000 0.395630 0.500000 0.208848
Ni7   Ni    Ni4+2 0.604370 0.500000 0.500000 0.208832
Ni8   Ni    Ni4+2 0.395630 0.500000 0.500000 0.208431
C177  C     C_3   0.806378 0.740216 0.949126 -1.046483
H81   H     H_    0.833574 0.772214 0.975927 0.261386
H82   H     H_    0.762590 0.732194 0.972201 0.254542
H83   H     H_    0.832357 0.696575 0.946095 0.252354
C178  C     C_3   0.228319 0.178129 0.092780 -1.035501
H84   H     H_    0.191484 0.164852 0.062483 0.266175
H85   H     H_    0.241733 0.225227 0.079825 0.253208
H86   H     H_    0.267651 0.146522 0.086582 0.249093
C179  C     C_3   0.822453 0.230358 0.907352 -1.035965
H87   H     H_    0.835446 0.193729 0.937891 0.265882
H88   H     H_    0.854620 0.269345 0.913003 0.249381
H89   H     H_    0.775618 0.244568 0.920446 0.253445
C180  C     C_3   0.193345 0.739764 0.051120 -1.047450
H90   H     H_    0.166341 0.771738 0.024201 0.261465
H91   H     H_    0.237138 0.731418 0.028127 0.254346
H92   H     H_    0.167162 0.696257 0.054219 0.252479
C181  C     C_3   0.192737 0.260781 0.948279 -1.048008
H93   H     H_    0.166177 0.228711 0.975421 0.261450
H94   H     H_    0.236468 0.269801 0.971260 0.254339
H95   H     H_    0.166063 0.303964 0.944838 0.252360
C182  C     C_3   0.768659 0.822430 0.092408 -1.036517
H96   H     H_    0.805097 0.835651 0.061788 0.265910
H97   H     H_    0.754501 0.775617 0.079108 0.253631
H98   H     H_    0.729561 0.854514 0.087118 0.249369
C183  C     C_3   0.229528 0.821793 0.907539 -1.035942
H99   H     H_    0.192916 0.835209 0.937932 0.266118
H100  H     H_    0.243119 0.774783 0.920646 0.253375
H101  H     H_    0.268864 0.853490 0.913401 0.249201
C184  C     C_3   0.739667 0.193157 0.051203 -1.047063
H102  H     H_    0.771749 0.166381 0.024193 0.261349
H103  H     H_    0.696315 0.166726 0.054373 0.252090
H104  H     H_    0.731020 0.236912 0.028250 0.254597
C185  C     C_3   0.240368 0.306165 0.449177 -1.046309
H105  H     H_    0.272340 0.333428 0.475947 0.261366
H106  H     H_    0.196640 0.332018 0.446255 0.252343
H107  H     H_    0.232522 0.262326 0.472218 0.254536
C186  C     C_3   0.677943 0.728520 0.592865 -1.035578
H108  H     H_    0.664812 0.691675 0.562525 0.266172
H109  H     H_    0.646185 0.767738 0.586716 0.249073
H110  H     H_    0.724992 0.742130 0.579927 0.253224
C187  C     C_3   0.321925 0.729720 0.407489 -1.036030
H111  H     H_    0.335246 0.693109 0.437918 0.266120
H112  H     H_    0.353730 0.768975 0.413300 0.249188
H113  H     H_    0.274951 0.743451 0.420590 0.253389
C188  C     C_3   0.692890 0.239487 0.551280 -1.047234
H114  H     H_    0.666193 0.271599 0.524234 0.261374
H115  H     H_    0.736583 0.230632 0.528286 0.254593
H116  H     H_    0.666310 0.196239 0.554577 0.252091
C189  C     C_3   0.760661 0.692906 0.448320 -1.047887
H117  H     H_    0.728608 0.666298 0.475438 0.261427
H118  H     H_    0.803912 0.666330 0.444963 0.252359
H119  H     H_    0.769546 0.736676 0.471275 0.254348
C190  C     C_3   0.322576 0.268498 0.592469 -1.036551
H120  H     H_    0.335697 0.304941 0.561815 0.265903
H121  H     H_    0.354772 0.229485 0.587221 0.249344
H122  H     H_    0.275798 0.254197 0.579179 0.253636
C191  C     C_3   0.730106 0.322218 0.407444 -1.035910
H123  H     H_    0.693485 0.335371 0.437933 0.265891
H124  H     H_    0.744091 0.275325 0.420550 0.253435
H125  H     H_    0.769224 0.354211 0.413162 0.249414
C192  C     C_3   0.239890 0.693508 0.551076 -1.047306
H126  H     H_    0.271847 0.666449 0.524185 0.261447
H127  H     H_    0.196312 0.667426 0.554090 0.252471
H128  H     H_    0.231685 0.737338 0.528106 0.254348

loop_
_geom_bond_atom_site_label_1
_geom_bond_atom_site_label_2
_ccdc_geom_bond_type
N8    N13   A    
C62   C102  A    
C130  C146  A    
C185  H106  S    
C62   C77   A    
C39   C87   A    
C187  H111  S    
C178  H84   S    
C56   H72   S    
C192  H126  S    
C41   C105  A    
C116  C145  S    
C45   C109  A    
C186  H110  S    
N24   Ni7   S    
C154  C170  A    
N19   N26   A    
N24   N29   A    
N5    N16   A    
C42   C170  A    
N6    N15   A    
C140  H44   S    
N7    N14   A    
C165  C181  S    
C61   H77   S    
C46   C174  A    
C84   C91   A    
C30   N30   A    
C144  C160  A    
C129  C145  A    
C44   C92   A    
C138  C154  A    
C180  H91   S    
C88   C95   A    
C4    N4    A    
C5    N5    A    
C43   C91   A    
C1    C113  A    
C142  C158  A    
C191  H124  S    
C22   H22   S    
N21   N32   A    
N22   N31   A    
N23   N30   A    
C7    C119  A    
C24   N24   A    
C186  H108  S    
C41   C169  A    
C35   C163  A    
C132  C148  A    
C163  C179  S    
C182  H98   S    
C33   C161  A    
C44   C172  A    
C31   H31   S    
C21   N21   A    
C66   C82   A    
C74   C138  A    
C49   H65   S    
C57   C97   A    
N5    Ni2   S    
C137  C153  A    
C189  H119  S    
C39   C103  A    
C167  C183  S    
C18   C122  A    
C81   C90   A    
C141  C157  A    
C192  H128  S    
C46   C110  A    
C64   C79   A    
C26   C123  A    
C57   H73   S    
C187  H113  S    
C178  H86   S    
C53   C109  A    
C28   N28   A    
C15   H15   S    
C30   C127  A    
C43   C171  A    
C48   C96   A    
C55   C111  A    
C9    C116  A    
C21   H21   S    
C60   C100  A    
C17   N17   A    
N26   Ni5   S    
C15   C118  A    
C7    H7    S    
C74   C90   A    
C2    C114  A    
C40   C88   A    
C145  C161  A    
C78   C94   A    
C151  C167  A    
C33   C97   A    
C77   C141  A    
C172  C188  S    
C177  H81   S    
C24   H24   S    
C51   C107  A    
C14   C119  A    
C137  H41   S    
C70   C134  A    
C141  H45   S    
C123  C154  S    
C57   C74   A    
C41   C89   A    
N4    Ni4   S    
C67   C83   A    
C190  H120  S    
C18   H18   S    
C58   C98   A    
C45   C93   A    
N1    Ni1   S    
C115  C146  S    
C19   C123  A    
C120  C149  S    
C82   C89   A    
C73   C137  A    
C6    H6    S    
C117  C148  S    
C27   H27   S    
C176  C192  S    
C118  C147  S    
C25   H25   S    
N20   Ni8   S    
C3    N3    A    
C181  H94   S    
C150  C166  A    
C29   H29   S    
C54   C110  A    
C100  H52   S    
C184  H103  S    
C79   C143  A    
N27   Ni7   S    
C179  H88   S    
C7    N7    A    
C32   H32   S    
C75   C91   A    
C136  H40   S    
C124  C153  S    
C177  H82   S    
C158  C174  A    
C128  C157  S    
C63   C80   A    
C188  H115  S    
C103  H55   S    
C49   C66   A    
C148  C164  A    
C149  C165  A    
C20   H20   S    
C23   N23   A    
C37   C165  A    
C156  C172  A    
C42   C90   A    
C68   C132  A    
C61   C101  A    
C12   N12   A    
N13   Ni1   S    
C86   C93   A    
C13   N13   A    
C173  C189  S    
C64   H80   S    
C46   C94   A    
C139  C155  A    
C183  H101  S    
C6    N6    A    
N17   Ni5   S    
C52   C67   A    
N19   Ni7   S    
C48   C112  A    
C183  H99   S    
C190  H122  S    
C59   H75   S    
N12   Ni4   S    
C13   C120  A    
C69   C85   A    
C50   C106  A    
C64   C104  A    
C29   N29   A    
C106  H58   S    
N17   N28   A    
C31   N31   A    
N18   N27   A    
C34   C162  A    
C22   N22   A    
N6    Ni1   S    
N3    N10   A    
C75   C139  A    
C131  H35   S    
C10   H10   S    
C22   C126  A    
C171  C187  S    
C50   C65   A    
C26   N26   A    
C58   H74   S    
C8    N8    A    
C14   H14   S    
C139  H43   S    
C45   C173  A    
C24   C128  A    
C102  H54   S    
C2    H2    S    
C59   C76   A    
C47   C175  A    
C18   N18   A    
C97   H49   S    
C108  H60   S    
C175  C191  S    
C191  H123  S    
C146  C162  A    
C78   C142  A    
N16   Ni3   S    
C188  H116  S    
N28   Ni8   S    
C169  C185  S    
C170  C186  S    
N7    Ni4   S    
C182  H97   S    
C187  H112  S    
N21   Ni6   S    
C142  H46   S    
C121  C160  S    
C80   C144  A    
C122  C159  S    
C27   N27   A    
C189  H118  S    
C10   N10   A    
C125  C156  S    
C126  C155  S    
N2    Ni2   S    
C119  C150  S    
C186  H109  S    
C192  H127  S    
C113  C152  S    
C114  C151  S    
C4    H4    S    
C53   C70   A    
C5    H5    S    
C152  C168  A    
C27   C122  A    
C1    N1    A    
C178  H85   S    
C51   H67   S    
C68   C84   A    
C63   C103  A    
C35   C83   A    
C49   C105  A    
C32   N32   A    
C180  H90   S    
N8    Ni3   S    
C47   C111  A    
C79   C95   A    
C129  H33   S    
C65   C81   A    
C56   C71   A    
C110  H62   S    
C36   C100  A    
C43   C107  A    
C127  C158  S    
C147  C163  A    
C71   C87   A    
C17   C121  A    
C38   C86   A    
N9    Ni2   S    
C40   C168  A    
C76   C140  A    
C21   C125  A    
N15   Ni4   S    
C191  H125  S    
C23   C127  A    
C38   C166  A    
C4    C116  A    
N14   Ni2   S    
C65   C129  A    
C14   N14   A    
C143  C159  A    
C60   C75   A    
C134  H38   S    
N11   Ni3   S    
N18   Ni6   S    
C73   C89   A    
C3    C115  A    
C16   C117  A    
C143  H47   S    
C185  H107  S    
C181  H93   S    
C54   C69   A    
C9    N9    A    
C135  C151  A    
C77   C93   A    
C34   C98   A    
C54   H70   S    
C184  H102  S    
C72   C136  A    
C179  H87   S    
C153  C169  A    
C36   C164  A    
C11   N11   A    
C101  H53   S    
N4    N9    A    
C136  C152  A    
C157  C173  A    
C12   H12   S    
C37   C101  A    
C19   H19   S    
C59   C99   A    
C185  H105  S    
C17   H17   S    
C132  H36   S    
C161  C177  S    
C20   N20   A    
C188  H114  S    
C83   C92   A    
N30   Ni6   S    
C174  C190  S    
C11   H11   S    
C37   C85   A    
C26   H26   S    
C9    H9    S    
C52   H68   S    
C71   C135  A    
C104  H56   S    
N20   N25   A    
N23   Ni8   S    
C30   H30   S    
C23   H23   S    
C13   H13   S    
N31   Ni8   S    
N32   Ni7   S    
C11   C114  A    
C3    H3    S    
C16   H16   S    
C1    H1    S    
C19   N19   A    
C183  H100  S    
C80   C96   A    
C55   C72   A    
C166  C182  S    
C190  H121  S    
C55   H71   S    
C66   C130  A    
C160  C176  A    
N1    N12   A    
C35   C99   A    
N2    N11   A    
C72   C88   A    
C53   H69   S    
C44   C108  A    
C135  H39   S    
C20   C124  A    
C16   N16   A    
C28   H28   S    
C133  C149  A    
C28   C121  A    
C181  H95   S    
C164  C180  S    
C112  H64   S    
N22   Ni5   S    
C111  H63   S    
C5    C117  A    
C32   C125  A    
C184  H104  S    
N25   Ni6   S    
C40   C104  A    
C42   C106  A    
C85   C94   A    
N3    Ni3   S    
C61   C78   A    
C179  H89   S    
C87   C96   A    
C131  C147  A    
C15   N15   A    
C138  H42   S    
C76   C92   A    
C2    N2    A    
C140  C156  A    
C177  H83   S    
C130  H34   S    
C168  C184  S    
C70   C86   A    
C8    C120  A    
C12   C113  A    
C180  H92   S    
C62   H78   S    
C107  H59   S    
C69   C133  A    
C134  C150  A    
C105  H57   S    
C67   C131  A    
C50   H66   S    
C109  H61   S    
C34   C82   A    
C133  H37   S    
C38   C102  A    
C162  C178  S    
C63   H79   S    
C8    H8    S    
C33   C81   A    
C36   C84   A    
C6    C118  A    
N10   Ni1   S    
C51   C68   A    
C39   C167  A    
C182  H96   S    
C25   C124  A    
C99   H51   S    
C144  H48   S    
C155  C171  A    
C52   C108  A    
C29   C128  A    
N29   Ni5   S    
C60   H76   S    
C47   C95   A    
C159  C175  A    
C31   C126  A    
C48   C176  A    
C189  H117  S    
C25   N25   A    
C56   C112  A    
C10   C115  A    
C58   C73   A    
C98   H50   S    
