data_mof_unit_8832.cif
_audit_creation_date              2012-12-11T15:47:06-0500
_audit_creation_method            fapswitch 2.2
_symmetry_space_group_name_H-M    P1
_symmetry_Int_Tables_number       1
_space_group_crystal_system       triclinic
_cell_length_a                    20.154638
_cell_length_b                    7.256933
_cell_length_c                    13.562205
_cell_angle_alpha                 90.128727
_cell_angle_beta                  102.994752
_cell_angle_gamma                 89.878891
_cell_volume                      1932.8130403

loop_
_atom_site_label
_atom_site_type_symbol
_atom_type_description
_atom_site_fract_x
_atom_site_fract_y
_atom_site_fract_z
_atom_type_partial_charge
O1    O     O_R   0.449560 0.506810 0.599700 -0.534466
O2    O     O_R   0.550440 0.006810 0.400300 -0.534561
O3    O     O_R   0.587960 0.180060 0.595760 -0.546009
O4    O     O_R   0.412040 0.680060 0.404240 -0.545917
C1    C     C_R   0.614936 0.344161 0.617477 0.683806
C2    C     C_R   0.385068 0.844224 0.382502 0.683955
O5    O     O_R   0.452380 0.177430 0.611700 -0.538454
O6    O     O_R   0.547620 0.677430 0.388300 -0.538426
O7    O     O_R   0.413900 0.001890 0.416350 -0.540937
O8    O     O_R   0.586100 0.501890 0.583650 -0.540860
C3    C     C_R   0.436361 0.345963 0.637580 0.685629
C4    C     C_R   0.563647 0.845402 0.362402 0.685655
O9    O     O_3   0.487530 0.337490 0.435890 -0.379192
O10   O     O_3   0.512470 0.837490 0.564110 -0.379296
V1    V     V_3+5 0.502310 0.064660 0.511890 1.410688
V2    V     V_3+5 0.497690 0.564660 0.488110 1.411193
C5    C     C_R   0.610155 0.853781 0.109796 -0.159684
C6    C     C_R   0.389647 0.388752 0.889176 -0.159571
H1    H     H_    0.516388 0.848055 0.159574 0.105106
H2    H     H_    0.483429 0.384007 0.839386 0.105305
H3    H     H_    0.693606 0.858169 0.984282 0.122302
H4    H     H_    0.306083 0.409945 0.014174 0.122581
H5    H     H_    0.584210 0.853232 0.030585 0.114705
H6    H     H_    0.415500 0.405106 0.967895 0.114641
C7    C     C_R   0.603672 0.852220 0.285215 -0.024855
C8    C     C_R   0.396306 0.355400 0.714686 -0.024970
C9    C     C_R   0.932675 0.861460 0.319550 -0.048743
C10   C     C_R   0.067443 0.337511 0.681151 -0.048980
C11   C     C_R   0.896358 0.858463 0.395517 -0.129519
C12   C     C_R   0.103820 0.325066 0.605465 -0.129919
C13   C     C_R   0.825474 0.856471 0.371546 -0.157160
C14   C     C_R   0.174656 0.332237 0.629164 -0.157289
C15   C     C_R   0.788215 0.857272 0.269691 0.072788
C16   C     C_R   0.211803 0.352474 0.730438 0.072867
C17   C     C_R   0.825334 0.859244 0.191766 0.060976
C18   C     C_R   0.174617 0.366020 0.808020 0.061069
C19   C     C_R   0.715415 0.856317 0.242593 0.075475
C20   C     C_R   0.284557 0.359526 0.757299 0.075464
C21   C     C_R   0.681580 0.856184 0.138523 0.140935
C22   C     C_R   0.318274 0.380624 0.860748 0.140854
C23   C     C_R   0.719081 0.858053 0.063723 -0.204801
C24   C     C_R   0.280703 0.393817 0.935207 -0.204957
C25   C     C_R   0.789678 0.859792 0.089658 -0.184533
C26   C     C_R   0.210154 0.386552 0.909531 -0.184661
C27   C     C_R   0.674721 0.855149 0.315046 -0.207453
C28   C     C_R   0.325316 0.346679 0.685184 -0.207469
C29   C     C_R   0.571443 0.851137 0.182821 -0.174945
C30   C     C_R   0.428422 0.376589 0.816437 -0.174972
C31   C     C_R   0.897572 0.861551 0.217352 -0.118633
C32   C     C_R   0.102434 0.358181 0.782735 -0.118513
H7    H     H_    0.696293 0.855263 0.395282 0.095996
H8    H     H_    0.303833 0.330727 0.605410 0.095977
H9    H     H_    0.801599 0.854372 0.434982 0.121197
H10   H     H_    0.198586 0.321359 0.565994 0.121407
H11   H     H_    0.923100 0.858140 0.474396 0.137423
H12   H     H_    0.077167 0.309173 0.527052 0.138012
H13   H     H_    0.816050 0.861411 0.028382 0.114027
H14   H     H_    0.183720 0.397402 0.970524 0.114197
C33   C     C_R   0.216971 0.023008 0.224498 -0.134856
C34   C     C_R   0.782438 0.523206 0.776934 -0.139858
H15   H     H_    0.192781 0.155813 0.206273 0.119468
H16   H     H_    0.806141 0.656145 0.796346 0.118824
C35   C     C_R   0.282184 0.018619 0.287849 -0.157919
C36   C     C_R   0.717242 0.518728 0.713532 -0.158049
H17   H     H_    0.305907 0.147632 0.316504 0.117924
H18   H     H_    0.693051 0.647847 0.686016 0.118109
C37   C     C_R   0.316062 0.850177 0.313927 -0.039739
C38   C     C_R   0.683949 0.350097 0.686038 -0.039693
C39   C     C_R   0.282862 0.686213 0.274689 -0.155154
C40   C     C_R   0.717723 0.186036 0.723897 -0.154739
H19   H     H_    0.307149 0.553517 0.292910 0.118168
H20   H     H_    0.693915 0.053206 0.704517 0.117626
C41   C     C_R   0.217656 0.690567 0.211317 -0.145263
C42   C     C_R   0.782918 0.190476 0.787295 -0.140023
H21   H     H_    0.194041 0.561466 0.182600 0.116760
H22   H     H_    0.807006 0.061260 0.814856 0.117111
C43   C     C_R   0.183684 0.859010 0.185382 -0.020494
C44   C     C_R   0.816304 0.359111 0.814654 -0.020364
O11   O     O_R   0.913920 0.203370 0.916260 -0.540261
O12   O     O_R   0.086080 0.703370 0.083740 -0.541184
O13   O     O_R   0.047620 0.535540 0.888290 -0.538206
O14   O     O_R   0.952380 0.035540 0.111710 -0.537855
C45   C     C_R   0.063535 0.367968 0.862128 0.692265
C46   C     C_R   0.936447 0.868559 0.137879 0.692421
O15   O     O_R   0.912040 0.532780 0.904220 -0.546578
O16   O     O_R   0.087960 0.032780 0.095780 -0.545691
O17   O     O_R   0.949550 0.708160 0.099720 -0.536111
O18   O     O_R   0.050450 0.208160 0.900280 -0.535667
C47   C     C_R   0.885451 0.364947 0.882973 0.689352
C48   C     C_R   0.114545 0.864880 0.117047 0.689314
O19   O     O_3   0.012480 0.375300 0.064060 -0.379250
O20   O     O_3   0.987520 0.875300 0.935940 -0.379155
V3    V     V_3+5 0.997690 0.648180 0.988110 1.430827
V4    V     V_3+5 0.002310 0.148180 0.011890 1.434375
C49   C     C_1   0.006236 0.864700 0.348145 0.277352
N1    N     N_1   0.065121 0.867346 0.370961 -0.363214
C50   C     C_1   0.993944 0.328388 0.652930 0.277715
N2    N     N_1   0.935109 0.321069 0.630413 -0.362776

loop_
_geom_bond_atom_site_label_1
_geom_bond_atom_site_label_2
_ccdc_geom_bond_type
C10   C50   S    
C20   C22   A    
C35   H17   S    
O14   V4    S    
C9    C11   A    
C41   H21   S    
O15   V3    S    
C49   N1    T    
O1    C3    A    
C46   O17   A    
O2    C4    A    
C33   C43   A    
C2    O7    A    
C50   N2    T    
C18   C32   A    
C21   C23   A    
O5    C3    A    
C34   C44   A    
C5    H5    S    
C42   H22   S    
C6    H6    S    
C36   C38   A    
C31   C46   S    
H1    C29   S    
C27   H7    S    
C28   H8    S    
C34   H16   S    
C5    C21   A    
C39   H19   S    
C6    C22   A    
O16   V4    S    
C10   C32   A    
C26   H14   S    
C40   C42   A    
C13   C15   A    
C39   C41   A    
C17   C25   A    
C7    C29   A    
C8    C30   A    
O5    V1    S    
C45   O18   A    
O6    V2    S    
C23   C25   A    
C24   C26   A    
C1    C38   S    
C14   H10   S    
O13   C45   A    
C32   C45   S    
O18   V4    S    
C44   C47   S    
C19   C21   A    
C35   C37   A    
C43   C48   S    
C33   H15   S    
C20   C28   A    
O11   V4    S    
O4    C2    A    
O16   C48   A    
O15   C47   A    
C11   H11   S    
C3    C8    S    
C12   H12   S    
C15   C19   A    
C37   C39   A    
C14   C16   A    
O4    V2    S    
C17   C31   A    
O13   V3    S    
O6    C4    A    
O1    V2    S    
C13   H9    S    
O2    V1    S    
H2    C30   S    
H3    C23   S    
C2    C37   S    
O14   C46   A    
C18   C26   A    
C19   C27   A    
C7    C27   A    
O3    V1    S    
C16   C20   A    
C5    C29   A    
O3    C1    A    
C6    C30   A    
C33   C35   A    
C4    C7    S    
C34   C36   A    
C10   C12   A    
O7    V1    S    
C1    O8    A    
C11   C13   A    
O8    V2    S    
O19   V4    S    
C12   C14   A    
H4    C24   S    
O17   V3    S    
C22   C24   A    
O20   V3    S    
C15   C17   A    
C16   C18   A    
O12   C48   A    
O11   C47   A    
C25   H13   S    
C38   C40   A    
C42   C44   A    
O9    V2    S    
C41   C43   A    
O10   V1    S    
C40   H20   S    
C9    C49   S    
O12   V3    S    
C8    C28   A    
C9    C31   A    
C36   H18   S    
