data_mof_unit_52557.cif
_audit_creation_date              2012-12-11T17:09:37-0500
_audit_creation_method            fapswitch 2.2
_symmetry_space_group_name_H-M    P1
_symmetry_Int_Tables_number       1
_space_group_crystal_system       triclinic
_cell_length_a                    14.801688
_cell_length_b                    6.928035
_cell_length_c                    13.527533
_cell_angle_alpha                 90.000316
_cell_angle_beta                  99.854672
_cell_angle_gamma                 89.99901
_cell_volume                      1366.73455753

loop_
_atom_site_label
_atom_site_type_symbol
_atom_type_description
_atom_site_fract_x
_atom_site_fract_y
_atom_site_fract_z
_atom_type_partial_charge
O1    O     O_R   0.586930 0.505770 0.416350 -0.546890
O2    O     O_R   0.413070 0.005770 0.583650 -0.546870
O3    O     O_R   0.397900 0.173100 0.389630 -0.539356
O4    O     O_R   0.602100 0.673100 0.610370 -0.539379
C1    C     C_R   0.364468 0.345472 0.362567 0.708759
C2    C     C_R   0.635531 0.845471 0.637435 0.708889
O5    O     O_R   0.585280 0.175870 0.404330 -0.536172
O6    O     O_R   0.414720 0.675870 0.595670 -0.536300
O7    O     O_R   0.601790 0.008380 0.598460 -0.530422
O8    O     O_R   0.398210 0.508380 0.401540 -0.530488
C3    C     C_R   0.614866 0.344896 0.382986 0.711965
C4    C     C_R   0.385140 0.844897 0.617020 0.711918
O9    O     O_3   0.505200 0.340120 0.563670 -0.371909
O10   O     O_3   0.494800 0.840120 0.436330 -0.371824
V1    V     V_3+5 0.499040 0.064180 0.488190 1.418379
V2    V     V_3+5 0.500960 0.564180 0.511810 1.418177
C5    C     C_R   0.249769 0.003408 0.674411 0.020752
C6    C     C_R   0.750244 0.503405 0.325605 0.020714
C7    C     C_R   0.314102 0.853128 0.682130 -0.116408
C8    C     C_R   0.685908 0.353126 0.317883 -0.116357
C9    C     C_R   0.305448 0.703920 0.750684 -0.127906
C10   C     C_R   0.694547 0.203940 0.249310 -0.127821
H1    H     H_    0.352665 0.583695 0.758657 0.111569
H2    H     H_    0.647323 0.083727 0.241333 0.111569
C11   C     C_R   0.239841 0.714876 0.814735 -0.128164
C12   C     C_R   0.760143 0.214903 0.185248 -0.128165
H3    H     H_    0.238422 0.602257 0.869831 0.114165
H4    H     H_    0.761557 0.102286 0.130147 0.114210
C13   C     C_R   0.180903 0.875443 0.812274 -0.125903
C14   C     C_R   0.819077 0.375470 0.187706 -0.125852
C15   C     C_R   0.185120 0.014635 0.738167 0.082263
C16   C     C_R   0.814860 0.514667 0.261813 0.082350
C17   C     C_3   0.192781 0.228618 0.747334 0.155569
C18   C     C_3   0.807145 0.728645 0.252616 0.155070
C19   C     C_3   0.263977 0.217438 0.677710 -0.026671
C20   C     C_3   0.736023 0.717427 0.322326 -0.026806
H5    H     H_    0.222480 0.273446 0.824934 0.039690
H6    H     H_    0.777365 0.773397 0.175030 0.039797
H7    H     H_    0.334337 0.259144 0.714314 0.096476
H8    H     H_    0.665641 0.759124 0.285805 0.096805
C21   C     C_1   0.783475 0.877107 0.782859 -0.166380
C22   C     C_1   0.216524 0.377107 0.217141 -0.166385
C23   C     C_1   0.716120 0.860151 0.716906 -0.169498
C24   C     C_1   0.283879 0.360151 0.283095 -0.169446
O11   O     O_R   0.101720 0.231700 0.098560 -0.538488
O12   O     O_R   0.898280 0.731700 0.901440 -0.538497
O13   O     O_R   0.914700 0.558980 0.095690 -0.537992
O14   O     O_R   0.085300 0.058980 0.904310 -0.538039
C25   C     C_R   0.885250 0.389650 0.117153 0.714075
C26   C     C_R   0.114742 0.889643 0.882838 0.713981
O15   O     O_R   0.102080 0.561590 0.110390 -0.534868
O16   O     O_R   0.897920 0.061590 0.889610 -0.534877
O17   O     O_R   0.086950 0.728940 0.916330 -0.533718
O18   O     O_R   0.913050 0.228940 0.083670 -0.533680
C27   C     C_R   0.136048 0.391898 0.137520 0.734983
C28   C     C_R   0.863952 0.891899 0.862479 0.734974
O19   O     O_3   0.994770 0.394510 0.936380 -0.355496
O20   O     O_3   0.005230 0.894510 0.063620 -0.355422
V3    V     V_3+5 0.000970 0.670520 0.011800 1.505264
V4    V     V_3+5 0.999030 0.170520 0.988200 1.505232
Br1   Br    Br    0.076725 0.353971 0.694116 -0.464506
Br2   Br    Br    0.923201 0.854146 0.305670 -0.464774
N1    N     N_3   0.235281 0.310541 0.580111 -0.569817
H9    H     H_    0.181162 0.234118 0.537479 0.276050
H10   H     H_    0.290306 0.303161 0.541157 0.230819
N2    N     N_3   0.764784 0.810472 0.419928 -0.570121
H11   H     H_    0.819254 0.734660 0.462258 0.276408
H12   H     H_    0.710011 0.802070 0.459153 0.230800

loop_
_geom_bond_atom_site_label_1
_geom_bond_atom_site_label_2
_ccdc_geom_bond_type
O4    V2    S    
C6    C8    A    
O5    C3    A    
C15   C17   S    
O11   V4    S    
C12   C14   A    
C22   C27   S    
C11   H3    S    
O16   V4    S    
C20   N2    S    
C12   H4    S    
O1    C3    A    
C20   H8    S    
O6    C4    A    
O2    C4    A    
N1    H10   S    
C2    O7    A    
O5    V1    S    
N2    H11   S    
O7    V1    S    
O3    V1    S    
C1    O8    A    
O13   C25   A    
O1    V2    S    
O18   V4    S    
C14   C16   A    
O2    V1    S    
C21   C23   T    
C6    C20   S    
C22   C24   T    
C13   C26   S    
C13   C15   A    
C5    C15   A    
C4    C7    S    
O14   C26   A    
C17   C19   S    
C14   C25   S    
C8    C10   A    
O14   V4    S    
C21   C28   S    
C18   C20   S    
C2    C23   S    
O9    V1    S    
C9    H1    S    
O17   V3    S    
C19   H7    S    
O12   V3    S    
O10   V2    S    
C3    C8    S    
O19   V3    S    
C26   O17   A    
C6    C16   A    
N2    H12   S    
O13   V3    S    
C25   O18   A    
O6    V2    S    
O3    C1    A    
C18   Br2   S    
O15   V3    S    
O11   C27   A    
C11   C13   A    
C17   Br1   S    
O4    C2    A    
C10   C12   A    
C10   H2    S    
O12   C28   A    
C9    C11   A    
O9    V2    S    
O19   V4    S    
O8    V2    S    
O10   V1    S    
C5    C19   S    
O15   C27   A    
C5    C7    A    
O20   V3    S    
C18   H6    S    
O20   V4    S    
C19   N1    S    
C1    C24   S    
C17   H5    S    
O16   C28   A    
N1    H9    S    
C7    C9    A    
C16   C18   S    
