data_mof_unit_12787.cif
_audit_creation_date              2012-12-10T20:36:38-0500
_audit_creation_method            fapswitch 2.2
_symmetry_space_group_name_H-M    P1
_symmetry_Int_Tables_number       1
_space_group_crystal_system       triclinic
_cell_length_a                    10.503502
_cell_length_b                    10.673788
_cell_length_c                    9.889263
_cell_angle_alpha                 89.216865
_cell_angle_beta                  88.877082
_cell_angle_gamma                 90.562786
_cell_volume                      1108.33364809

loop_
_atom_site_label
_atom_site_type_symbol
_atom_type_description
_atom_site_fract_x
_atom_site_fract_y
_atom_site_fract_z
_atom_type_partial_charge
C1    C     C_R   0.505809 0.259859 0.500268 0.874148
C2    C     C_3   0.963609 0.510941 0.369146 -0.205397
C3    C     C_3   0.042571 0.403035 0.429214 -0.131882
C4    C     C_3   0.122202 0.500921 0.502448 -0.058708
C5    C     C_R   0.549905 0.062036 0.618094 0.137915
C6    C     C_R   0.531215 0.128737 0.498318 -0.107757
C7    C     C_R   0.541074 0.066689 0.374087 -0.226740
C8    C     C_R   0.541026 0.937112 0.373208 -0.226827
C9    C     C_R   0.531297 0.871138 0.496540 -0.098527
C10   C     C_R   0.549556 0.933909 0.617172 0.182144
C11   C     C_3   0.478028 0.923155 0.748821 -0.473730
C12   C     C_R   0.257312 0.499765 0.501093 0.903530
C13   C     C_3   0.477976 0.064811 0.749443 -0.528594
C14   C     C_R   0.394376 0.462839 0.074708 0.173203
C15   C     C_R   0.599910 0.548082 0.069014 -0.139605
C16   C     C_R   0.599852 0.548266 0.925269 -0.145067
C17   C     C_R   0.393988 0.461573 0.932073 0.197858
C18   C     C_3   0.335293 0.332628 0.936596 0.268301
C19   C     C_3   0.332250 0.338667 0.090275 -0.603209
C20   C     C_R   0.505842 0.739992 0.498979 0.882533
C21   C     C_R   0.742553 0.502030 0.498612 0.910175
C22   C     C_3   0.036081 0.492914 0.629107 -0.192510
C23   C     C_3   0.953746 0.395212 0.555431 -0.262810
C24   C     C_3   0.877455 0.502888 0.495679 -0.078599
C25   C     C_3   0.958015 0.599288 0.567431 0.651762
C26   C     C_3   0.046154 0.609030 0.441988 -0.253930
H1    H     H_    0.908210 0.308549 0.597385 0.160501
H2    H     H_    0.536550 0.881213 0.829910 0.213428
H3    H     H_    0.381549 0.104550 0.737382 0.211288
H4    H     H_    0.536333 0.104392 0.831416 0.201937
H5    H     H_    0.681649 0.584976 0.120728 0.152760
H6    H     H_    0.681450 0.585584 0.869180 0.186988
H7    H     H_    0.401606 0.262723 0.894620 0.084811
H8    H     H_    0.235785 0.347222 0.137195 0.211302
H9    H     H_    0.394165 0.267943 0.138741 0.184456
H10   H     H_    0.068613 0.487636 0.735045 0.207972
H11   H     H_    0.088070 0.696489 0.397404 0.151484
H12   H     H_    0.929981 0.517979 0.263594 0.163261
H13   H     H_    0.082214 0.322348 0.373202 0.136347
H14   H     H_    0.537979 0.116686 0.278184 0.168153
H15   H     H_    0.537639 0.889938 0.277021 0.174098
H16   H     H_    0.381296 0.881314 0.738890 0.209671
N1    N     N_R   0.499140 0.499140 0.142800 -0.104197
N2    N     N_R   0.499140 0.499180 0.857150 -0.141832
O1    O     O_R   0.500020 0.316790 0.614690 -0.618548
O2    O     O_R   0.500000 0.316760 0.385350 -0.626514
O3    O     O_R   0.313960 0.499990 0.614650 -0.597595
O4    O     O_R   0.313940 0.499950 0.385310 -0.616702
O5    O     O_R   0.500000 0.683240 0.614650 -0.612124
O6    O     O_R   0.499980 0.683210 0.385310 -0.625796
O7    O     O_R   0.686060 0.500050 0.614690 -0.610447
O8    O     O_R   0.686040 0.500010 0.385350 -0.636261
Zn1   Zn    Zn3+2 0.500010 0.500020 0.653130 0.972879
Zn2   Zn    Zn3+2 0.499990 0.499980 0.346870 0.943738
O9    O     O_3   0.212849 0.330256 0.879996 -0.589162
C27   C     C_3   0.154301 0.212135 0.907112 0.114982
H17   H     H_    0.113144 0.209510 0.011531 0.148324
H18   H     H_    0.221492 0.132709 0.896257 0.128069
C28   C     C_3   0.046673 0.191473 0.809641 -0.842933
H19   H     H_    0.084634 0.194808 0.704020 0.258752
H20   H     H_    0.001565 0.098308 0.829397 0.222652
H21   H     H_    0.973653 0.264871 0.823930 0.251895
F1    F     F_    0.909167 0.699836 0.637496 -0.685319

loop_
_geom_bond_atom_site_label_1
_geom_bond_atom_site_label_2
_ccdc_geom_bond_type
C4    C26   S    
C23   C24   S    
C26   H11   S    
C15   H5    S    
C6    C7    A    
C23   H1    S    
C16   H6    S    
C4    C22   S    
C9    C10   A    
C2    H12   S    
N1    Zn2   S    
C3    C23   S    
C27   C28   S    
O3    Zn1   S    
C12   O4    A    
O2    Zn2   S    
O9    C27   S    
C17   C18   S    
N2    Zn1   S    
C17   N2    A    
C15   N1    A    
C28   H19   S    
C2    C26   S    
C19   H9    S    
C27   H17   S    
O4    Zn2   S    
C11   C13   S    
C14   C17   A    
C1    O1    A    
C20   O5    A    
C18   O9    S    
C12   O3    A    
O5    Zn1   S    
O6    Zn2   S    
C13   H3    S    
C27   H18   S    
C2    C3    S    
C5    C10   A    
C2    C24   S    
C5    C6    A    
C18   H7    S    
C11   H2    S    
C1    O2    A    
C28   H20   S    
C21   O7    A    
C4    C12   S    
C10   C11   S    
O1    Zn1   S    
C15   C16   A    
C13   H4    S    
C7    C8    A    
C22   H10   S    
C24   C25   S    
C11   H16   S    
C18   C19   S    
C25   F1    S    
C21   C24   S    
C3    H13   S    
C16   N2    A    
C22   C23   S    
C8    C9    A    
C28   H21   S    
C20   O6    A    
C9    C20   S    
C8    H15   S    
C25   C26   S    
C7    H14   S    
C5    C13   S    
C14   C19   S    
C22   C25   S    
C21   O8    A    
C3    C4    S    
C1    C6    S    
O8    Zn2   S    
C14   N1    A    
O7    Zn1   S    
C19   H8    S    
