data_mof_unit_34078.cif
_audit_creation_date              2012-10-26T19:20:19-0400
_audit_creation_method            fapswitch 2.2
_symmetry_space_group_name_H-M    P1
_symmetry_Int_Tables_number       1
_space_group_crystal_system       triclinic
_cell_length_a                    15.86323
_cell_length_b                    10.920301
_cell_length_c                    9.761578
_cell_angle_alpha                 89.403274
_cell_angle_beta                  89.408428
_cell_angle_gamma                 90.317662
_cell_volume                      1690.80147576

loop_
_atom_site_label
_atom_site_type_symbol
_atom_type_description
_atom_site_fract_x
_atom_site_fract_y
_atom_site_fract_z
_atom_type_partial_charge
C1    C     C_R   0.503682 0.265815 0.500870 0.543642
C2    C     C_2   0.489185 0.867069 0.495734 0.247652
C3    C     C_2   0.520719 0.067652 0.392859 -0.125174
C4    C     C_R   0.340067 0.500296 0.500596 0.545162
C5    C     C_2   0.516326 0.134934 0.505996 -0.105786
C6    C     C_2   0.432914 0.496059 0.926008 0.463191
C7    C     C_2   0.439550 0.458024 0.074276 0.408210
C8    C     C_R   0.498473 0.734430 0.499119 0.563061
C9    C     C_R   0.659955 0.500405 0.499382 0.539360
C10   C     C_3   0.970789 0.475087 0.623433 0.227066
C11   C     C_3   0.027842 0.389508 0.539181 -0.134654
C12   C     C_3   0.083384 0.502475 0.503049 0.002080
C13   C     C_1   0.250448 0.501271 0.501955 0.006663
C14   C     C_1   0.749619 0.500790 0.498020 -0.003804
C15   C     C_3   0.027194 0.587594 0.591322 -0.139347
C16   C     C_3   0.309198 0.602692 0.938897 0.009178
C17   C     C_3   0.231502 0.636303 0.856737 -0.361669
C18   C     C_3   0.002355 0.815132 0.416290 -0.002342
C19   C     C_3   0.968089 0.930872 0.349708 -0.371044
C20   C     C_3   0.662384 0.939424 0.288090 -0.025472
C21   C     C_3   0.726495 0.854425 0.222569 -0.342856
C22   C     C_3   0.973321 0.611760 0.462359 0.270906
C23   C     C_3   0.916780 0.501015 0.497525 0.067519
C24   C     C_3   0.029549 0.528194 0.376472 0.256072
C25   C     C_3   0.973206 0.416167 0.410253 -0.156890
C26   C     C_1   0.174949 0.502077 0.502702 -0.011762
C27   C     C_1   0.825144 0.500988 0.497510 0.022974
C28   C     C_2   0.533820 0.934190 0.402609 0.275479
Cu1   Cu    Cu3+1 0.500020 0.500020 0.638630 1.026485
Cu2   Cu    Cu3+1 0.499980 0.499980 0.361370 1.000617
H1    H     H_    0.051079 0.298741 0.573817 0.128782
H2    H     H_    0.194700 0.707086 0.911674 0.113117
H3    H     H_    0.250685 0.673227 0.754572 0.149376
H4    H     H_    0.396273 0.343387 0.210460 0.360054
H5    H     H_    0.584178 0.616264 0.171578 0.391369
H6    H     H_    0.986632 0.435571 0.813031 0.325223
H7    H     H_    0.013278 0.570313 0.187619 0.332800
H8    H     H_    0.059111 0.786259 0.356998 0.168411
H9    H     H_    0.020732 0.837184 0.522960 0.130834
H10   H     H_    0.911300 0.962389 0.406469 0.158389
H11   H     H_    0.016744 0.004351 0.351080 0.107618
H12   H     H_    0.525662 0.093404 0.606300 0.161514
H13   H     H_    0.950957 0.912538 0.241786 0.158792
H14   H     H_    0.689028 0.972008 0.386667 0.125024
H15   H     H_    0.652624 0.018776 0.217798 0.141433
H16   H     H_    0.702420 0.820465 0.123414 0.175430
H17   H     H_    0.786647 0.904556 0.203746 0.105367
H18   H     H_    0.738533 0.775072 0.291671 0.179254
H19   H     H_    0.401443 0.857516 0.636744 0.330662
H20   H     H_    0.554947 0.470988 0.889945 0.220386
H21   H     H_    0.950703 0.347804 0.335411 0.119649
H22   H     H_    0.049799 0.655135 0.667005 0.097843
H23   H     H_    0.518119 0.110116 0.291863 0.141645
H24   H     H_    0.348325 0.687113 0.950354 0.129718
H25   H     H_    0.287833 0.569502 0.041686 0.187388
H26   H     H_    0.190960 0.554180 0.842809 0.169249
N1    N     N_2   0.499090 0.498660 0.846910 -0.316719
N2    N     N_2   0.499070 0.498630 0.153040 -0.120809
O1    O     O_R   0.500010 0.321960 0.617040 -0.490096
O2    O     O_3   0.376792 0.381403 0.124489 -0.702384
O3    O     O_3   0.549178 0.585298 0.096192 -0.664450
O4    O     O_3   0.937230 0.446024 0.752751 -0.680345
O5    O     O_3   0.062832 0.557200 0.246914 -0.694358
O6    O     O_3   0.939158 0.723860 0.416841 -0.562868
O7    O     O_3   0.585846 0.874783 0.308750 -0.559580
O8    O     O_3   0.430992 0.921930 0.581979 -0.746731
O9    O     O_R   0.499990 0.321920 0.382900 -0.532946
O10   O     O_R   0.379090 0.500010 0.617050 -0.438953
O11   O     O_R   0.379060 0.499970 0.382910 -0.500901
O12   O     O_R   0.500010 0.678080 0.617100 -0.506771
O13   O     O_R   0.499990 0.678040 0.382960 -0.466392
O14   O     O_R   0.620940 0.500030 0.617090 -0.494623
O15   O     O_R   0.620910 0.499990 0.382950 -0.513759
O16   O     O_3   0.353948 0.510355 0.869270 -0.511163

loop_
_geom_bond_atom_site_label_1
_geom_bond_atom_site_label_2
_ccdc_geom_bond_type
C5    H12   S    
C25   H21   S    
C2    O8    S    
C6    C7    S    
C23   C27   S    
C10   C23   S    
Cu1   O10   S    
C12   C24   S    
C7    N2    D    
C8    O12   A    
C20   H15   S    
C17   H26   S    
C12   C15   S    
H7    O5    S    
C18   H9    S    
C21   H18   S    
Cu1   O14   S    
N2    O3    S    
C1    O1    A    
Cu2   O13   S    
C18   H8    S    
C16   H25   S    
C11   H1    S    
H5    O3    S    
H6    O4    S    
C15   H22   S    
C24   C25   S    
H4    O2    S    
C3    H23   S    
C6    N1    D    
C18   O6    S    
C10   O4    S    
C17   H3    S    
C16   O16   S    
Cu2   N2    S    
C4    O11   A    
C1    O9    A    
C19   H13   S    
C7    O2    S    
C6    O16   S    
C24   O5    S    
C16   H24   S    
C10   C11   S    
C23   C25   S    
C9    C14   S    
C14   C27   T    
C22   C24   S    
C13   C26   T    
C19   H10   S    
C11   C25   S    
Cu1   Cu2   S    
C21   H16   S    
C19   H11   S    
C20   O7    S    
C1    C5    S    
Cu2   O11   S    
C18   C19   S    
C20   C21   S    
C8    O13   A    
Cu1   O12   S    
H19   O8    S    
C12   C26   S    
C4    C13   S    
C4    O10   A    
C17   H2    S    
Cu1   O1    S    
C22   C23   S    
C3    C28   S    
C9    O14   A    
C2    C28   D    
C3    C5    D    
C22   O6    S    
C20   H14   S    
C10   C15   S    
Cu2   O15   S    
H20   N1    S    
C28   O7    S    
C9    O15   A    
C15   C22   S    
C2    C8    S    
Cu2   O9    S    
C11   C12   S    
Cu1   N1    S    
C16   C17   S    
C21   H17   S    
