data_mof_unit_18389.cif
_audit_creation_date              2013-03-05T16:41:36-0500
_audit_creation_method            fapswitch 2.2
_symmetry_space_group_name_H-M    P1
_symmetry_Int_Tables_number       1
_space_group_crystal_system       triclinic
_cell_length_a                    12.834582
_cell_length_b                    10.693787
_cell_length_c                    9.926306
_cell_angle_alpha                 89.763709
_cell_angle_beta                  97.593737
_cell_angle_gamma                 91.355861
_cell_volume                      1350.06139467

loop_
_atom_site_label
_atom_site_type_symbol
_atom_site_description
_atom_site_fract_x
_atom_site_fract_y
_atom_site_fract_z
_atom_type_partial_charge
O1    O     O_R   0.500010 0.316790 0.614690 -0.560062
O2    O     O_R   0.500000 0.316760 0.385350 -0.649048
C1    C     C_R   0.501409 0.260487 0.500167 0.908276
O3    O     O_R   0.346360 0.499990 0.595720 -0.600144
O4    O     O_R   0.346350 0.499960 0.366370 -0.628522
C2    C     C_R   0.298296 0.502976 0.472752 0.917872
Zn1   Zn    Zn3+2 0.500010 0.500020 0.653130 0.997654
Zn2   Zn    Zn3+2 0.499990 0.499980 0.346870 0.977838
O5    O     O_R   0.500000 0.683240 0.614650 -0.633183
O6    O     O_R   0.499990 0.683210 0.385310 -0.571072
O7    O     O_R   0.653650 0.500040 0.633630 -0.640873
O8    O     O_R   0.653640 0.500010 0.404280 -0.633101
C3    C     C_R   0.497838 0.739400 0.499036 0.926010
C4    C     C_R   0.701751 0.500346 0.527228 0.865290
C5    C     C_R   0.814244 0.505382 0.544047 -0.040125
C6    C     C_R   0.185754 0.505898 0.454837 0.001710
C7    C     C_R   0.019962 0.437323 0.333527 -0.208324
C8    C     C_R   0.127780 0.450655 0.340730 -0.207127
C9    C     C_R   0.136113 0.556016 0.558175 -0.210876
C10   C     C_R   0.028890 0.539640 0.554660 0.187506
C11   C     C_R   0.970691 0.479030 0.441559 0.187904
C12   C     C_R   0.863948 0.461577 0.437711 -0.271157
C13   C     C_R   0.871390 0.562702 0.658140 -0.206973
C14   C     C_R   0.979223 0.580347 0.663210 -0.203281
H1    H     H_    0.819159 0.415601 0.350595 0.147441
H2    H     H_    0.832385 0.597342 0.740398 0.153806
H3    H     H_    0.975771 0.391904 0.245819 0.139532
H4    H     H_    0.023399 0.626039 0.750720 0.142758
H5    H     H_    0.166054 0.413882 0.260197 0.160557
H6    H     H_    0.181312 0.605019 0.642413 0.134463
C15   C     C_R   0.568342 0.063464 0.597047 0.097124
C16   C     C_R   0.505866 0.128686 0.496793 -0.118673
C17   C     C_R   0.454702 0.065702 0.382534 -0.291064
H7    H     H_    0.412413 0.116703 0.299022 0.182296
C18   C     C_R   0.449098 0.936253 0.381668 0.312735
C19   C     C_R   0.499554 0.871493 0.495481 -0.213214
C20   C     C_R   0.565422 0.935860 0.595857 0.062960
C21   C     C_3   0.576751 0.926944 0.747247 -0.431155
C22   C     C_3   0.580114 0.068982 0.748644 -0.420147
H8    H     H_    0.505701 0.885777 0.785219 0.234542
H9    H     H_    0.652502 0.885221 0.790290 0.198733
H10   H     H_    0.511223 0.108381 0.787964 0.274368
H11   H     H_    0.657670 0.109423 0.792870 0.192982
C23   C     C_R   0.409768 0.517596 0.055127 0.191527
N1    N     N_R   0.499290 0.499140 0.142710 -0.103495
C24   C     C_R   0.591008 0.489027 0.087088 -0.110433
H12   H     H_    0.664521 0.478451 0.152454 0.146425
C25   C     C_R   0.590933 0.488336 0.943681 -0.102696
H13   H     H_    0.664128 0.476974 0.902759 0.137528
N2    N     N_R   0.499290 0.499180 0.857070 -0.084370
C26   C     C_R   0.410258 0.522014 0.913777 0.095234
C27   C     C_3   0.305290 0.455636 0.887918 0.114977
C28   C     C_3   0.306629 0.445939 0.042539 -0.284836
H14   H     H_    0.242394 0.517640 0.841479 0.077746
H15   H     H_    0.244953 0.503853 0.078385 0.167868
N3    N     N_R   0.306759 0.336890 0.815081 0.247289
O9    O     O_R   0.386778 0.263862 0.835913 -0.422471
O10   O     O_R   0.227531 0.305046 0.725214 -0.413539
C29   C     C_3   0.310056 0.312878 0.105140 -0.305264
C30   C     C_3   0.205400 0.239872 0.065002 -0.355621
C31   C     C_3   0.187235 0.137360 0.167292 -0.839228
H16   H     H_    0.247693 0.065239 0.167901 0.308740
H17   H     H_    0.189671 0.176814 0.271023 0.257139
H18   H     H_    0.108876 0.091973 0.137826 0.260108
H19   H     H_    0.137968 0.304003 0.056984 0.213754
H20   H     H_    0.204996 0.195294 0.964290 0.286918
H21   H     H_    0.376892 0.259095 0.077382 0.243161
H22   H     H_    0.324225 0.322052 0.216822 0.225208
N4    N     N_R   0.385756 0.873522 0.270964 0.208262
O11   O     O_R   0.394874 0.904977 0.146215 -0.414422
O12   O     O_R   0.311151 0.795101 0.294478 -0.411746

loop_
_geom_bond_atom_site_label_1
_geom_bond_atom_site_label_2
_geom_bond_distance
_ccdc_geom_bond_type
O4    Zn2   2.006674 S    
C21   H8    1.112603 S    
C13   C14   1.386670 A    
O6    C3    1.284839 A    
C20   C21   1.493385 S    
C29   H22   1.103828 S    
C31   H18   1.110346 S    
C9    C10   1.379006 A    
C15   C22   1.493638 S    
Zn2   O8    1.979046 S    
C29   H21   1.108910 S    
C16   C17   1.399908 A    
C27   H14   1.108264 S    
C5    C13   1.400425 A    
C7    C8    1.380186 A    
C28   C29   1.549592 S    
Zn2   N1    2.025444 S    
C30   H20   1.108655 S    
C29   C30   1.544004 S    
C5    C12   1.391652 A    
C8    H5    1.072612 S    
C31   H17   1.110703 S    
N1    C24   1.371329 A    
C27   C28   1.535743 S    
Zn1   O7    2.006673 S    
C1    C16   1.412677 S    
C27   N3    1.465569 S    
C21   H9    1.111769 S    
O3    Zn1   1.979046 S    
O4    C2    1.292236 A    
C23   C26   1.404518 A    
C25   N2    1.369084 A    
C19   C20   1.391664 A    
C17   C18   1.384468 A    
O8    C4    1.292862 A    
C30   H19   1.111369 S    
O2    C1    1.284843 A    
C22   H10   1.105369 S    
N4    O11   1.301234 A    
C28   H15   1.111867 S    
C15   C20   1.364256 A    
C6    C9    1.392404 A    
C31   H16   1.106344 S    
C10   C14   1.398364 A    
O7    C4    1.291842 A    
C24   C25   1.423432 A    
O3    C2    1.293472 A    
N4    O12   1.301560 A    
N3    O9    1.299188 A    
C7    C11   1.394738 A    
C2    C6    1.432896 S    
C26   C27   1.499863 S    
C7    H3    1.084207 S    
C10   C11   1.414177 A    
C14   H4    1.083971 S    
C17   H7    1.081932 S    
C23   N1    1.363901 A    
C18   N4    1.436190 S    
C3    C19   1.412591 S    
C6    C8    1.395539 A    
C24   H12   1.080111 S    
C13   H2    1.083447 S    
Zn1   O5    1.994653 S    
O5    C3    1.290413 A    
C4    C5    1.431091 S    
C25   H13   1.081177 S    
C22   H11   1.111877 S    
N2    C26   1.366217 A    
C11   C12   1.373807 A    
O1    Zn1   1.997774 S    
C9    H6    1.082282 S    
C23   C28   1.504719 S    
C12   H1    1.085675 S    
Zn2   O6    1.997772 S    
O2    Zn2   1.994653 S    
C15   C16   1.389098 A    
Zn1   N2    2.025594 S    
N3    O10   1.300808 A    
C30   C31   1.525896 S    
O1    C1    1.290997 A    
C18   C19   1.413041 A    
C21   C22   1.518576 S    
