data_mof_unit_45008.cif
_audit_creation_date              2012-10-26T20:06:16-0400
_audit_creation_method            fapswitch 2.2
_symmetry_space_group_name_H-M    P1
_symmetry_Int_Tables_number       1
_space_group_crystal_system       triclinic
_cell_length_a                    9.535013
_cell_length_b                    10.831317
_cell_length_c                    13.426605
_cell_angle_alpha                 89.837167
_cell_angle_beta                  72.850794
_cell_angle_gamma                 89.992446
_cell_volume                      1324.9998554

loop_
_atom_site_label
_atom_site_type_symbol
_atom_type_description
_atom_site_fract_x
_atom_site_fract_y
_atom_site_fract_z
_atom_type_partial_charge
C1    C     C_R   0.499959 0.737873 0.500184 0.540453
C2    C     C_R   0.378337 0.545416 0.811624 -0.011720
C3    C     C_R   0.625340 0.936060 0.504865 -0.144475
C4    C     C_R   0.422776 0.516000 0.698856 0.547201
C5    C     C_R   0.625361 0.063805 0.504799 -0.139099
C6    C     C_R   0.499724 0.128217 0.500721 0.020024
C7    C     C_R   0.373910 0.063844 0.497076 -0.139897
C8    C     C_R   0.373932 0.936120 0.497048 -0.139612
C9    C     C_R   0.499733 0.871721 0.500733 0.018949
C10   C     C_R   0.952869 0.575769 0.434342 -0.002058
C11   C     C_R   0.101584 0.575721 0.434333 0.006014
C12   C     C_R   0.434115 0.531416 0.978315 0.033065
C13   C     C_R   0.047102 0.424351 0.565700 0.003066
C14   C     C_R   0.898504 0.424083 0.565466 -0.001007
C15   C     C_R   0.499870 0.262116 0.500271 0.556628
C16   C     C_R   0.578070 0.499018 0.300048 0.549364
C17   C     C_R   0.796531 0.461238 0.017927 -0.140890
C18   C     C_R   0.621067 0.496581 0.186217 -0.001283
C19   C     C_R   0.228865 0.554628 0.865152 -0.154759
C20   C     C_R   0.181595 0.548934 0.973057 -0.127875
C21   C     C_R   0.279669 0.520596 0.029083 0.005997
C22   C     C_3   0.211842 0.463331 0.135311 -0.400516
C23   C     C_R   0.481817 0.554533 0.868917 0.026896
C24   C     C_3   0.682252 0.680599 0.738307 -0.354903
C25   C     C_R   0.544434 0.517311 0.029500 0.024506
C26   C     C_R   0.692232 0.499635 0.969716 0.033733
C27   C     C_R   0.736447 0.536119 0.865687 -0.127323
C28   C     C_R   0.632474 0.582050 0.821039 0.011120
C29   C     C_R   0.516007 0.529036 0.137056 -0.133292
C30   C     C_R   0.760517 0.457954 0.126446 -0.138905
Cu1   Cu    Cu3+1 0.359340 0.499980 0.500000 0.925823
Cu2   Cu    Cu3+1 0.640660 0.500020 0.500000 0.917150
H1    H     H_    0.841911 0.428920 0.163293 0.121566
H2    H     H_    0.905536 0.435502 0.971155 0.102341
H3    H     H_    0.414518 0.569354 0.183229 0.127219
H4    H     H_    0.147311 0.559605 0.823646 0.125226
H5    H     H_    0.065829 0.554812 0.013036 0.118708
H6    H     H_    0.723510 0.887977 0.508138 0.123721
H7    H     H_    0.286150 0.395029 0.155101 0.147990
H8    H     H_    0.178280 0.536282 0.195528 0.116770
H9    H     H_    0.111757 0.410150 0.136405 0.123644
H10   H     H_    0.734419 0.757126 0.769412 0.107115
H11   H     H_    0.764866 0.643332 0.668675 0.167828
H12   H     H_    0.723576 0.111830 0.507979 0.127247
H13   H     H_    0.589091 0.721131 0.715701 0.140979
H14   H     H_    0.275642 0.111883 0.493973 0.127895
H15   H     H_    0.275708 0.888105 0.493869 0.125889
H16   H     H_    0.918768 0.636497 0.381726 0.110218
H17   H     H_    0.179319 0.636511 0.381743 0.103810
H18   H     H_    0.081148 0.363787 0.618452 0.108581
H19   H     H_    0.820746 0.363405 0.618147 0.117425
H20   H     H_    0.852429 0.544454 0.824263 0.099883
N1    N     N_R   0.147940 0.499970 0.499970 -0.222696
N2    N     N_R   0.852060 0.500060 0.499990 -0.233976
O1    O     O_R   0.381250 0.680340 0.500010 -0.510015
O2    O     O_R   0.618820 0.680370 0.500010 -0.520875
O3    O     O_R   0.323240 0.499950 0.650980 -0.505328
O4    O     O_R   0.560810 0.499980 0.650980 -0.500866
O5    O     O_R   0.381180 0.319630 0.499990 -0.503611
O6    O     O_R   0.618750 0.319660 0.499990 -0.503207
O7    O     O_R   0.439190 0.500020 0.349020 -0.507020
O8    O     O_R   0.676760 0.500050 0.349020 -0.498836

loop_
_geom_bond_atom_site_label_1
_geom_bond_atom_site_label_2
_ccdc_geom_bond_type
C4    O3    A    
C2    C4    S    
Cu2   O6    S    
C6    C7    A    
C3    C9    A    
C13   C14   A    
C24   H10   S    
C15   O6    A    
C29   H3    S    
C19   C20   A    
C11   N1    A    
Cu2   O4    S    
C12   C25   A    
C25   C26   A    
C22   H8    S    
Cu1   O3    S    
C2    C19   A    
C8    H15   S    
Cu2   O8    S    
C7    C8    A    
C18   C29   A    
C21   C22   S    
Cu1   N1    S    
C10   H16   S    
C20   H5    S    
C17   H2    S    
C12   C23   A    
C26   C27   A    
C20   C21   A    
C17   C30   A    
C11   H17   S    
C17   C26   A    
Cu2   N2    S    
C14   N2    A    
C5    H12   S    
Cu2   O2    S    
C1    O1    A    
C13   N1    A    
C19   H4    S    
C14   H19   S    
C25   C29   A    
C5    C6    A    
C10   N2    A    
C1    O2    A    
C22   H9    S    
C16   O7    A    
C24   H13   S    
C18   C30   A    
C4    O4    A    
C13   H18   S    
C7    H14   S    
C2    C23   A    
C1    C9    S    
C27   H20   S    
C16   C18   S    
C10   C11   A    
Cu1   O5    S    
C27   C28   A    
C24   H11   S    
Cu1   O7    S    
C15   O5    A    
C30   H1    S    
Cu1   O1    S    
C6    C15   S    
C23   C28   A    
C22   H7    S    
C12   C21   A    
C16   O8    A    
Cu1   Cu2   S    
C24   C28   S    
C3    H6    S    
C8    C9    A    
C3    C5    A    
