data_mof_unit_68322.cif
_audit_creation_date              2012-12-11T17:44:41-0500
_audit_creation_method            fapswitch 2.2
_symmetry_space_group_name_H-M    P1
_symmetry_Int_Tables_number       1
_space_group_crystal_system       triclinic
_cell_length_a                    8.345271
_cell_length_b                    12.687676
_cell_length_c                    14.901211
_cell_angle_alpha                 96.721347
_cell_angle_beta                  96.901632
_cell_angle_gamma                 99.380511
_cell_volume                      1530.28479866

loop_
_atom_site_label
_atom_site_type_symbol
_atom_type_description
_atom_site_fract_x
_atom_site_fract_y
_atom_site_fract_z
_atom_type_partial_charge
Ba1   Ba    Ba6+2 0.843760 0.550230 0.455610 1.762069
Ba2   Ba    Ba6+2 0.346080 0.449860 0.544400 1.770449
C1    C     C_3   0.703641 0.920537 0.160724 -0.251804
C2    C     C_R   0.109946 0.463645 0.205167 0.002817
C3    C     C_R   0.920662 0.480727 0.767893 -0.253590
C4    C     C_3   0.049192 0.754153 0.204388 0.333399
C5    C     C_R   0.823653 0.437720 0.828706 -0.023073
C6    C     C_R   0.888482 0.442639 0.920304 -0.143332
C7    C     C_R   0.053249 0.492693 0.953180 0.050688
C8    C     C_R   0.149499 0.539605 0.889559 -0.017886
C9    C     C_R   0.124341 0.499797 0.047332 0.052329
C10   C     C_R   0.290598 0.553039 0.075748 0.009619
C11   C     C_R   0.378641 0.599913 0.011721 -0.057782
C12   C     C_3   0.645978 0.830813 0.215856 0.573634
C13   C     C_R   0.308050 0.596784 0.922147 -0.034160
C14   C     C_R   0.036583 0.455192 0.114316 -0.087442
C15   C     C_R   0.271738 0.514210 0.230668 -0.223764
C16   C     C_3   0.042127 0.775465 0.105455 -0.315754
C17   C     C_R   0.082894 0.530053 0.795289 0.040061
C18   C     C_R   0.759164 0.182791 0.550407 0.082599
C19   C     C_R   0.416446 0.807513 0.464763 -0.045967
C20   C     C_R   0.388036 0.987296 0.436961 -0.042074
C21   C     C_R   0.322242 0.878772 0.429371 0.170406
C22   C     C_R   0.575858 0.846181 0.513834 0.038899
C23   C     C_3   0.373423 0.236006 0.260789 0.682582
C24   C     C_R   0.640486 0.958906 0.525455 -0.075672
C25   C     C_R   0.545115 0.029506 0.485638 -0.091097
C26   C     C_R   0.607814 0.141364 0.496724 0.029151
C27   C     C_R   0.860577 0.114072 0.582018 -0.031906
C28   C     C_3   0.329305 0.797255 0.696464 0.628898
C29   C     C_R   0.799435 0.003369 0.572904 -0.151274
C30   C     C_3   0.450529 0.874641 0.768590 -0.249724
C31   C     C_3   0.931535 0.226387 0.358839 0.293890
C32   C     C_3   0.874063 0.105068 0.344956 -0.428245
C33   C     C_3   0.786294 0.700133 0.729685 0.286760
C34   C     C_3   0.240866 0.145608 0.208530 -0.237881
C35   C     C_3   0.820449 0.730469 0.834040 -0.128767
C36   C     C_3   0.134258 0.201946 0.793638 0.308655
C37   C     C_3   0.168726 0.153038 0.881045 0.220765
C38   C     C_3   0.616846 0.177304 0.786089 0.301710
C39   C     C_3   0.724245 0.141400 0.862820 0.232049
C40   C     C_R   0.363452 0.559236 0.168155 0.104024
Cl1   Cl    Cl    0.440185 0.838960 0.229241 -0.859052
Cl2   Cl    Cl    0.473580 0.305619 0.180390 -0.586399
Cl3   Cl    Cl    0.164558 0.246502 0.978863 -0.687098
Cl4   Cl    Cl    0.608896 0.093061 0.947506 -0.649985
Cl5   Cl    Cl    0.826348 0.321913 0.575023 -0.712117
Cl6   Cl    Cl    0.218729 0.875704 0.629305 -0.734909
H1    H     H_    0.722512 0.843934 0.283912 0.056644
H2    H     H_    0.901634 0.688481 0.703702 0.054909
H3    H     H_    0.695411 0.623726 0.713625 0.022433
H4    H     H_    0.662848 0.996586 0.184377 0.155763
H5    H     H_    0.884899 0.671048 0.864958 0.050290
H6    H     H_    0.702837 0.726990 0.862270 0.095407
H7    H     H_    0.651335 0.896843 0.087553 0.164862
H8    H     H_    0.316084 0.294353 0.302174 -0.071353
H9    H     H_    0.188667 0.094439 0.256943 0.052657
H10   H     H_    0.142217 0.179344 0.171172 0.142550
H11   H     H_    0.293768 0.093807 0.158802 0.179798
H12   H     H_    0.512256 0.829035 0.816949 0.085171
H13   H     H_    0.839050 0.936390 0.166127 0.092565
H14   H     H_    0.146012 0.839215 0.098203 0.183232
H15   H     H_    0.217884 0.280735 0.798334 0.108855
H16   H     H_    0.005250 0.215237 0.785522 -0.096470
H17   H     H_    0.076137 0.079452 0.880742 0.050675
H18   H     H_    0.291490 0.129913 0.885718 0.169360
H19   H     H_    0.694015 0.201466 0.733463 -0.085999
H20   H     H_    0.522586 0.107686 0.752113 0.072952
H21   H     H_    0.820024 0.210291 0.896304 0.097037
H22   H     H_    0.784052 0.075942 0.833748 -0.021109
H23   H     H_    0.544230 0.922829 0.735754 0.071445
H24   H     H_    0.936994 0.698121 0.211765 0.075975
H25   H     H_    0.328932 0.514915 0.299694 0.053303
H26   H     H_    0.504125 0.640228 0.029264 0.112469
H27   H     H_    0.911891 0.412647 0.098323 0.126567
H28   H     H_    0.864602 0.484793 0.699896 0.119067
H29   H     H_    0.806187 0.408457 0.963937 0.113158
H30   H     H_    0.382100 0.639626 0.878879 0.090296
H31   H     H_    0.311344 0.037734 0.406222 0.079972
H32   H     H_    0.880030 0.953824 0.601325 0.162580
H33   H     H_    0.154096 0.712827 0.220385 0.037077
H34   H     H_    0.385441 0.929980 0.807826 0.158416
H35   H     H_    0.049154 0.700994 0.060559 0.054759
H36   H     H_    0.925329 0.800717 0.081660 0.131442
H37   H     H_    0.397509 0.748016 0.654626 -0.043341
H38   H     H_    0.024718 0.843866 0.828867 0.226330
H39   H     H_    0.853199 0.895509 0.841248 0.220374
H40   H     H_    0.410434 0.648781 0.417527 0.198175
H41   H     H_    0.319106 0.670673 0.514702 0.203077
H42   H     H_    0.841552 0.265501 0.392782 0.067824
H43   H     H_    0.051366 0.244562 0.403252 0.082320
H44   H     H_    0.933912 0.065749 0.291508 0.139868
H45   H     H_    0.739205 0.085604 0.326042 0.129787
H46   H     H_    0.906889 0.071882 0.408504 0.099835
N1    N     N_3   0.920601 0.837806 0.861861 -0.476077
N2    N     N_3   0.342480 0.696183 0.452947 -0.468688
O1    O     O_2   0.827930 0.435360 0.277760 -0.396559
O2    O     O_2   0.178117 0.115528 0.548401 -0.449739
O3    O     O_3   0.163251 0.130381 0.720751 -0.597209
O4    O     O_3   0.100310 0.439010 0.391180 -0.502999
O5    O     O_3   0.587770 0.631830 0.546230 -0.501419
O6    O     O_2   0.332600 0.233710 0.456170 -0.501616
O7    O     O_3   0.489548 0.189280 0.311364 -0.644646
O8    O     O_2   0.497023 0.455963 0.825343 -0.479915
O9    O     O_3   0.535231 0.257785 0.822219 -0.561693
O10   O     O_3   0.625610 0.634200 0.333270 -0.495582
O11   O     O_2   0.681966 0.535859 0.175658 -0.440163
O12   O     O_3   0.724299 0.782701 0.690419 -0.655832
O13   O     O_3   0.946541 0.262548 0.274383 -0.608961
O14   O     O_3   0.661074 0.732785 0.165807 -0.643613
O15   O     O_2   0.857120 0.766320 0.543890 -0.414316
O16   O     O_3   0.056570 0.691100 0.379020 -0.472072
O17   O     O_2   0.984372 0.882375 0.428221 -0.469957
O18   O     O_3   0.064004 0.852158 0.262771 -0.612666
O19   O     O_2   0.361790 0.564680 0.722290 -0.496092
O20   O     O_3   0.089410 0.561080 0.608830 -0.447979
O21   O     O_3   0.564100 0.365890 0.666740 -0.423815
O22   O     O_3   0.216792 0.736441 0.740673 -0.660974
O23   O     O_3   0.601940 0.368260 0.453780 -0.392175
O24   O     O_3   0.133140 0.308990 0.620990 -0.424706
P1    P     P_3+3 0.998770 0.403620 0.291990 1.037864
P2    P     P_3+3 0.687370 0.751000 0.571300 0.987910
P3    P     P_3+3 0.106699 0.828920 0.376280 1.036347
P4    P     P_3+3 0.190950 0.596470 0.708020 0.982759
P5    P     P_3+3 0.082206 0.167951 0.618272 1.045955
P6    P     P_3+3 0.580733 0.618200 0.212941 1.009180
P7    P     P_3+3 0.508355 0.232058 0.429089 1.000396
P8    P     P_3+3 0.607047 0.380906 0.786140 1.013346

loop_
_geom_bond_atom_site_label_1
_geom_bond_atom_site_label_2
_ccdc_geom_bond_type
H40   N2    S    
C27   P5    S    
C14   H27   S    
C23   H8    S    
C34   H11   S    
C29   H32   S    
O3    P5    S    
C4    H24   S    
C24   C25   A    
C28   Cl6   S    
C33   C35   S    
C22   C24   A    
C20   H31   S    
Ba1   Ba2   S    
C34   H10   S    
C8    C13   A    
C31   H43   S    
Ba1   O16   S    
Ba1   O23   S    
C36   C37   S    
C12   H1    S    
Ba2   O6    S    
C35   N1    S    
O4    P1    S    
Ba2   O19   S    
Ba1   P2    S    
C4    O18   S    
O1    P1    D    
C33   O12   S    
C15   C40   A    
C1    H7    S    
O2    P5    D    
C6    C7    A    
C39   H22   S    
C38   H19   S    
H39   N1    S    
C16   H36   S    
C39   Cl4   S    
C32   H45   S    
Ba1   O20   S    
C5    P8    S    
O7    P7    S    
C7    C8    A    
C26   P7    S    
Ba1   O10   S    
C37   Cl3   S    
C35   H5    S    
Ba2   O4    S    
C24   C29   A    
C4    H33   S    
O15   P2    D    
C15   H25   S    
C37   H17   S    
Ba2   O20   S    
Ba1   O4    S    
Ba2   O21   S    
C16   H35   S    
C30   H23   S    
C36   H16   S    
C18   C27   A    
C1    H13   S    
C4    C16   S    
C17   P4    S    
C10   C40   A    
C5    C6    A    
O16   P3    S    
O6    P7    D    
Ba1   O1    S    
C3    C5    A    
Ba2   O24   S    
O24   P5    S    
C16   H14   S    
C21   P3    S    
C18   C26   A    
Ba2   O5    S    
C2    C14   A    
C9    C14   A    
O17   P3    D    
C8    C17   A    
Ba2   O23   S    
C33   H2    S    
C22   P2    S    
C31   C32   S    
O22   P4    S    
C11   H26   S    
C28   H37   S    
C7    C9    A    
C1    C12   S    
O14   P6    S    
C2    C15   A    
C38   C39   S    
C34   H9    S    
C20   C25   A    
C11   C13   A    
C33   H3    S    
C6    H29   S    
C37   H18   S    
C31   O13   S    
O18   P3    S    
Ba1   O5    S    
C30   H34   S    
C39   H21   S    
C36   H15   S    
C12   O14   S    
O19   P4    D    
O20   P4    S    
O9    P8    S    
C23   O7    S    
C32   H46   S    
O11   P6    D    
O12   P2    S    
C36   O3    S    
C1    H4    S    
C3    C17   A    
C19   N2    S    
Ba2   P4    S    
C35   H6    S    
O10   P6    S    
O5    P2    S    
C3    H28   S    
C19   C21   A    
C27   C29   A    
C31   H42   S    
Ba1   O15   S    
C28   C30   S    
O13   P1    S    
H41   N2    S    
C2    P1    S    
O8    P8    D    
C23   Cl2   S    
O21   P8    S    
Ba1   P1    S    
C18   Cl5   S    
H38   N1    S    
C40   P6    S    
C23   C34   S    
C13   H30   S    
C10   C11   A    
C38   H20   S    
C19   C22   A    
C28   O22   S    
C25   C26   A    
C30   H12   S    
C20   C21   A    
C38   O9    S    
C9    C10   A    
C12   Cl1   S    
C32   H44   S    
O23   P7    S    
