data_mof_unit_39988.cif
_audit_creation_date              2012-12-10T20:32:00-0500
_audit_creation_method            fapswitch 2.2
_symmetry_space_group_name_H-M    P1
_symmetry_Int_Tables_number       1
_space_group_crystal_system       triclinic
_cell_length_a                    9.867885
_cell_length_b                    10.684578
_cell_length_c                    15.549001
_cell_angle_alpha                 90.206714
_cell_angle_beta                  67.807253
_cell_angle_gamma                 89.678893
_cell_volume                      1517.89433999

loop_
_atom_site_label
_atom_site_type_symbol
_atom_type_description
_atom_site_fract_x
_atom_site_fract_y
_atom_site_fract_z
_atom_type_partial_charge
C1    C     C_R   0.501516 0.740113 0.497084 0.877070
C2    C     C_R   0.422682 0.451100 0.908895 0.108055
C3    C     C_R   0.288574 0.390967 0.958230 0.120432
C4    C     C_R   0.530825 0.460606 0.947949 0.071468
C5    C     C_R   0.493645 0.428984 0.042300 0.068217
C6    C     C_R   0.357538 0.370468 0.090641 -0.223099
C7    C     C_R   0.257873 0.350333 0.048539 -0.218081
C8    C     C_R   0.676400 0.496174 0.894717 -0.198437
C9    C     C_R   0.778617 0.512322 0.935216 -0.194259
C10   C     C_R   0.738115 0.496630 0.030319 0.164167
C11   C     C_R   0.594452 0.456712 0.084794 0.092455
C12   C     C_R   0.408142 0.495250 0.675935 0.911816
C13   C     C_R   0.838170 0.523817 0.072225 -0.205223
C14   C     C_R   0.793612 0.520353 0.168562 -0.201355
C15   C     C_R   0.552406 0.454955 0.181052 -0.259778
C16   C     C_R   0.389140 0.937022 0.480177 0.138783
C17   C     C_R   0.510391 0.871442 0.481778 -0.099844
C18   C     C_R   0.642345 0.934365 0.465212 -0.222288
C19   C     C_R   0.642820 0.063844 0.464977 -0.219702
C20   C     C_R   0.511377 0.128624 0.481239 -0.100708
C21   C     C_R   0.389715 0.064785 0.479729 0.105956
C22   C     C_3   0.233088 0.073949 0.544461 -0.429947
C23   C     C_R   0.502248 0.259970 0.496774 0.892056
C24   C     C_3   0.232766 0.932285 0.545432 -0.501715
C25   C     C_R   0.908313 0.600970 0.533369 0.213483
C26   C     C_R   0.953244 0.405973 0.458698 -0.131782
C27   C     C_R   0.097319 0.406136 0.458471 -0.109159
C28   C     C_R   0.050214 0.600197 0.534545 0.214259
C29   C     C_3   0.995359 0.647832 0.632130 -0.504225
C30   C     C_3   0.843377 0.651512 0.629600 -0.508266
C31   C     C_R   0.591473 0.498059 0.324146 0.860862
C32   C     C_R   0.351390 0.471534 0.776102 -0.126897
C33   C     C_R   0.648760 0.490049 0.223058 -0.055310
C34   C     C_R   0.188554 0.369222 0.915524 -0.249325
C35   C     C_R   0.221743 0.404149 0.823354 0.250215
C36   C     C_R   0.444439 0.500596 0.821836 -0.303042
H1    H     H_    0.156087 0.303107 0.087025 0.149232
H2    H     H_    0.948939 0.552153 0.030801 0.148850
H3    H     H_    0.741652 0.884790 0.459168 0.168849
H4    H     H_    0.742286 0.112095 0.458865 0.164962
H5    H     H_    0.219201 0.116493 0.612699 0.242823
H6    H     H_    0.162226 0.114514 0.510380 0.197958
H7    H     H_    0.220086 0.893007 0.614164 0.204759
H8    H     H_    0.161199 0.891065 0.512247 0.203203
H9    H     H_    0.918488 0.328931 0.426811 0.137645
H10   H     H_    0.171195 0.329410 0.426158 0.136276
H11   H     H_    0.007049 0.577964 0.681673 0.248887
H12   H     H_    0.441403 0.433730 0.225300 0.155458
H13   H     H_    0.036841 0.742092 0.638262 0.197042
H14   H     H_    0.767316 0.584447 0.677497 0.216469
H15   H     H_    0.799188 0.747911 0.631759 0.202440
H16   H     H_    0.870117 0.546033 0.200360 0.159238
H17   H     H_    0.888396 0.541467 0.892386 0.175162
H18   H     H_    0.087877 0.319462 0.952249 0.175776
H19   H     H_    0.536087 0.560529 0.787155 0.152672
H20   H     H_    0.327551 0.333942 0.159880 0.140377
H21   H     H_    0.715759 0.507732 0.820711 0.157914
N1    N     N_R   0.856900 0.500860 0.500610 -0.101264
N2    N     N_R   0.142540 0.500820 0.500610 -0.091852
O1    O     O_R   0.385310 0.683210 0.499990 -0.614455
O2    O     O_R   0.614650 0.683240 0.500000 -0.624121
O3    O     O_R   0.319830 0.499970 0.632240 -0.570491
O4    O     O_R   0.549170 0.500000 0.632250 -0.615229
O5    O     O_R   0.385350 0.316760 0.500000 -0.608295
O6    O     O_R   0.614690 0.316790 0.500010 -0.623955
O7    O     O_R   0.450830 0.500000 0.367750 -0.622412
O8    O     O_R   0.680170 0.500030 0.367760 -0.620205
Zn1   Zn    Zn3+2 0.346870 0.499980 0.499990 0.968156
Zn2   Zn    Zn3+2 0.653130 0.500020 0.500010 0.945235
Br1   Br    Br    0.092819 0.345886 0.765288 -0.583954

loop_
_geom_bond_atom_site_label_1
_geom_bond_atom_site_label_2
_ccdc_geom_bond_type
C31   O7    A    
O7    Zn1   S    
C18   H3    S    
C31   C33   S    
N1    Zn2   S    
C5    C11   A    
C29   C30   S    
N2    Zn1   S    
C12   O3    A    
C9    C10   A    
C1    C17   S    
C19   C20   A    
C26   H9    S    
C20   C23   S    
O3    Zn1   S    
C4    C8    A    
C23   O6    A    
C14   C33   A    
C2    C3    A    
C7    H1    S    
C16   C24   S    
C36   H19   S    
C29   H13   S    
C21   C22   S    
C12   C32   S    
C25   C28   A    
C31   O8    A    
C26   N1    A    
C28   C29   S    
C13   H2    S    
C22   H6    S    
C11   C15   A    
C15   H12   S    
C29   H11   S    
O6    Zn2   S    
C2    C4    A    
O5    Zn1   S    
C27   H10   S    
C23   O5    A    
C30   H15   S    
C34   H18   S    
C6    C7    A    
C3    C7    A    
C10   C11   A    
C26   C27   A    
C5    C6    A    
C24   H8    S    
C16   C17   A    
C22   C24   S    
C28   N2    A    
C22   H5    S    
C9    H17   S    
C25   N1    A    
C2    C36   A    
C32   C35   A    
C32   C36   A    
C18   C19   A    
C20   C21   A    
O1    Zn1   S    
C17   C18   A    
C34   C35   A    
C19   H4    S    
C1    O1    A    
O2    Zn2   S    
C25   C30   S    
C12   O4    A    
C24   H7    S    
C4    C5    A    
C27   N2    A    
C3    C34   A    
C30   H14   S    
C13   C14   A    
C16   C21   A    
C15   C33   A    
C8    H21   S    
C14   H16   S    
O4    Zn2   S    
C35   Br1   S    
C6    H20   S    
C8    C9    A    
O8    Zn2   S    
C10   C13   A    
C1    O2    A    
