data_mof_unit_21530.cif
_audit_creation_date              2012-12-10T17:55:30-0500
_audit_creation_method            fapswitch 2.2
_symmetry_space_group_name_H-M    P1
_symmetry_Int_Tables_number       1
_space_group_crystal_system       triclinic
_cell_length_a                    10.717864
_cell_length_b                    9.613625
_cell_length_c                    10.922894
_cell_angle_alpha                 89.942596
_cell_angle_beta                  91.41802
_cell_angle_gamma                 89.689008
_cell_volume                      1125.10599876

loop_
_atom_site_label
_atom_site_type_symbol
_atom_type_description
_atom_site_fract_x
_atom_site_fract_y
_atom_site_fract_z
_atom_type_partial_charge
C1    C     C_R   0.262578 0.500471 0.499536 0.782071
C2    C     C_R   0.737429 0.499983 0.499493 0.778754
C3    C     C_R   0.498465 0.500339 0.265414 0.842606
C4    C     C_R   0.501317 0.500200 0.734573 0.842340
C5    C     C_2   0.487988 0.389979 0.933660 -0.178107
C6    C     C_2   0.506634 0.389307 0.066332 -0.175625
C7    C     C_2   0.511264 0.502840 0.866831 -0.311298
C8    C     C_2   0.488233 0.503491 0.133147 -0.314630
C9    C     C_R   0.067554 0.468196 0.606923 -0.203163
C10   C     C_R   0.938181 0.470560 0.607204 -0.173303
C11   C     C_R   0.871275 0.501229 0.499304 -0.003593
C12   C     C_R   0.128790 0.502283 0.499714 0.013398
C13   C     C_R   0.932436 0.538355 0.392688 -0.196425
C14   C     C_R   0.061952 0.540038 0.393198 -0.168132
C15   C     C_R   0.410308 0.072253 0.435220 0.072574
C16   C     C_R   0.589260 0.070863 0.565045 0.071896
C17   C     C_R   0.411693 0.924726 0.435486 -0.058770
C18   C     C_R   0.588098 0.923406 0.564436 -0.054455
Cu1   Cu    Cu3+1 0.500000 0.640660 0.500000 0.939338
Cu2   Cu    Cu3+1 0.500000 0.359340 0.500000 0.949457
H1    H     H_    0.457150 0.294350 0.890689 0.154221
H2    H     H_    0.533248 0.291712 0.109289 0.156209
H3    H     H_    0.542996 0.598934 0.909023 0.148572
H4    H     H_    0.460040 0.601338 0.090919 0.148624
H5    H     H_    0.119756 0.441505 0.689960 0.121695
H6    H     H_    0.890032 0.448455 0.690924 0.144665
H7    H     H_    0.880074 0.564886 0.309720 0.125463
H8    H     H_    0.109982 0.567605 0.310545 0.125045
H9    H     H_    0.341125 0.867926 0.383751 0.133164
H10   H     H_    0.658037 0.865488 0.616894 0.137894
N1    N     N_R   0.500000 0.852070 0.500000 -0.170388
N2    N     N_R   0.500000 0.147940 0.500000 -0.193122
O1    O     O_R   0.319640 0.618740 0.499990 -0.584741
O2    O     O_R   0.680360 0.618740 0.500010 -0.582416
O3    O     O_R   0.319620 0.381170 0.499990 -0.575122
O4    O     O_R   0.680380 0.381170 0.500010 -0.577011
O5    O     O_R   0.500000 0.618750 0.321940 -0.585747
O6    O     O_R   0.500000 0.618750 0.678060 -0.583013
O7    O     O_R   0.499970 0.381180 0.321940 -0.575661
O8    O     O_R   0.500030 0.381180 0.678060 -0.579136
C19   C     C_R   0.307790 0.137271 0.363241 0.155779
C20   C     C_R   0.188807 0.149594 0.413472 -0.134329
C21   C     C_R   0.087897 0.198057 0.341540 -0.131686
C22   C     C_R   0.104349 0.230803 0.218311 -0.131227
C23   C     C_R   0.220977 0.211626 0.166208 -0.153670
C24   C     C_R   0.321573 0.162001 0.237936 -0.127607
H11   H     H_    0.174922 0.122766 0.508408 0.113635
H12   H     H_    0.997104 0.210552 0.381315 0.138234
H13   H     H_    0.026289 0.268688 0.162782 0.122847
H14   H     H_    0.232881 0.232700 0.069845 0.130662
H15   H     H_    0.409284 0.138854 0.195737 0.109019
C25   C     C_R   0.688492 0.132825 0.642192 0.160993
C26   C     C_R   0.811556 0.132724 0.600790 -0.145635
C27   C     C_R   0.911315 0.158072 0.682538 -0.146546
C28   C     C_R   0.888991 0.185364 0.805753 -0.142157
C29   C     C_R   0.767094 0.183139 0.848024 -0.153453
C30   C     C_R   0.667831 0.152995 0.767123 -0.127334
H16   H     H_    0.830247 0.107788 0.506331 0.117695
H17   H     H_    0.005917 0.156896 0.650421 0.132234
H18   H     H_    0.966241 0.206131 0.868681 0.123699
H19   H     H_    0.749970 0.199772 0.944170 0.132504
H20   H     H_    0.575738 0.137652 0.802381 0.112213

loop_
_geom_bond_atom_site_label_1
_geom_bond_atom_site_label_2
_ccdc_geom_bond_type
C22   H13   S    
C26   H16   S    
C15   C17   A    
C18   H10   S    
Cu1   O6    S    
C16   N2    A    
C17   H9    S    
C21   H12   S    
C29   C30   A    
Cu1   Cu2   S    
Cu2   O8    S    
C21   C22   A    
Cu1   N1    S    
C10   H6    S    
C28   C29   A    
C12   C14   A    
C9    H5    S    
C30   H20   S    
C29   H19   S    
C26   C27   A    
C25   C26   A    
C11   C13   A    
C1    O3    A    
C16   C25   S    
C19   C24   A    
C23   H14   S    
C28   H18   S    
C4    C7    S    
C7    H3    S    
C2    C11   S    
C9    C10   A    
C20   H11   S    
C8    H4    S    
C4    O6    A    
C27   H17   S    
Cu2   N2    S    
C5    C6    S    
C17   N1    A    
C9    C12   A    
C10   C11   A    
C15   C19   S    
C1    O1    A    
C25   C30   A    
Cu2   O4    S    
C23   C24   A    
C15   N2    A    
C5    H1    S    
C22   C23   A    
C3    O5    A    
C16   C18   A    
C3    C8    S    
C19   C20   A    
C2    O4    A    
C5    C7    D    
Cu2   O7    S    
C27   C28   A    
C13   H7    S    
C6    C8    D    
C18   N1    A    
Cu1   O5    S    
C14   H8    S    
C2    O2    A    
C13   C14   A    
Cu2   O3    S    
C24   H15   S    
C1    C12   S    
C3    O7    A    
C4    O8    A    
C20   C21   A    
Cu1   O1    S    
Cu1   O2    S    
C6    H2    S    
