data_mof_unit_25935.cif
_audit_creation_date              2012-12-10T16:48:40-0500
_audit_creation_method            fapswitch 2.2
_symmetry_space_group_name_H-M    P1
_symmetry_Int_Tables_number       1
_space_group_crystal_system       triclinic
_cell_length_a                    7.765224
_cell_length_b                    8.585969
_cell_length_c                    10.732922
_cell_angle_alpha                 88.355002
_cell_angle_beta                  99.14617
_cell_angle_gamma                 93.382307
_cell_volume                      705.120884589

loop_
_atom_site_label
_atom_site_type_symbol
_atom_type_description
_atom_site_fract_x
_atom_site_fract_y
_atom_site_fract_z
_atom_type_partial_charge
C1    C     C_R   0.544636 0.794768 0.496731 0.971973
C2    C     C_2   0.431723 0.041856 0.504858 -0.391076
C3    C     C_3   0.217170 0.702804 0.075432 -0.251531
C4    C     C_3   0.847935 0.311224 0.928110 -0.262838
C5    C     C_R   0.455320 0.205225 0.503150 0.950628
C6    C     C_R   0.571422 0.485061 0.736283 0.816741
C7    C     C_R   0.426421 0.503651 0.263545 0.792703
C8    C     C_2   0.608091 0.450519 0.870921 0.326536
C9    C     C_2   0.380548 0.490567 0.127432 0.329462
C10   C     C_2   0.470933 0.423923 0.931959 -0.252884
C11   C     C_2   0.493361 0.421597 0.067532 -0.229619
C12   C     C_2   0.568178 0.958149 0.494873 -0.395466
H1    H     H_    0.614206 0.378283 0.118280 0.188562
H2    H     H_    0.859790 0.283151 0.829411 0.163402
H3    H     H_    0.768581 0.217100 0.969724 0.132948
H4    H     H_    0.981016 0.314066 0.983924 0.225545
H5    H     H_    0.337545 0.419454 0.881887 0.200347
H6    H     H_    0.697194 0.009055 0.485375 0.180241
H7    H     H_    0.302700 0.990955 0.514340 0.180783
H8    H     H_    0.985383 0.384687 0.407341 0.196355
H9    H     H_    0.014615 0.615288 0.592675 0.199093
H10   H     H_    0.336543 0.767242 0.051062 0.135681
H11   H     H_    0.196811 0.731730 0.172083 0.169297
H12   H     H_    0.103929 0.743801 0.008793 0.202234
N1    N     N_2   0.940600 0.458860 0.467170 -0.171293
N2    N     N_2   0.059400 0.541140 0.532830 -0.171536
O1    O     O_R   0.391630 0.738350 0.508060 -0.608612
O2    O     O_3   0.778275 0.458333 0.934405 -0.578658
O3    O     O_R   0.608370 0.261650 0.491940 -0.615347
O4    O     O_R   0.674540 0.711990 0.487010 -0.622467
O5    O     O_R   0.325460 0.288010 0.512990 -0.631232
O6    O     O_R   0.411370 0.508250 0.688780 -0.637870
O7    O     O_R   0.588630 0.491750 0.311220 -0.631107
O8    O     O_R   0.694270 0.481880 0.667740 -0.598750
O9    O     O_R   0.305730 0.518120 0.332260 -0.597911
O10   O     O_3   0.223649 0.540377 0.062214 -0.596481
Zn1   Zn    Zn3+2 0.311100 0.517600 0.514050 0.940261
Zn2   Zn    Zn3+2 0.688900 0.482400 0.485950 0.941887

loop_
_geom_bond_atom_site_label_1
_geom_bond_atom_site_label_2
_ccdc_geom_bond_type
O3    Zn2   S    
C4    H4    S    
C9    O10   S    
C6    O6    A    
H9    N2    S    
N2    Zn1   S    
N1    Zn2   S    
C9    C11   D    
C3    H11   S    
O7    Zn2   S    
C2    C12   D    
C4    H3    S    
N1    N2    D    
O6    Zn1   S    
C7    O7    A    
C3    H12   S    
C1    C12   S    
C3    O10   S    
O1    Zn1   S    
C1    O4    A    
C4    O2    S    
C5    O3    A    
C4    H2    S    
C8    O2    S    
C2    C5    S    
C10   C11   S    
C10   H5    S    
C7    C9    S    
C11   H1    S    
O4    Zn2   S    
C8    C10   D    
H8    N1    S    
C12   H6    S    
C1    O1    A    
C3    H10   S    
C6    C8    S    
O9    Zn1   S    
C2    H7    S    
O8    Zn2   S    
C7    O9    A    
C6    O8    A    
O5    Zn1   S    
C5    O5    A    
