data_mof_unit_49562.cif
_audit_creation_date              2012-10-26T17:12:31-0400
_audit_creation_method            fapswitch 2.2
_symmetry_space_group_name_H-M    P1
_symmetry_Int_Tables_number       1
_space_group_crystal_system       triclinic
_cell_length_a                    16.791801
_cell_length_b                    16.742167
_cell_length_c                    16.831446
_cell_angle_alpha                 68.108412
_cell_angle_beta                  68.040991
_cell_angle_gamma                 68.273756
_cell_volume                      3922.99068881

loop_
_atom_site_label
_atom_site_type_symbol
_atom_type_description
_atom_site_fract_x
_atom_site_fract_y
_atom_site_fract_z
_atom_type_partial_charge
C1    C     C_R   0.027398 0.828196 0.564655 0.805843
C2    C     C_R   0.015581 0.569133 0.830914 0.870007
C3    C     C_R   0.171421 0.974083 0.434781 0.795345
C4    C     C_R   0.828261 0.027130 0.564789 0.805235
C5    C     C_R   0.507152 0.932278 0.742813 -0.156574
C6    C     C_R   0.549175 0.927691 0.292340 -0.155709
C7    C     C_R   0.041172 0.707707 0.460550 -0.143777
C8    C     C_R   0.915395 0.298030 0.549283 -0.159317
C9    C     C_R   0.707015 0.450169 0.074251 -0.162445
C10   C     C_R   0.255937 0.493106 0.068735 -0.157285
C11   C     C_R   0.297519 0.917131 0.549204 -0.158536
C12   C     C_R   0.973987 0.171457 0.434846 0.796265
C13   C     C_R   0.708255 0.040164 0.460549 -0.144338
C14   C     C_R   0.538482 0.292802 0.960583 -0.145315
C15   C     C_R   0.450405 0.701839 0.085407 -0.163150
C16   C     C_R   0.927601 0.549845 0.292297 -0.163292
C17   C     C_R   0.931964 0.507318 0.743042 -0.155262
C18   C     C_R   0.562230 0.968578 0.557799 0.041644
C19   C     C_R   0.468133 0.941693 0.465557 0.043646
C20   C     C_R   0.968109 0.562479 0.558004 0.041229
C21   C     C_R   0.940504 0.468782 0.465787 0.044050
C22   C     C_R   0.533523 0.531161 0.060990 0.043952
C23   C     C_R   0.828704 0.565288 0.025820 0.825885
C24   C     C_R   0.441100 0.437629 0.033432 0.041291
C25   C     C_R   0.596508 0.977549 0.465383 0.037618
C26   C     C_R   0.433520 0.931061 0.558290 0.037201
C27   C     C_R   0.936857 0.485095 0.606048 0.040620
C28   C     C_R   0.953255 0.554912 0.422364 0.041754
C29   C     C_R   0.440740 0.565824 0.071649 0.038938
C30   C     C_R   0.533591 0.403421 0.024345 0.037790
C31   C     C_R   0.554318 0.953918 0.422151 0.040923
C32   C     C_R   0.484598 0.937936 0.605775 0.040212
C33   C     C_R   0.393119 0.514999 0.064313 0.039775
C34   C     C_R   0.168607 0.430569 0.985610 0.856840
C35   C     C_R   0.576821 0.445107 0.048515 0.040580
C36   C     C_R   0.929564 0.434152 0.558560 0.037651
C37   C     C_R   0.977298 0.596785 0.465556 0.037840
C38   C     C_R   0.461472 0.915486 0.699212 -0.194637
C39   C     C_R   0.596425 0.939221 0.337698 -0.209648
C40   C     C_R   0.016536 0.667928 0.417581 -0.213616
C41   C     C_R   0.912304 0.349730 0.599632 -0.201621
C42   C     C_R   0.661309 0.402804 0.063063 -0.214926
C43   C     C_R   0.299606 0.538410 0.086093 -0.201307
C44   C     C_R   0.349072 0.914279 0.599404 -0.200029
C45   C     C_R   0.569107 0.015568 0.830952 0.846897
C46   C     C_R   0.668148 0.015969 0.417534 -0.211886
C47   C     C_R   0.581602 0.332692 0.984974 -0.212063
C48   C     C_R   0.399799 0.650166 0.088661 -0.208652
C49   C     C_R   0.939019 0.597146 0.337806 -0.215429
C50   C     C_R   0.914563 0.461912 0.699493 -0.195563
C51   C     C_R   0.574070 0.977953 0.695291 -0.022657
C52   C     C_R   0.455577 0.942819 0.324206 -0.016615
C53   C     C_R   0.022380 0.682340 0.553966 0.018729
C54   C     C_R   0.938545 0.326931 0.455274 0.005169
C55   C     C_R   0.675334 0.543951 0.058831 -0.018229
C56   C     C_R   0.434650 0.974225 0.171235 0.843993
C57   C     C_R   0.303559 0.426003 0.023691 -0.006688
C58   C     C_R   0.326494 0.939655 0.455192 0.005769
C59   C     C_R   0.682695 0.021755 0.553974 0.018598
C60   C     C_R   0.444911 0.317526 0.980008 -0.007084
C61   C     C_R   0.544480 0.673010 0.062188 0.004456
C62   C     C_R   0.942339 0.456068 0.324231 -0.017213
C63   C     C_R   0.977917 0.574070 0.695412 -0.022988
C64   C     C_R   0.610284 0.011703 0.736972 -0.161712
C65   C     C_R   0.400034 0.960537 0.269389 -0.170805
C66   C     C_R   0.036114 0.730002 0.600239 -0.245119
C67   C     C_R   0.435013 0.171634 0.973693 0.848336
C68   C     C_R   0.960834 0.270067 0.399801 -0.216948
C69   C     C_R   0.730544 0.599870 0.039854 -0.165212
C70   C     C_R   0.261677 0.388739 0.991478 -0.202224
C71   C     C_R   0.269912 0.961194 0.399773 -0.216177
C72   C     C_R   0.730245 0.035488 0.600383 -0.243027
C73   C     C_R   0.398171 0.268785 0.968276 -0.173144
C74   C     C_R   0.600218 0.729984 0.039248 -0.212548
C75   C     C_R   0.960353 0.400219 0.269397 -0.165104
C76   C     C_R   0.011868 0.610233 0.736963 -0.161658
C77   C     C_R   0.686653 0.043172 0.687755 0.339865
C78   C     C_R   0.565166 0.828512 0.025999 0.781924
C79   C     C_R   0.307276 0.978226 0.306698 0.314791
C80   C     C_R   0.043593 0.686545 0.687629 0.343246
C81   C     C_R   0.978255 0.307288 0.306686 0.314996
C82   C     C_R   0.693483 0.692890 0.021425 0.315534
C83   C     C_R   0.309522 0.309237 0.965590 0.310564
C84   C     C_R   0.606094 0.989899 0.602365 0.076133
C85   C     C_R   0.416447 0.941552 0.414930 0.074737
C86   C     C_R   0.989936 0.606036 0.602483 0.076453
C87   C     C_R   0.940518 0.417012 0.415061 0.074533
C88   C     C_R   0.584465 0.582940 0.060689 0.074607
C89   C     C_R   0.974141 0.434688 0.171291 0.823531
C90   C     C_R   0.396494 0.393909 0.012002 0.075959
Cu1   Cu    Cu3+1 0.995180 0.995180 0.424630 0.974588
Cu2   Cu    Cu3+1 0.004820 0.004820 0.575370 0.973532
Cu3   Cu    Cu3+1 0.995180 0.424630 0.995180 0.976260
Cu4   Cu    Cu3+1 0.004820 0.575370 0.004820 0.996792
Cu5   Cu    Cu3+1 0.424630 0.995180 0.995180 0.982939
Cu6   Cu    Cu3+1 0.575370 0.004820 0.004820 0.983218
H1    H     H_    0.489631 0.906864 0.814311 0.172031
H2    H     H_    0.413384 0.763779 0.102695 0.178110
H3    H     H_    0.907627 0.589084 0.232383 0.180283
H4    H     H_    0.906838 0.489725 0.814574 0.171753
H5    H     H_    0.409559 0.882566 0.740528 0.137605
H6    H     H_    0.666950 0.933086 0.307329 0.140696
H7    H     H_    0.033404 0.690444 0.345668 0.138979
H8    H     H_    0.899417 0.320229 0.670585 0.138407
H9    H     H_    0.691492 0.332189 0.068980 0.141318
H10   H     H_    0.258241 0.590209 0.118891 0.135179
H11   H     H_    0.319497 0.901810 0.670335 0.140825
H12   H     H_    0.588341 0.907134 0.232632 0.178746
H13   H     H_    0.690848 0.032610 0.345632 0.141681
H14   H     H_    0.653616 0.310534 0.967989 0.139985
H15   H     H_    0.328812 0.679672 0.101428 0.137605
H16   H     H_    0.933342 0.667766 0.307414 0.141193
H17   H     H_    0.881405 0.410124 0.740853 0.134744
H18   H     H_    0.745855 0.127380 0.678584 0.317629
H19   H     H_    0.211716 0.073063 0.266268 0.314552
H20   H     H_    0.127520 0.746056 0.678300 0.319050
H21   H     H_    0.073374 0.211470 0.266564 0.313696
H22   H     H_    0.732918 0.789568 0.926219 0.325260
H23   H     H_    0.078814 0.755803 0.418608 0.169109
H24   H     H_    0.230622 0.240263 0.990890 0.345674
H25   H     H_    0.897903 0.236031 0.586467 0.170932
H26   H     H_    0.766957 0.411118 0.094332 0.180054
H27   H     H_    0.184293 0.510627 0.093686 0.171481
H28   H     H_    0.235634 0.899768 0.586611 0.172655
H29   H     H_    0.756633 0.077382 0.418522 0.170425
H30   H     H_    0.580434 0.244971 0.922993 0.176811
O1    O     O_R   0.124540 0.978640 0.385460 -0.547709
O2    O     O_R   0.124540 0.385460 0.978640 -0.549404
O3    O     O_R   0.021360 0.875460 0.614540 -0.551132
O4    O     O_R   0.978640 0.124540 0.385460 -0.547325
O5    O     O_R   0.013780 0.867370 0.487190 -0.592389
O6    O     O_R   0.986220 0.132630 0.512810 -0.601704
O7    O     O_R   0.867370 0.487190 0.013780 -0.634833
O8    O     O_R   0.132630 0.512810 0.986220 -0.599518
O9    O     O_R   0.487190 0.013780 0.867370 -0.606521
O10   O     O_R   0.512810 0.986220 0.132630 -0.616858
O11   O     O_R   0.512810 0.132630 0.986220 -0.606221
O12   O     O_R   0.875460 0.021360 0.614540 -0.551767
O13   O     O_R   0.487190 0.867370 0.013780 -0.619365
O14   O     O_R   0.986220 0.512810 0.132630 -0.636319
O15   O     O_R   0.013780 0.487190 0.867370 -0.607490
O16   O     O_R   0.132630 0.986220 0.512810 -0.602142
O17   O     O_R   0.867370 0.013780 0.487190 -0.592967
O18   O     O_3   0.717489 0.081612 0.726236 -0.695195
O19   O     O_3   0.253217 0.017814 0.250043 -0.685455
O20   O     O_3   0.081983 0.717493 0.726026 -0.688513
O21   O     O_3   0.018454 0.252986 0.249991 -0.686804
O22   O     O_3   0.750472 0.747298 0.980411 -0.679771
O23   O     O_R   0.978640 0.385460 0.124540 -0.526207
O24   O     O_3   0.270267 0.270448 0.936454 -0.679680
O25   O     O_R   0.021360 0.614540 0.875460 -0.505612
O26   O     O_R   0.385460 0.124540 0.978640 -0.537337
O27   O     O_R   0.614540 0.875460 0.021360 -0.552382
O28   O     O_R   0.614540 0.021360 0.875460 -0.519522
O29   O     O_R   0.385460 0.978640 0.124540 -0.522355
O30   O     O_R   0.875460 0.614540 0.021360 -0.522726

loop_
_geom_bond_atom_site_label_1
_geom_bond_atom_site_label_2
_ccdc_geom_bond_type
C25   C31   A    
C21   C87   A    
C26   C32   A    
Cu3   Cu4   S    
C65   C79   A    
C22   C29   A    
Cu4   O14   S    
C64   C77   A    
C23   C69   S    
Cu3   O23   S    
Cu5   Cu6   S    
Cu3   O15   S    
Cu2   O12   S    
C78   O13   A    
C4    O17   A    
C71   C79   A    
C26   C44   A    
C66   C80   A    
C79   O19   S    
Cu1   O4    S    
C22   C35   A    
C12   C68   S    
C9    C42   A    
Cu1   O1    S    
C30   C35   A    
C68   C81   A    
C52   C85   A    
Cu2   O6    S    
C38   H5    S    
C1    O3    A    
C54   C87   A    
C3    O1    A    
C58   C71   A    
Cu1   O5    S    
C63   C76   A    
C34   O8    A    
C56   C65   S    
C29   C33   A    
C60   C73   A    
C55   C88   A    
C35   C42   A    
C19   C26   A    
C69   C82   A    
Cu6   O28   S    
C11   H28   S    
C81   O21   S    
C20   C86   A    
C18   C84   A    
C7    C40   A    
C53   C86   A    
C9    C55   A    
C32   C38   A    
C57   C70   A    
C11   C58   A    
Cu2   O16   S    
C34   C70   S    
C27   C50   A    
C59   C72   A    
H24   O24   S    
C83   O24   S    
C13   H29   S    
C80   O20   S    
C67   O26   A    
C19   C31   A    
C17   H4    S    
C5    C38   A    
C36   C41   A    
C3    O16   A    
C16   C62   A    
C15   C48   A    
C74   C82   A    
C56   O29   A    
C56   O10   A    
C24   C33   A    
C9    H26   S    
Cu1   O17   S    
C45   O9    A    
C57   C90   A    
C23   O7    A    
C29   C48   A    
C33   C43   A    
C7    H23   S    
C30   C47   A    
C10   C57   A    
C8    C41   A    
Cu6   O10   S    
C10   H27   S    
C8    C54   A    
Cu1   Cu2   S    
C21   C36   A    
C75   C81   A    
C1    O5    A    
Cu4   O25   S    
Cu5   O26   S    
C43   H10   S    
H18   O18   S    
C3    C71   S    
C72   C77   A    
C70   C83   A    
C61   C88   A    
C28   C49   A    
Cu6   O27   S    
C89   O14   A    
Cu5   O9    S    
C1    C66   S    
C15   C61   A    
C11   C44   A    
C78   O27   A    
C16   C49   A    
C53   C66   A    
C55   C69   A    
C12   O4    A    
C49   H16   S    
C67   C73   S    
Cu4   O30   S    
C21   C28   A    
C5    H1    S    
C22   C88   A    
C63   C86   A    
C61   C74   A    
C62   C75   A    
C18   C32   A    
C7    C53   A    
C15   H2    S    
C58   C85   A    
C4    C72   S    
C2    C76   S    
C39   H6    S    
C44   H11   S    
C2    O25   A    
C12   O6    A    
C10   C43   A    
Cu5   O13   S    
Cu6   O11   S    
C51   C64   A    
C76   C80   A    
C19   C85   A    
C24   C90   A    
C17   C50   A    
C82   O22   S    
C16   H3    S    
C14   C47   A    
C13   C59   A    
C20   C27   A    
C60   C90   A    
C27   C36   A    
C37   C40   A    
C47   H14   S    
C14   C60   A    
C62   C87   A    
H19   O19   S    
C45   C64   S    
Cu3   O7    S    
C59   C84   A    
C14   H30   S    
C41   H8    S    
H21   O21   S    
C50   H17   S    
H22   O22   S    
Cu2   O3    S    
Cu3   O2    S    
C18   C25   A    
C17   C63   A    
C40   H7    S    
H20   O20   S    
C20   C37   A    
C13   C46   A    
C28   C37   A    
C51   C84   A    
C89   O23   A    
Cu4   O8    S    
C31   C39   A    
Cu5   O29   S    
C67   O11   A    
C42   H9    S    
C24   C30   A    
C77   O18   S    
C75   C89   S    
C4    O12   A    
C48   H15   S    
C54   C68   A    
C34   O2    A    
C74   C78   S    
C46   H13   S    
C8    H25   S    
C2    O15   A    
C6    H12   S    
C6    C39   A    
C5    C51   A    
C45   O28   A    
C6    C52   A    
C23   O30   A    
C25   C46   A    
C73   C83   A    
C52   C65   A    
