data_mof_unit_59817.cif
_audit_creation_date              2012-12-11T15:52:26-0500
_audit_creation_method            fapswitch 2.2
_symmetry_space_group_name_H-M    P1
_symmetry_Int_Tables_number       1
_space_group_crystal_system       triclinic
_cell_length_a                    11.033235
_cell_length_b                    11.038097
_cell_length_c                    18.854708
_cell_angle_alpha                 90.050135
_cell_angle_beta                  89.934016
_cell_angle_gamma                 119.9538
_cell_volume                      1989.52406794

loop_
_atom_site_label
_atom_site_type_symbol
_atom_type_description
_atom_site_fract_x
_atom_site_fract_y
_atom_site_fract_z
_atom_type_partial_charge
Br1   Br    Br    0.659858 0.856383 0.108419 -0.415287
Br2   Br    Br    0.144124 0.802986 0.108689 -0.415258
Br3   Br    Br    0.196705 0.340700 0.108712 -0.415129
Br4   Br    Br    0.095976 0.828441 0.939394 -0.427750
Br5   Br    Br    0.732651 0.903920 0.939017 -0.427755
Br6   Br    Br    0.171514 0.267709 0.939309 -0.428125
C1    C     C_R   0.519360 0.457866 0.147758 0.569687
C2    C     C_3   0.966994 0.717392 0.467485 -0.263560
C3    C     C_3   0.751289 0.036170 0.459250 -0.266677
C4    C     C_3   0.290925 0.248244 0.460334 -0.267741
C5    C     C_R   0.517380 0.457993 0.352963 0.551084
C6    C     C_R   0.542182 0.059912 0.353147 0.550014
C7    C     C_R   0.935082 0.479787 0.354816 0.550570
C8    C     C_R   0.452711 0.523036 0.643675 0.540704
C9    C     C_R   0.061762 0.542371 0.646359 0.544750
C10   C     C_R   0.478435 0.932590 0.644390 0.538955
C11   C     C_R   0.501113 0.967609 0.930032 -0.017785
C12   C     C_R   0.542139 0.061442 0.147759 0.570567
C13   C     C_R   0.032032 0.533453 0.929993 -0.017673
C14   C     C_R   0.466454 0.498869 0.930035 -0.018018
C15   C     C_R   0.004112 0.504094 0.078463 0.014396
C16   C     C_R   0.500263 0.995960 0.078495 0.014367
C17   C     C_R   0.495750 0.499816 0.078510 0.014415
C18   C     C_R   0.420210 0.015192 0.961632 0.037056
C19   C     C_R   0.984483 0.405012 0.961438 0.037220
C20   C     C_R   0.594896 0.579659 0.961519 0.037176
C21   C     C_R   0.966869 0.389746 0.033739 0.056282
C22   C     C_R   0.422852 0.033030 0.033924 0.056391
C23   C     C_R   0.938571 0.480597 0.147750 0.571061
C24   C     C_R   0.610129 0.577042 0.033807 0.056339
C25   C     C_R   0.568224 0.929044 0.048553 0.142680
C26   C     C_R   0.071084 0.638888 0.048645 0.142778
C27   C     C_R   0.360925 0.432007 0.048688 0.142770
C28   C     C_R   0.072107 0.652870 0.974531 0.134388
C29   C     C_R   0.580865 0.927790 0.974414 0.134528
C30   C     C_R   0.347004 0.419316 0.974552 0.134343
C31   C     C_3   0.421999 0.148632 0.947382 -0.261621
C32   C     C_3   0.850967 0.273497 0.947204 -0.261849
C33   C     C_3   0.726517 0.577647 0.947140 -0.261454
C34   C     C_R   0.450820 0.520505 0.855047 0.562264
C35   C     C_3   0.832898 0.255049 0.026800 -0.220890
C36   C     C_3   0.421935 0.166964 0.026973 -0.220755
C37   C     C_3   0.744931 0.577763 0.026714 -0.221051
C38   C     C_R   0.488444 0.964903 0.569310 0.019835
C39   C     C_R   0.995971 0.497495 0.577497 0.016952
C40   C     C_R   0.473179 0.515749 0.568155 0.019602
C41   C     C_R   0.970734 0.491867 0.429333 0.022298
C42   C     C_R   0.500028 0.988087 0.420975 0.022951
C43   C     C_R   0.485930 0.500696 0.420255 0.022506
C44   C     C_R   0.588228 0.951015 0.530446 0.040023
C45   C     C_R   0.069489 0.549127 0.855020 0.561120
C46   C     C_R   0.937558 0.569184 0.544126 0.018204
C47   C     C_R   0.361263 0.412681 0.529977 0.032888
C48   C     C_R   0.927421 0.567187 0.471628 0.039675
C49   C     C_R   0.594178 0.961233 0.458052 0.031355
C50   C     C_R   0.366240 0.405025 0.457699 0.026045
C51   C     C_R   0.383492 0.975751 0.457725 -0.170093
C52   C     C_R   0.009555 0.402946 0.462634 -0.172522
C53   C     C_R   0.586330 0.620829 0.455970 -0.153637
C54   C     C_R   0.021076 0.404924 0.536620 -0.165348
C55   C     C_R   0.379397 0.967544 0.532055 -0.167582
C56   C     C_R   0.479509 0.930440 0.855038 0.561867
C57   C     C_R   0.580881 0.627698 0.530210 -0.154481
C58   C     C_3   0.743136 0.025602 0.539142 -0.278449
C59   C     C_3   0.973355 0.719206 0.547527 -0.268883
C60   C     C_3   0.286053 0.258229 0.539979 -0.278605
Cr1   Cr    Cr6+3 0.769160 0.541570 0.250690 1.078873
Cr2   Cr    Cr6+3 0.458430 0.227590 0.250690 1.075416
Cr3   Cr    Cr6+3 0.772410 0.230840 0.250690 1.076525
Cr4   Cr    Cr6+3 0.541570 0.769160 0.749310 1.063434
Cr5   Cr    Cr6+3 0.227590 0.458430 0.749310 1.062469
Cr6   Cr    Cr6+3 0.230840 0.772410 0.749310 1.060954
H1    H     H_    0.324697 0.129655 0.920764 0.235128
H2    H     H_    0.843058 0.166086 0.047011 0.241504
H3    H     H_    0.322901 0.156948 0.047386 0.241546
H4    H     H_    0.833872 0.676718 0.047045 0.241394
H5    H     H_    0.302799 0.984783 0.429891 0.120775
H6    H     H_    0.034951 0.335890 0.431678 0.127672
H7    H     H_    0.673012 0.703293 0.427340 0.122568
H8    H     H_    0.061539 0.343753 0.560886 0.139208
H9    H     H_    0.295155 0.969246 0.560299 0.119404
H10   H     H_    0.662138 0.717093 0.557792 0.126104
H11   H     H_    0.782242 0.958154 0.560935 0.134734
H12   H     H_    0.869880 0.195200 0.920395 0.234744
H13   H     H_    0.079541 0.791257 0.567568 0.163529
H14   H     H_    0.178390 0.216296 0.560971 0.136769
H15   H     H_    0.882622 0.732971 0.446247 0.139990
H16   H     H_    0.799524 0.145591 0.440664 0.170654
H17   H     H_    0.358766 0.206414 0.443274 0.166308
H18   H     H_    0.783791 0.128296 0.566089 0.143768
H19   H     H_    0.889169 0.731325 0.572952 0.129807
H20   H     H_    0.350530 0.221904 0.568217 0.140513
H21   H     H_    0.070551 0.782697 0.441954 0.142287
H22   H     H_    0.793861 0.973576 0.434674 0.132049
H23   H     H_    0.804828 0.674823 0.920440 0.234966
H24   H     H_    0.186076 0.199917 0.434964 0.136518
H25   H     H_    0.741816 0.261451 0.046930 0.096638
H26   H     H_    0.519421 0.258041 0.046886 0.096796
H27   H     H_    0.738574 0.480289 0.046641 0.096547
H28   H     H_    0.520011 0.228168 0.921241 0.103256
H29   H     H_    0.771282 0.292016 0.921270 0.103045
H30   H     H_    0.708039 0.479595 0.921015 0.103191
O1    O     O_R   0.911480 0.572650 0.170990 -0.475598
O2    O     O_R   0.528970 0.640340 0.824320 -0.471766
O3    O     O_R   0.111370 0.471030 0.824320 -0.472698
O4    O     O_R   0.359660 0.888630 0.824320 -0.471769
O5    O     O_R   0.909980 0.572450 0.331530 -0.508734
O6    O     O_R   0.427550 0.337530 0.331530 -0.516180
O7    O     O_R   0.662470 0.090020 0.331530 -0.515986
O8    O     O_R   0.572450 0.909980 0.668470 -0.519206
O9    O     O_R   0.337530 0.427550 0.668470 -0.519512
O10   O     O_R   0.090020 0.662470 0.668470 -0.524605
O11   O     O_R   0.638950 0.528780 0.324500 -0.502939
O12   O     O_R   0.427350 0.338830 0.170990 -0.475723
O13   O     O_R   0.471220 0.110170 0.324500 -0.507064
O14   O     O_R   0.889830 0.361050 0.324500 -0.506919
O15   O     O_R   0.528780 0.638950 0.675500 -0.510676
O16   O     O_R   0.110170 0.471220 0.675500 -0.512438
O17   O     O_R   0.361050 0.889830 0.675500 -0.511047
O18   O     O_3   0.666667 0.333333 0.250560 -0.293368
O19   O     O_3   0.333333 0.666667 0.749440 -0.279171
O20   O     O_R   0.661170 0.088520 0.170990 -0.475571
O21   O     O_R   0.572650 0.911480 0.829010 -0.473577
O22   O     O_R   0.338830 0.427350 0.829010 -0.472968
O23   O     O_R   0.088520 0.661170 0.829010 -0.473629
O24   O     O_R   0.640340 0.528970 0.175680 -0.484007
O25   O     O_R   0.471030 0.111370 0.175680 -0.483275
O26   O     O_R   0.888630 0.359660 0.175680 -0.482782

loop_
_geom_bond_atom_site_label_1
_geom_bond_atom_site_label_2
_ccdc_geom_bond_type
C42   C49   A    
Cr6   O10   S    
C39   C54   A    
Cr6   O19   S    
C3    C58   S    
C44   C58   S    
C58   H18   S    
C6    C42   S    
C10   O8    A    
C42   C51   A    
C8    C40   S    
C36   H3    S    
C1    O12   A    
C37   H27   S    
C32   H29   S    
C36   H26   S    
C3    H16   S    
C12   O25   A    
Cr4   O2    S    
C20   C33   S    
Br3   C27   S    
Cr4   O15   S    
C52   C54   A    
Br1   C25   S    
C27   C30   A    
C23   O1    A    
Br2   C26   S    
C31   C36   S    
C6    O7    A    
Cr4   O8    S    
C35   H2    S    
Cr3   O7    S    
Cr4   O21   S    
C4    H17   S    
C17   C27   A    
Cr5   O9    S    
C19   C32   S    
C3    C49   S    
C4    C50   S    
Cr1   O18   S    
C10   C38   S    
C1    C17   S    
C7    O5    A    
C6    O13   A    
C15   C21   A    
C2    C59   S    
C16   C22   A    
C13   C19   A    
C56   O21   A    
C46   C48   A    
C4    C60   S    
C8    O9    A    
C34   O22   A    
C15   C26   A    
Br4   C28   S    
C11   C18   A    
C16   C25   A    
C57   H10   S    
Cr1   O1    S    
C45   O23   A    
C17   C24   A    
C51   H5    S    
Cr5   O22   S    
Cr3   O26   S    
C32   C35   S    
Cr1   O24   S    
C53   H7    S    
C7    C41   S    
C33   C37   S    
C39   C46   A    
C15   C23   S    
C26   C28   A    
C58   H11   S    
C5    C43   S    
C11   C56   S    
C34   O2    A    
C21   C35   S    
C4    H24   S    
C45   O3    A    
C8    O15   A    
C18   C31   S    
C51   C55   A    
C47   C60   S    
Cr2   O25   S    
C33   H23   S    
C12   O20   A    
C41   C48   A    
Cr6   O4    S    
C20   C24   A    
Cr5   O3    S    
C25   C29   A    
C24   C37   S    
C10   O17   A    
C9    C39   S    
C2    C48   S    
C33   H30   S    
C47   C50   A    
C38   C44   A    
C37   H4    S    
C59   H19   S    
C31   H1    S    
C54   H8    S    
Cr5   O16   S    
C32   H12   S    
C12   C16   S    
C9    O10   A    
Cr5   O19   S    
C2    H21   S    
C18   C22   A    
Cr3   O14   S    
C13   C28   A    
C60   H14   S    
C60   H20   S    
C59   H13   S    
C56   O4    A    
C38   C55   A    
C19   C21   A    
C43   C50   A    
C11   C29   A    
C40   C57   A    
Cr3   O18   S    
C53   C57   A    
C44   C49   A    
C43   C53   A    
C9    O16   A    
Cr6   O23   S    
C2    H15   S    
Cr1   O11   S    
C55   H9    S    
Cr2   O18   S    
C41   C52   A    
Cr4   O19   S    
Cr1   O5    S    
C14   C20   A    
Cr3   O20   S    
C14   C34   S    
Br5   C29   S    
C40   C47   A    
C22   C36   S    
Br6   C30   S    
C35   H25   S    
C1    O24   A    
C5    O11   A    
C7    O14   A    
Cr6   O17   S    
C52   H6    S    
Cr2   O13   S    
C14   C30   A    
C13   C45   S    
C23   O26   A    
C5    O6    A    
Cr2   O6    S    
C3    H22   S    
C31   H28   S    
C46   C59   S    
Cr2   O12   S    
