data_mof_unit_15235.cif
_audit_creation_date              2012-12-11T20:17:15-0500
_audit_creation_method            fapswitch 2.2
_symmetry_space_group_name_H-M    P1
_symmetry_Int_Tables_number       1
_space_group_crystal_system       triclinic
_cell_length_a                    8.388223
_cell_length_b                    17.223072
_cell_length_c                    18.787246
_cell_angle_alpha                 99.889568
_cell_angle_beta                  93.113367
_cell_angle_gamma                 97.760466
_cell_volume                      2641.02620854

loop_
_atom_site_label
_atom_site_type_symbol
_atom_type_description
_atom_site_fract_x
_atom_site_fract_y
_atom_site_fract_z
_atom_type_partial_charge
Ba1   Ba    Ba6+2 0.852650 0.537180 0.468240 1.680745
Ba2   Ba    Ba6+2 0.337190 0.462880 0.531770 1.683797
C1    C     C_3   0.556167 0.771298 0.218675 0.223609
C2    C     C_3   0.624112 0.744994 0.286481 0.479422
C3    C     C_3   0.401279 0.319855 0.299937 0.437511
C4    C     C_3   0.303060 0.259924 0.237780 -0.084733
C5    C     C_3   0.071866 0.294998 0.717466 0.331928
C6    C     C_3   0.081712 0.271017 0.791587 -0.313712
C7    C     C_3   0.549610 0.252141 0.682737 0.511982
C8    C     C_3   0.542166 0.174309 0.711723 0.228489
C9    C     C_2   0.293726 0.531176 0.300505 -0.039314
C10   C     C_3   0.399469 0.574835 0.252821 -0.073858
C11   C     C_2   0.357983 0.546600 0.172703 -0.136514
C12   C     C_3   0.113445 0.721552 0.286445 0.360234
C13   C     C_2   0.208632 0.507619 0.148409 -0.054189
C14   C     C_2   0.099778 0.480714 0.203879 -0.216403
C15   C     C_1   0.154040 0.486530 0.273381 0.052320
C16   C     C_R   0.048687 0.487451 0.926172 0.473002
C17   C     C_R   0.152129 0.497830 0.069189 0.460788
C18   C     C_R   0.092818 0.516212 0.799218 -0.174375
C19   C     C_R   0.040094 0.509969 0.725390 0.106543
C20   C     C_R   0.779749 0.441389 0.748003 -0.019013
C21   C     C_R   0.833313 0.446725 0.821194 -0.165674
C22   C     C_R   0.991986 0.482408 0.847747 -0.074052
C23   C     C_3   0.081773 0.754515 0.217728 -0.341097
C24   C     C_R   0.888087 0.467586 0.699536 -0.110943
C25   C     C_2   0.434995 0.727088 0.493894 -0.233410
C26   C     C_3   0.363847 0.769908 0.439377 -0.069696
C27   C     C_2   0.422084 0.858204 0.456763 -0.004498
C28   C     C_2   0.563293 0.885498 0.497373 0.031783
C29   C     C_2   0.653017 0.827433 0.527504 -0.149018
C30   C     C_1   0.582344 0.753163 0.524395 0.096368
C31   C     C_R   0.793607 0.141395 0.546759 -0.182278
C32   C     C_R   0.872465 0.214632 0.535644 0.056458
C33   C     C_R   0.626615 0.238615 0.473371 0.029561
C34   C     C_3   0.212245 0.719584 0.650121 0.409377
C35   C     C_R   0.549544 0.164422 0.483026 -0.155086
C36   C     C_R   0.633687 0.114050 0.517513 -0.067016
C37   C     C_2   0.637901 0.970001 0.506445 -0.036360
C38   C     C_2   0.554230 0.031887 0.520428 0.375504
C39   C     C_R   0.793532 0.260330 0.493732 -0.049159
C40   C     C_3   0.160908 0.801799 0.673335 0.259176
C41   C     C_3   0.864637 0.287695 0.284211 0.648807
C42   C     C_3   0.859796 0.278092 0.201279 0.190374
C43   C     C_3   0.722791 0.648985 0.698108 0.298309
C44   C     C_3   0.708722 0.682580 0.778388 -0.129729
H1    H     H_    0.222860 0.830765 0.727132 0.039845
H2    H     H_    0.196939 0.839829 0.632868 0.038981
H3    H     H_    0.767193 0.320168 0.304222 0.036418
H4    H     H_    0.880865 0.337331 0.185777 0.030390
H5    H     H_    0.955995 0.244374 0.179820 0.055747
H6    H     H_    0.843427 0.630968 0.690494 0.023344
H7    H     H_    0.627231 0.597143 0.679604 0.021140
H8    H     H_    0.656591 0.788560 0.185499 0.046453
H9    H     H_    0.791467 0.739888 0.794533 0.156214
H10   H     H_    0.583675 0.695137 0.786057 0.105556
H11   H     H_    0.520773 0.727128 0.317678 -0.052568
H12   H     H_    0.316432 0.347763 0.335866 0.073530
H13   H     H_    0.223745 0.291799 0.207532 0.033452
H14   H     H_    0.385411 0.233017 0.199361 0.127030
H15   H     H_    0.472238 0.720873 0.185712 -0.003146
H16   H     H_    0.130854 0.718360 0.171499 0.073956
H17   H     H_    0.158270 0.350419 0.719474 0.083120
H18   H     H_    0.946923 0.306223 0.705410 -0.036496
H19   H     H_    0.206418 0.260954 0.806108 0.186594
H20   H     H_    0.048867 0.318898 0.833188 0.064681
H21   H     H_    0.996911 0.215467 0.791068 0.113729
H22   H     H_    0.676138 0.269245 0.670151 -0.284272
H23   H     H_    0.469619 0.242271 0.631939 0.034952
H24   H     H_    0.586785 0.128155 0.671937 -0.017868
H25   H     H_    0.045480 0.660325 0.279747 0.070355
H26   H     H_    0.622543 0.184346 0.762420 0.082208
H27   H     H_    0.440844 0.568340 0.135702 0.100281
H28   H     H_    0.971721 0.465195 0.188418 0.123067
H29   H     H_    0.210862 0.548853 0.818863 0.122994
H30   H     H_    0.749903 0.424211 0.857405 0.118742
H31   H     H_    0.771238 0.847836 0.556179 0.107334
H32   H     H_    0.856821 0.105869 0.577817 0.077524
H33   H     H_    0.244788 0.718760 0.292663 -0.040181
H34   H     H_    0.766170 0.980892 0.499397 0.043509
H35   H     H_    0.359942 0.897591 0.429538 0.126509
H36   H     H_    0.425619 0.144980 0.461345 0.112585
H37   H     H_    0.364678 0.674376 0.506842 0.058663
H38   H     H_    0.950555 0.752428 0.205106 0.129507
H39   H     H_    0.141156 0.817243 0.224592 0.144544
H40   H     H_    0.155972 0.693696 0.594695 0.066726
N1    N     N_R   0.201483 0.521054 0.951926 -0.236496
N2    N     N_R   0.251618 0.526169 0.021522 -0.242815
N3    N     N_R   0.999369 0.463769 0.043445 -0.234208
N4    N     N_R   0.949141 0.458597 0.973673 -0.235734
O1    O     O_2   0.865200 0.455450 0.325860 -0.478899
O2    O     O_3   0.704906 0.711515 0.661240 -0.596542
O3    O     O_3   0.063369 0.771098 0.346209 -0.592794
O4    O     O_2   0.324510 0.544570 0.674190 -0.484940
O5    O     O_3   0.071830 0.543290 0.586690 -0.459390
O6    O     O_3   0.531950 0.400150 0.621890 -0.489546
O7    O     O_3   0.168539 0.670671 0.700502 -0.640208
O8    O     O_3   0.606980 0.404400 0.458100 -0.466038
O9    O     O_3   0.107660 0.359170 0.583950 -0.460707
O10   O     O_2   0.206369 0.219909 0.534741 -0.491993
O11   O     O_3   0.112266 0.233349 0.665606 -0.592908
O12   O     O_3   0.117880 0.456770 0.413320 -0.432724
O13   O     O_3   0.582730 0.595670 0.541910 -0.515634
O14   O     O_2   0.334130 0.306180 0.453490 -0.449647
O15   O     O_3   0.504430 0.278334 0.335489 -0.665272
O16   O     O_2   0.451559 0.458784 0.753277 -0.489857
O17   O     O_3   0.498025 0.310385 0.734891 -0.584281
O18   O     O_3   0.657770 0.599920 0.378120 -0.473720
O19   O     O_2   0.714765 0.529282 0.245228 -0.459412
O20   O     O_3   0.015871 0.327053 0.316843 -0.657200
O21   O     O_3   0.717705 0.683438 0.265406 -0.631745
O22   O     O_2   0.855570 0.693850 0.546560 -0.424983
O23   O     O_3   0.082050 0.640900 0.416060 -0.466316
O24   O     O_2   0.051766 0.785582 0.487481 -0.476579
P1    P     P_3+3 0.032830 0.432130 0.335280 0.962798
P2    P     P_3+3 0.680690 0.682340 0.566920 1.017599
P3    P     P_3+3 0.139849 0.743449 0.425039 0.969565
P4    P     P_3+3 0.156880 0.567940 0.664730 0.994994
P5    P     P_3+3 0.075643 0.255609 0.579304 0.974589
P6    P     P_3+3 0.621081 0.593369 0.284202 0.964313
P7    P     P_3+3 0.513100 0.305052 0.430012 0.967354
P8    P     P_3+3 0.565894 0.404366 0.715349 0.953649
N5    N     N_3   0.724661 0.812637 0.332865 -0.458540
H41   H     H_    0.770122 0.793032 0.378497 0.197828
H42   H     H_    0.822483 0.832322 0.305111 0.206920
O25   O     O_3   0.994535 0.795082 0.678045 -0.688286
H43   H     H_    0.969700 0.850271 0.690809 0.295707
O26   O     O_3   0.841535 0.211936 0.303488 -0.727123
H44   H     H_    0.724164 0.191863 0.296596 0.298579
O27   O     O_3   0.708207 0.239769 0.169321 -0.755932
H45   H     H_    0.710632 0.181578 0.163722 0.315656
N6    N     N_3   0.748246 0.628835 0.826300 -0.505124
H46   H     H_    0.668030 0.575876 0.812428 0.198073
H47   H     H_    0.865433 0.617094 0.818548 0.174085
O28   O     O_3   0.473156 0.836015 0.238607 -0.734421
H48   H     H_    0.435676 0.851356 0.192670 0.301956
N7    N     N_3   0.497943 0.382672 0.270957 -0.487405
H49   H     H_    0.421234 0.408107 0.239182 0.103624
H50   H     H_    0.574833 0.357185 0.234955 0.211528
N8    N     N_3   0.204824 0.197015 0.265920 -0.429285
H51   H     H_    0.135144 0.160019 0.222088 0.184377
H52   H     H_    0.281485 0.161588 0.286414 0.197980
O29   O     O_3   0.384427 0.147758 0.726965 -0.691001
H53   H     H_    0.323713 0.123794 0.679752 0.318720
N9    N     N_3   0.329605 0.552909 0.376974 -0.436449
H54   H     H_    0.378695 0.612623 0.388657 0.131748
H55   H     H_    0.412864 0.517805 0.392505 0.210906
N10   N     N_3   0.845555 0.451966 0.623332 -0.432193
H56   H     H_    0.760570 0.487616 0.610901 0.197114
H57   H     H_    0.807093 0.391163 0.605773 0.177191
O30   O     O_3   0.393368 0.017514 0.533913 -0.738757
H58   H     H_    0.355565 0.069323 0.549803 0.302646
N11   N     N_3   0.886158 0.327500 0.471677 -0.430934
H59   H     H_    0.829457 0.341712 0.426368 0.174843
H60   H     H_    0.990778 0.308692 0.451312 0.221742
N12   N     N_3   0.385755 0.731153 0.649720 -0.564123
H61   H     H_    0.436443 0.756216 0.702101 0.169564
H62   H     H_    0.416572 0.674220 0.638509 0.173397

loop_
_geom_bond_atom_site_label_1
_geom_bond_atom_site_label_2
_ccdc_geom_bond_type
O8    P7    S    
C19   C24   A    
C6    H20   S    
O25   H43   S    
N5    H41   S    
C12   H25   S    
O18   P6    S    
C34   C40   S    
C21   H30   S    
N1    N2    A    
O26   H44   S    
N9    H54   S    
Ba2   P4    S    
O28   H48   S    
C3    O15   S    
C43   C44   S    
C13   C17   S    
C10   C11   S    
N7    H50   S    
C34   N12   S    
C19   P4    S    
Ba1   O23   S    
C3    H12   S    
C16   C22   S    
N12   H61   S    
C33   C35   A    
C35   C36   A    
C7    H23   S    
C26   P3    S    
Ba1   O22   S    
C44   N6    S    
C28   C29   S    
C1    H8    S    
C31   H32   S    
N5    H42   S    
Ba2   O12   S    
C42   O27   S    
O29   H53   S    
Ba1   Ba2   S    
O7    P4    S    
C43   O2    S    
O12   P1    S    
C10   P6    S    
C18   C22   A    
C14   C15   D    
C2    H11   S    
C23   H38   S    
C21   C22   A    
C29   H31   S    
C34   O7    S    
Ba1   P2    S    
Ba2   O14   S    
N11   H60   S    
N6    H46   S    
C7    C8    S    
Ba1   O13   S    
C12   O3    S    
C23   H16   S    
O30   H58   S    
C43   H7    S    
C6    H19   S    
Ba1   O1    S    
C38   O30   S    
C32   C39   A    
O3    P3    S    
C33   C39   A    
N9    H55   S    
C20   P8    S    
C39   N11   S    
C1    H15   S    
O5    P4    S    
O11   P5    S    
C4    H14   S    
C33   P7    S    
N8    H51   S    
C17   N2    A    
C37   C38   D    
C41   H3    S    
O14   P7    D    
C43   H6    S    
C34   H40   S    
C18   H29   S    
O21   P6    S    
C16   N4    A    
C44   H9    S    
C41   C42   S    
C27   H35   S    
C27   C28   D    
C17   N3    A    
C29   C30   D    
Ba2   O4    S    
Ba1   O5    S    
O16   P8    D    
C23   H39   S    
C31   C32   A    
O15   P7    S    
O10   P5    D    
C40   H2    S    
C12   H33   S    
C30   P2    S    
C24   N10   S    
O2    P2    S    
C5    H17   S    
O23   P3    S    
C8    H24   S    
C42   H5    S    
C41   O20   S    
C2    O21   S    
C11   H27   S    
Ba2   O9    S    
C11   C13   D    
C5    O11   S    
C14   H28   S    
C35   H36   S    
C1    C2    S    
C26   C27   S    
O22   P2    D    
C15   P1    S    
C42   H4    S    
C32   P5    S    
C9    C15   D    
C25   C30   D    
C4    H13   S    
C9    N9    S    
C31   C36   A    
N10   H57   S    
Ba2   O5    S    
Ba1   O8    S    
C9    C10   S    
C3    N7    S    
N8    H52   S    
C7    O17   S    
N7    H49   S    
C16   N1    A    
O6    P8    S    
C37   H34   S    
Ba2   O6    S    
O27   H45   S    
N3    N4    A    
C7    H22   S    
C36   C38   S    
O4    P4    D    
C3    C4    S    
C41   O26   S    
Ba2   O13   S    
O20   P1    S    
N12   H62   S    
O1    P1    D    
C28   C37   S    
O13   P2    S    
C1    O28   S    
C40   H1    S    
C12   C23   S    
C4    N8    S    
C2    N5    S    
C5    H18   S    
Ba1   O12   S    
O24   P3    D    
C5    C6    S    
C40   O25   S    
Ba1   O18   S    
O9    P5    S    
C25   H37   S    
C18   C19   A    
Ba2   O8    S    
C6    H21   S    
N6    H47   S    
C20   C24   A    
C44   H10   S    
C25   C26   S    
C20   C21   A    
Ba1   P1    S    
O17   P8    S    
N11   H59   S    
N10   H56   S    
C13   C14   S    
O19   P6    D    
C8    O29   S    
C8    H26   S    
