data_mof_unit_49549.cif
_audit_creation_date              2012-12-11T14:04:05-0500
_audit_creation_method            fapswitch 2.2
_symmetry_space_group_name_H-M    P1
_symmetry_Int_Tables_number       1
_space_group_crystal_system       triclinic
_cell_length_a                    18.886197
_cell_length_b                    11.081584
_cell_length_c                    18.72386
_cell_angle_alpha                 89.853529
_cell_angle_beta                  89.797768
_cell_angle_gamma                 89.87813
_cell_volume                      3918.65152874

loop_
_atom_site_label
_atom_site_type_symbol
_atom_type_description
_atom_site_fract_x
_atom_site_fract_y
_atom_site_fract_z
_atom_type_partial_charge
C1    C     C_R   0.240603 0.465682 0.647670 0.612033
C2    C     C_R   0.759196 0.465435 0.352141 0.607508
C3    C     C_R   0.740603 0.965681 0.647670 0.612033
C4    C     C_R   0.259196 0.965435 0.352141 0.607508
C5    C     C_2   0.274662 0.813932 0.530450 0.331172
C6    C     C_2   0.721893 0.817709 0.468734 0.333348
C7    C     C_2   0.774662 0.313932 0.530450 0.331172
C8    C     C_2   0.221893 0.317709 0.468734 0.333348
C9    C     C_R   0.005195 0.658509 0.426567 0.001154
C10   C     C_R   0.989697 0.668502 0.576717 0.000168
C11   C     C_R   0.505195 0.158509 0.426567 0.001154
C12   C     C_R   0.489697 0.168501 0.576717 0.000169
C13   C     C_R   0.033291 0.875062 0.425218 0.381242
C14   C     C_R   0.991372 0.891797 0.568360 0.396750
C15   C     C_R   0.533291 0.375062 0.425219 0.381242
C16   C     C_R   0.491372 0.391797 0.568360 0.396750
C17   C     C_R   0.033297 0.986029 0.459642 -0.124291
C18   C     C_R   0.009274 0.995105 0.529791 -0.112313
C19   C     C_R   0.533297 0.486029 0.459643 -0.124291
C20   C     C_R   0.509274 0.495104 0.529791 -0.112313
C21   C     C_R   0.997523 0.776725 0.536578 -0.047147
C22   C     C_R   0.011320 0.770165 0.461954 -0.046121
C23   C     C_R   0.497524 0.276724 0.536578 -0.047147
C24   C     C_R   0.511320 0.270165 0.461954 -0.046121
C25   C     C_R   0.978458 0.560182 0.539773 -0.004338
C26   C     C_R   0.000788 0.551940 0.468456 -0.003297
C27   C     C_R   0.478459 0.060181 0.539773 -0.004338
C28   C     C_R   0.500789 0.051940 0.468456 -0.003297
C29   C     C_R   0.952370 0.456154 0.574552 -0.064618
C30   C     C_R   0.015865 0.436277 0.440794 -0.046278
C31   C     C_R   0.452371 0.956154 0.574551 -0.064617
C32   C     C_R   0.515866 0.936278 0.440793 -0.046278
C33   C     C_R   0.960801 0.343212 0.543521 -0.070752
C34   C     C_R   0.996257 0.333141 0.478500 -0.066690
C35   C     C_R   0.460802 0.843211 0.543520 -0.070752
C36   C     C_R   0.496258 0.833141 0.478499 -0.066690
C37   C     C_2   0.227125 0.861436 0.934288 0.095358
C38   C     C_2   0.785944 0.818409 0.063595 0.043719
C39   C     C_2   0.727125 0.361436 0.934288 0.095358
C40   C     C_2   0.285942 0.318412 0.063595 0.043719
C41   C     C_2   0.240997 0.878762 0.094235 -0.057776
C42   C     C_2   0.754430 0.912087 0.918473 -0.044715
C43   C     C_2   0.740997 0.378762 0.094235 -0.057775
C44   C     C_2   0.254430 0.412088 0.918473 -0.044714
C45   C     C_R   0.227024 0.871748 0.646462 0.582045
C46   C     C_R   0.772870 0.871823 0.353409 0.582708
C47   C     C_R   0.727024 0.371748 0.646462 0.582045
C48   C     C_R   0.272870 0.371823 0.353409 0.582708
C49   C     C_2   0.179958 0.886224 0.057807 0.099123
C50   C     C_2   0.820472 0.898876 0.945157 0.083209
C51   C     C_2   0.679957 0.386224 0.057807 0.099122
C52   C     C_2   0.320472 0.398877 0.945157 0.083209
C53   C     C_2   0.176211 0.843483 0.983917 -0.133986
C54   C     C_2   0.830599 0.881096 0.021960 -0.139246
C55   C     C_2   0.676211 0.343484 0.983917 -0.133986
C56   C     C_2   0.330598 0.381098 0.021960 -0.139246
C57   C     C_2   0.011614 0.651926 0.926922 -0.080504
C58   C     C_2   0.008085 0.663164 0.082473 -0.094254
C59   C     C_2   0.511614 0.151926 0.926922 -0.080504
C60   C     C_2   0.508085 0.163164 0.082473 -0.094254
C61   C     C_2   0.028180 0.565186 0.046657 -0.137908
C62   C     C_2   0.042590 0.570629 0.970499 -0.149590
C63   C     C_2   0.528180 0.065187 0.046657 -0.137908
C64   C     C_2   0.542591 0.070630 0.970499 -0.149590
C65   C     C_R   0.026370 0.656131 0.646765 0.576605
C66   C     C_R   0.972710 0.654041 0.354119 0.591596
C67   C     C_R   0.526370 0.156131 0.646765 0.576606
C68   C     C_R   0.472710 0.154041 0.354119 0.591595
C69   C     C_R   0.240297 0.464452 0.849600 0.549042
C70   C     C_R   0.758692 0.459002 0.153179 0.577795
C71   C     C_R   0.740297 0.964452 0.849600 0.549041
C72   C     C_R   0.258692 0.959002 0.153179 0.577795
C73   C     C_R   0.210137 0.830125 0.861348 0.545673
C74   C     C_R   0.793708 0.820582 0.140997 0.572689
C75   C     C_R   0.710137 0.330125 0.861348 0.545672
C76   C     C_R   0.293706 0.320585 0.140997 0.572690
C77   C     C_R   0.031891 0.650923 0.852467 0.557523
C78   C     C_R   0.971658 0.652419 0.149999 0.564006
C79   C     C_R   0.531891 0.150923 0.852467 0.557523
C80   C     C_R   0.471658 0.152419 0.149999 0.564006
C81   C     C_2   0.247862 0.901611 0.573618 -0.107136
C82   C     C_2   0.751520 0.902939 0.425885 -0.098393
C83   C     C_2   0.747862 0.401611 0.573618 -0.107136
C84   C     C_2   0.251520 0.402939 0.425885 -0.098393
C85   C     C_2   0.241276 0.908100 0.419208 -0.087247
C86   C     C_2   0.757828 0.906766 0.580810 -0.098381
C87   C     C_2   0.741276 0.408100 0.419208 -0.087247
C88   C     C_2   0.257828 0.406766 0.580810 -0.098381
C89   C     C_2   0.283672 0.831065 0.453236 0.075128
C90   C     C_2   0.712714 0.835674 0.545714 0.075069
C91   C     C_2   0.783672 0.331065 0.453236 0.075129
C92   C     C_2   0.212714 0.335674 0.545714 0.075068
Cr1   Cr    Cr6+3 0.113970 0.508630 0.747920 1.077117
Cr2   Cr    Cr6+3 0.886030 0.508630 0.252080 1.067405
Cr3   Cr    Cr6+3 0.613970 0.008630 0.747920 1.077117
Cr4   Cr    Cr6+3 0.386030 0.008630 0.252080 1.067405
Cr5   Cr    Cr6+3 0.269200 0.666740 0.749850 1.130753
Cr6   Cr    Cr6+3 0.730800 0.666740 0.250150 1.131776
Cr7   Cr    Cr6+3 0.769200 0.166740 0.749850 1.130752
Cr8   Cr    Cr6+3 0.230800 0.166740 0.250150 1.131777
Cr9   Cr    Cr6+3 0.112300 0.820070 0.749800 1.135411
Cr10  Cr    Cr6+3 0.887700 0.820070 0.250200 1.113321
Cr11  Cr    Cr6+3 0.612300 0.320070 0.749800 1.135410
Cr12  Cr    Cr6+3 0.387700 0.320070 0.250200 1.113321
H1    H     H_    0.125456 0.807639 0.967102 0.116884
H2    H     H_    0.875387 0.927401 0.045617 0.165444
H3    H     H_    0.625455 0.307640 0.967102 0.116885
H4    H     H_    0.375387 0.427403 0.045617 0.165444
H5    H     H_    0.283307 0.821400 0.074334 0.119310
H6    H     H_    0.708403 0.908146 0.952830 0.103068
H7    H     H_    0.783307 0.321400 0.074334 0.119311
H8    H     H_    0.208403 0.408149 0.952829 0.103067
H9    H     H_    0.030463 0.477207 0.072312 0.183896
H10   H     H_    0.077813 0.501532 0.949444 0.164501
H11   H     H_    0.530464 0.977208 0.072312 0.183895
H12   H     H_    0.577814 0.001533 0.949444 0.164500
H13   H     H_    0.008498 0.750891 0.057183 0.128184
H14   H     H_    0.975913 0.720304 0.946662 0.134748
H15   H     H_    0.508498 0.250891 0.057183 0.128185
H16   H     H_    0.475913 0.220303 0.946662 0.134748
H17   H     H_    0.195206 0.945230 0.446363 0.133905
H18   H     H_    0.805677 0.938564 0.554422 0.138486
H19   H     H_    0.695206 0.445230 0.446363 0.133906
H20   H     H_    0.305677 0.438564 0.554422 0.138486
H21   H     H_    0.233966 0.990302 0.553351 0.097012
H22   H     H_    0.767533 0.989789 0.446704 0.108035
H23   H     H_    0.733966 0.490302 0.553351 0.097012
H24   H     H_    0.267533 0.489789 0.446704 0.108035
H25   H     H_    0.051568 0.064958 0.431168 0.180701
H26   H     H_    0.005391 0.082276 0.554939 0.166255
H27   H     H_    0.551568 0.564958 0.431169 0.180701
H28   H     H_    0.505391 0.582275 0.554940 0.166255
H29   H     H_    0.042342 0.425242 0.389823 0.150338
H30   H     H_    0.928248 0.461989 0.627034 0.140008
H31   H     H_    0.542343 0.925243 0.389822 0.150337
H32   H     H_    0.428249 0.961988 0.627034 0.140008
H33   H     H_    0.942293 0.263561 0.571280 0.172909
H34   H     H_    0.006215 0.245672 0.455795 0.139282
H35   H     H_    0.442294 0.763561 0.571278 0.172908
H36   H     H_    0.506216 0.745673 0.455794 0.139283
O1    O     O_R   0.043230 0.549300 0.667990 -0.511408
O2    O     O_R   0.956770 0.549300 0.332010 -0.528138
O3    O     O_R   0.543230 0.049300 0.667990 -0.511408
O4    O     O_R   0.456770 0.049300 0.332010 -0.528138
O5    O     O_R   0.262920 0.788600 0.824420 -0.476713
O6    O     O_R   0.737080 0.788600 0.175580 -0.475581
O7    O     O_R   0.762920 0.288600 0.824420 -0.476713
O8    O     O_R   0.237080 0.288600 0.175580 -0.475582
O9    O     O_R   0.167530 0.905110 0.830340 -0.469597
O10   O     O_R   0.832470 0.905110 0.169660 -0.509773
O11   O     O_R   0.667530 0.405110 0.830340 -0.469598
O12   O     O_R   0.332470 0.405110 0.169660 -0.509775
O13   O     O_R   0.054010 0.748440 0.822860 -0.490438
O14   O     O_R   0.945990 0.748440 0.177140 -0.496320
O15   O     O_R   0.554010 0.248440 0.822860 -0.490438
O16   O     O_R   0.445990 0.248440 0.177140 -0.496319
O17   O     O_3   0.165160 0.665150 0.749190 -0.320306
O18   O     O_3   0.834840 0.665150 0.250810 -0.316479
O19   O     O_3   0.665160 0.165150 0.749190 -0.320306
O20   O     O_3   0.334840 0.165150 0.250810 -0.316478
O21   O     O_R   0.178620 0.457600 0.674100 -0.472805
O22   O     O_R   0.821380 0.457600 0.325900 -0.481194
O23   O     O_R   0.678620 0.957600 0.674100 -0.472805
O24   O     O_R   0.321380 0.957600 0.325900 -0.481194
O25   O     O_R   0.284680 0.542100 0.669460 -0.424095
O26   O     O_R   0.715320 0.542100 0.330540 -0.432687
O27   O     O_R   0.784680 0.042100 0.669460 -0.424095
O28   O     O_R   0.215320 0.042100 0.330540 -0.432687
O29   O     O_R   0.262860 0.790390 0.676650 -0.436753
O30   O     O_R   0.737140 0.790390 0.323350 -0.436392
O31   O     O_R   0.762860 0.290390 0.676650 -0.436753
O32   O     O_R   0.237140 0.290390 0.323350 -0.436392
O33   O     O_R   0.167460 0.907030 0.670940 -0.482592
O34   O     O_R   0.832540 0.907030 0.329060 -0.488109
O35   O     O_R   0.667460 0.407030 0.670940 -0.482592
O36   O     O_R   0.332540 0.407030 0.329060 -0.488109
O37   O     O_R   0.053950 0.750220 0.675100 -0.429351
O38   O     O_R   0.946050 0.750220 0.324900 -0.432850
O39   O     O_R   0.553950 0.250220 0.675100 -0.429352
O40   O     O_R   0.446050 0.250220 0.324900 -0.432850
O41   O     O_R   0.043300 0.547370 0.827390 -0.497358
O42   O     O_R   0.956700 0.547370 0.172610 -0.502736
O43   O     O_R   0.543300 0.047370 0.827390 -0.497358
O44   O     O_R   0.456700 0.047370 0.172610 -0.502736
O45   O     O_R   0.178690 0.455820 0.821860 -0.505042
O46   O     O_R   0.821310 0.455820 0.178140 -0.498152
O47   O     O_R   0.678690 0.955820 0.821860 -0.505042
O48   O     O_R   0.321310 0.955820 0.178140 -0.498152
O49   O     O_R   0.284750 0.540170 0.828860 -0.482851
O50   O     O_R   0.715250 0.540170 0.171140 -0.461259
O51   O     O_R   0.784750 0.040170 0.828860 -0.482851
O52   O     O_R   0.215250 0.040170 0.171140 -0.461258
I1    I     I_    0.352084 0.711503 0.396467 -0.313795
I2    I     I_    0.635220 0.728376 0.598808 -0.302535
I3    I     I_    0.852084 0.211502 0.396467 -0.313795
I4    I     I_    0.135220 0.228376 0.598807 -0.302534
I5    I     I_    0.328539 0.944944 0.948891 -0.290540
I6    I     I_    0.708476 0.695746 0.022868 -0.282236
I7    I     I_    0.828541 0.444941 0.948891 -0.290540
I8    I     I_    0.208475 0.195749 0.022869 -0.282235
F1    F     F_    0.292154 0.703405 0.556742 -0.620101
F2    F     F_    0.701023 0.709245 0.442355 -0.622132
F3    F     F_    0.792154 0.203405 0.556742 -0.620101
F4    F     F_    0.201023 0.209245 0.442355 -0.622132
F5    F     F_    0.059547 0.869365 0.357676 -0.612692
F6    F     F_    0.963931 0.905505 0.635003 -0.600805
F7    F     F_    0.559547 0.369366 0.357676 -0.612692
F8    F     F_    0.463930 0.405504 0.635003 -0.600805
I9    I     I_    0.083684 0.961843 0.099084 -0.260649
I10   I     I_    0.915743 0.934369 0.886664 -0.253967
I11   I     I_    0.583684 0.461842 0.099085 -0.260650
I12   I     I_    0.415743 0.434369 0.886665 -0.253968

loop_
_geom_bond_atom_site_label_1
_geom_bond_atom_site_label_2
_ccdc_geom_bond_type
C84   H24   S    
C7    C83   D    
C79   O43   A    
Cr3   O3    S    
C59   H16   S    
C6    C82   D    
Cr7   O19   S    
Cr8   O32   S    
C14   C18   A    
Cr9   O33   S    
C35   C36   A    
C53   H1    S    
C15   F7    S    
Cr6   O50   S    
C67   O3    A    
Cr10  O18   S    
C3    O27   A    
C57   C62   D    
Cr12  O36   S    
C2    O26   A    
C15   C19   A    
C66   O38   A    
C12   C23   A    
C59   C64   D    
C50   C54   S    
C60   C63   D    
Cr3   O19   S    
C32   C36   A    
C14   C21   A    
Cr12  O20   S    
C62   H10   S    
C87   C91   D    
C5    F1    S    
C49   C53   S    
C9    C22   A    
Cr11  O39   S    
Cr7   O31   S    
C4    O24   A    
C76   O12   A    
C29   C33   A    
C11   C24   A    
C65   O1    A    
C60   H15   S    
C17   C18   A    
C70   O46   A    
Cr4   O48   S    
C9    C66   S    
C82   H22   S    
C39   I7    S    
C77   O13   A    
C33   H33   S    
C48   O32   A    
Cr1   O41   S    
C39   C55   D    
C88   C92   D    
C75   O11   A    
C40   C56   D    
C90   I2    S    
C86   H18   S    
C77   O41   A    
C23   C24   A    
C46   O34   A    
C85   H17   S    
C8    C92   S    
C39   C75   S    
Cr10  O14   S    
C7    F3    S    
Cr11  O11   S    
C63   H11   S    
C44   C52   D    
C58   C61   D    
Cr5   O49   S    
C29   H30   S    
C1    O21   A    
Cr2   O18   S    
C46   C82   S    
C21   C22   A    
C63   C64   S    
C3    C86   S    
C25   C29   A    
C2    O22   A    
C2    C87   S    
Cr8   O52   S    
C43   H7    S    
Cr4   O44   S    
C41   C49   D    
C9    C26   A    
C80   O16   A    
Cr7   O27   S    
Cr11  O19   S    
C10   C21   A    
C19   H27   S    
C12   C67   S    
Cr11  O35   S    
C54   H2    S    
C12   C27   A    
Cr3   O47   S    
Cr2   O2    S    
Cr6   O18   S    
C28   C32   A    
C86   C90   D    
C59   C79   S    
C30   C34   A    
C78   O14   A    
C4    C85   S    
C40   I8    S    
C16   F8    S    
C25   C26   A    
C6    C90   S    
C27   C31   A    
C64   H12   S    
C34   H34   S    
C58   H13   S    
Cr4   O24   S    
C73   O5    A    
C78   O42   A    
Cr5   O17   S    
C20   H28   S    
C87   H19   S    
C48   C84   S    
C57   C77   S    
Cr4   O4    S    
C5    C81   D    
Cr8   O20   S    
Cr8   O8    S    
C38   C54   D    
C6    F2    S    
C8    F4    S    
C16   C20   A    
C30   H29   S    
C7    C91   S    
C38   I6    S    
C33   C34   A    
C44   C69   S    
Cr12  O16   S    
Cr1   O17   S    
C36   H36   S    
C50   I10   S    
Cr6   O26   S    
C46   O30   A    
C73   O9    A    
C42   C50   D    
C41   C72   S    
C89   I1    S    
C44   H8    S    
C10   C25   A    
Cr11  O15   S    
C15   C24   A    
Cr4   O20   S    
Cr10  O10   S    
Cr1   O21   S    
C88   H20   S    
C16   C23   A    
C37   I5    S    
C14   F6    S    
C61   H9    S    
Cr10  O38   S    
C13   F5    S    
C18   H26   S    
Cr10  O34   S    
Cr9   O13   S    
C69   O49   A    
C69   O45   A    
Cr1   O1    S    
C11   C68   S    
C70   O50   A    
C38   C74   S    
C10   C65   S    
C37   C73   S    
C60   C80   S    
C85   C89   D    
Cr7   O7    S    
Cr3   O43   S    
C81   H21   S    
C1    O25   A    
C8    C84   D    
C4    O28   A    
Cr5   O5    S    
C74   O6    A    
C45   C81   S    
Cr2   O46   S    
C71   O47   A    
C31   H32   S    
C92   I4    S    
C45   O29   A    
C32   H31   S    
C47   O31   A    
C26   C30   A    
C66   O2    A    
C35   H35   S    
C3    O23   A    
C43   C70   S    
C79   O15   A    
Cr6   O6    S    
C91   I3    S    
C13   C17   A    
Cr3   O23   S    
Cr8   O28   S    
C75   O7    A    
Cr12  O12   S    
C19   C20   A    
C42   H6    S    
Cr5   O29   S    
C37   C53   D    
C67   O39   A    
Cr7   O51   S    
C43   C51   D    
Cr12  O40   S    
C65   O37   A    
C11   C28   A    
C1    C88   S    
Cr5   O25   S    
C31   C35   A    
Cr9   O9    S    
C42   C71   S    
C68   O40   A    
C13   C22   A    
C68   O4    A    
C51   C55   S    
C80   O44   A    
C61   C62   S    
C83   H23   S    
Cr9   O37   S    
C72   O48   A    
C58   C78   S    
C47   O35   A    
Cr9   O17   S    
C47   C83   S    
Cr6   O30   S    
C51   I11   S    
C45   O33   A    
C76   O8    A    
C40   C76   S    
C49   I9    S    
C27   C28   A    
C52   I12   S    
C56   H4    S    
C74   O10   A    
C41   H5    S    
C55   H3    S    
C71   O51   A    
Cr2   O42   S    
C72   O52   A    
C17   H25   S    
C5    C89   S    
Cr2   O22   S    
C52   C56   S    
C57   H14   S    
C48   O36   A    
Cr1   O45   S    
