data_mof_unit_13239.cif
_audit_creation_date              2012-12-10T18:52:10-0500
_audit_creation_method            fapswitch 2.2
_symmetry_space_group_name_H-M    P1
_symmetry_Int_Tables_number       1
_space_group_crystal_system       triclinic
_cell_length_a                    15.737586
_cell_length_b                    10.723655
_cell_length_c                    9.842053
_cell_angle_alpha                 90.059925
_cell_angle_beta                  89.974018
_cell_angle_gamma                 90.00291
_cell_volume                      1660.98750918

loop_
_atom_site_label
_atom_site_type_symbol
_atom_type_description
_atom_site_fract_x
_atom_site_fract_y
_atom_site_fract_z
_atom_type_partial_charge
C1    C     C_R   0.499976 0.259864 0.499911 0.866561
C2    C     C_R   0.500024 0.740136 0.500089 0.866561
C3    C     C_R   0.485294 0.935977 0.378359 -0.192050
C4    C     C_R   0.514706 0.064023 0.621641 -0.192050
C5    C     C_R   0.500012 0.872586 0.500079 -0.010686
C6    C     C_R   0.499988 0.127414 0.499921 -0.010686
C7    C     C_R   0.548480 0.583351 0.071966 -0.065308
C8    C     C_R   0.451520 0.416649 0.928034 -0.065308
C9    C     C_R   0.548459 0.583322 0.928081 -0.068270
C10   C     C_R   0.451541 0.416678 0.071918 -0.068270
C11   C     C_R   0.337880 0.500311 0.499999 0.900384
C12   C     C_R   0.662120 0.499689 0.500001 0.900384
C13   C     C_3   0.972819 0.421870 0.601723 -0.491134
C14   C     C_3   0.027181 0.578130 0.398276 -0.491133
C15   C     C_3   0.028743 0.385072 0.478756 0.487131
C16   C     C_3   0.971257 0.614928 0.521244 0.487131
C17   C     C_1   0.249051 0.501675 0.499985 -0.173138
C18   C     C_1   0.750949 0.498325 0.500015 -0.173139
C19   C     C_3   0.027133 0.540926 0.620017 0.486539
C20   C     C_3   0.972867 0.459074 0.379983 0.486539
C21   C     C_3   0.083051 0.502707 0.498916 -0.083348
C22   C     C_3   0.916949 0.497293 0.501084 -0.083348
C23   C     C_1   0.173840 0.502646 0.499661 0.097028
C24   C     C_1   0.826160 0.497354 0.500339 0.097028
C25   C     C_R   0.485270 0.063744 0.378285 -0.186957
C26   C     C_R   0.514730 0.936256 0.621715 -0.186957
H1    H     H_    0.948425 0.359406 0.682688 0.176135
H2    H     H_    0.051575 0.640594 0.317312 0.176135
H3    H     H_    0.473292 0.112240 0.283667 0.154120
H4    H     H_    0.526707 0.887759 0.716333 0.154120
H5    H     H_    0.473358 0.887262 0.283754 0.157691
H6    H     H_    0.526642 0.112738 0.716246 0.157691
H7    H     H_    0.587253 0.649976 0.126492 0.132340
H8    H     H_    0.412746 0.350024 0.873508 0.132340
H9    H     H_    0.587217 0.649927 0.873590 0.127753
H10   H     H_    0.412783 0.350073 0.126410 0.127753
N1    N     N_R   0.499980 0.499970 0.857200 -0.081703
N2    N     N_R   0.500020 0.500030 0.142800 -0.081703
O1    O     O_R   0.499990 0.316750 0.614620 -0.630723
O2    O     O_R   0.500010 0.683250 0.385380 -0.630723
O3    O     O_R   0.500000 0.316780 0.385290 -0.628367
O4    O     O_R   0.500000 0.683220 0.614710 -0.628367
O5    O     O_R   0.376780 0.499970 0.614640 -0.603961
O6    O     O_R   0.623220 0.500030 0.385360 -0.603961
O7    O     O_R   0.376780 0.500000 0.385310 -0.616007
O8    O     O_R   0.623220 0.500000 0.614690 -0.616007
Zn1   Zn    Zn3+2 0.500000 0.499980 0.653120 0.958770
Zn2   Zn    Zn3+2 0.500000 0.500020 0.346880 0.958770
O9    O     O_3   0.066724 0.268264 0.453160 -0.601429
C27   C     C_3   0.004028 0.174726 0.456933 -0.299492
H11   H     H_    0.950597 0.194860 0.386334 0.196013
H12   H     H_    0.979949 0.161403 0.562098 0.161238
H13   H     H_    0.033278 0.085702 0.423775 0.178876
O10   O     O_3   0.933276 0.731736 0.546839 -0.601429
C28   C     C_3   0.995972 0.825274 0.543067 -0.299491
H14   H     H_    0.020052 0.838596 0.437903 0.161238
H15   H     H_    0.049403 0.805140 0.613668 0.196013
H16   H     H_    0.966722 0.914298 0.576224 0.178876
O11   O     O_3   0.936791 0.413904 0.258322 -0.601557
C29   C     C_3   0.001277 0.397991 0.160612 -0.285184
H17   H     H_    0.051368 0.332722 0.196334 0.197662
H18   H     H_    0.029795 0.488962 0.131697 0.159079
H19   H     H_    0.972673 0.356797 0.067902 0.181994
O12   O     O_3   0.063209 0.586096 0.741678 -0.601557
C30   C     C_3   0.998723 0.602008 0.839388 -0.285185
H20   H     H_    0.970205 0.511038 0.868303 0.159079
H21   H     H_    0.948631 0.667277 0.803666 0.197662
H22   H     H_    0.027327 0.643203 0.932098 0.181994

loop_
_geom_bond_atom_site_label_1
_geom_bond_atom_site_label_2
_ccdc_geom_bond_type
C27   H12   S    
C28   H14   S    
C11   O5    A    
C14   C20   S    
N1    Zn1   S    
C4    C26   A    
C15   C21   S    
C19   O12   S    
C10   N2    A    
C30   H22   S    
C16   C22   S    
O12   C30   S    
C3    C5    A    
C22   C24   S    
C28   H15   S    
C27   H11   S    
C30   H20   S    
O11   C29   S    
C12   O6    A    
O6    Zn2   S    
C8    H8    S    
C20   O11   S    
C3    H5    S    
C6    C25   A    
C7    H7    S    
C17   C23   T    
O5    Zn1   S    
C2    O4    A    
C29   H19   S    
C18   C24   T    
C14   C21   S    
C1    O3    A    
C19   C21   S    
O3    Zn2   S    
C20   C22   S    
C13   C22   S    
C26   H4    S    
C14   C16   S    
O4    Zn1   S    
C13   C15   S    
C21   C23   S    
C25   H3    S    
C15   C20   S    
C16   O10   S    
C11   O7    A    
C2    C5    S    
C8    N1    A    
C1    O1    A    
C4    C6    A    
C4    H6    S    
C27   H13   S    
C2    O2    A    
C3    C25   A    
C29   H18   S    
O1    Zn1   S    
O9    C27   S    
O8    Zn1   S    
C28   H16   S    
C12   C18   S    
C1    C6    S    
C7    C9    A    
C13   C19   S    
O2    Zn2   S    
C13   H1    S    
C9    H9    S    
C10   H10   S    
O7    Zn2   S    
C14   H2    S    
O10   C28   S    
N2    Zn2   S    
C7    N2    A    
C8    C10   A    
C11   C17   S    
C9    N1    A    
C5    C26   A    
C15   O9    S    
C29   H17   S    
C30   H21   S    
C12   O8    A    
C16   C19   S    
