data_mof_unit_59575.cif
_audit_creation_date              2012-12-11T16:30:29-0500
_audit_creation_method            fapswitch 2.2
_symmetry_space_group_name_H-M    P1
_symmetry_Int_Tables_number       1
_space_group_crystal_system       triclinic
_cell_length_a                    6.973843
_cell_length_b                    14.594982
_cell_length_c                    15.916859
_cell_angle_alpha                 90.000152
_cell_angle_beta                  89.39314
_cell_angle_gamma                 90.000317
_cell_volume                      1619.97658691

loop_
_atom_site_label
_atom_site_type_symbol
_atom_type_description
_atom_site_fract_x
_atom_site_fract_y
_atom_site_fract_z
_atom_type_partial_charge
O1    O     O_R   0.611670 0.415650 0.164070 -0.528544
O2    O     O_R   0.388330 0.915650 0.835930 -0.528545
O3    O     O_R   0.940950 0.405490 0.337780 -0.509718
O4    O     O_R   0.059050 0.905490 0.662220 -0.509714
O5    O     O_R   0.111350 0.584350 0.338470 -0.529796
O6    O     O_R   0.888650 0.084350 0.661530 -0.529791
C1    C     C_R   0.770578 0.383407 0.367291 0.687649
C2    C     C_R   0.229423 0.883400 0.632715 0.687660
O7    O     O_R   0.941380 0.404630 0.164680 -0.542582
O8    O     O_R   0.058620 0.904630 0.835320 -0.542585
O9    O     O_R   0.111780 0.583470 0.164130 -0.540337
O10   O     O_R   0.888220 0.083470 0.835870 -0.540337
C3    C     C_R   0.773109 0.382753 0.136041 0.694506
C4    C     C_R   0.226890 0.882753 0.863959 0.694497
O11   O     O_R   0.611240 0.416530 0.338400 -0.552994
O12   O     O_R   0.388760 0.916530 0.661600 -0.552997
O13   O     O_3   0.778020 0.558680 0.251290 -0.374761
O14   O     O_3   0.221980 0.058680 0.748710 -0.374760
V1    V     V_3+5 0.052840 0.489110 0.251260 1.487547
V2    V     V_3+5 0.947160 0.989110 0.748740 1.487549
O15   O     O_R   0.441500 0.594510 0.164760 -0.543505
O16   O     O_R   0.558500 0.094510 0.835240 -0.543505
C5    C     C_R   0.273256 0.616163 0.135899 0.682754
C6    C     C_R   0.726744 0.116163 0.864101 0.682754
O17   O     O_R   0.441080 0.595370 0.337860 -0.552747
O18   O     O_R   0.558920 0.095370 0.662140 -0.552747
C7    C     C_R   0.271662 0.615558 0.368342 0.692217
C8    C     C_R   0.728338 0.115559 0.631658 0.692228
V3    V     V_3+5 0.552850 0.510890 0.251270 1.443506
V4    V     V_3+5 0.447150 0.010890 0.748730 1.443506
O19   O     O_3   0.277800 0.441320 0.251250 -0.351028
O20   O     O_3   0.722200 0.941320 0.748750 -0.351034
C9    C     C_3   0.074681 0.675898 0.492536 -0.330412
C10   C     C_3   0.925309 0.175897 0.507461 -0.330409
H1    H     H_    0.946982 0.690968 0.453617 0.189822
H2    H     H_    0.053018 0.190957 0.546377 0.189810
H3    H     H_    0.059470 0.604980 0.515885 0.175617
H4    H     H_    0.940495 0.104981 0.484104 0.175612
C11   C     C_3   0.078718 0.741083 0.569109 -0.317383
C12   C     C_3   0.921277 0.241089 0.430893 -0.317378
H5    H     H_    0.090920 0.700525 0.627735 0.112433
H6    H     H_    0.909074 0.200538 0.372264 0.112436
H7    H     H_    0.940601 0.776065 0.574790 0.215229
H8    H     H_    0.059401 0.276070 0.425216 0.215237
H9    H     H_    0.147082 0.788773 0.353068 0.115308
H10   H     H_    0.852941 0.288767 0.646938 0.115312
C13   C     C_3   0.261084 0.784125 0.401379 -0.372223
C14   C     C_3   0.738934 0.284126 0.598629 -0.372235
C15   C     C_3   0.431388 0.674283 0.499946 -0.327350
C16   C     C_3   0.568600 0.174296 0.500062 -0.327351
C17   C     C_3   0.260558 0.685988 0.438829 0.073542
C18   C     C_3   0.739442 0.185991 0.561175 0.073536
H11   H     H_    0.569063 0.665563 0.465093 0.174329
H12   H     H_    0.430929 0.165582 0.534920 0.174339
H13   H     H_    0.412035 0.607733 0.533362 0.111957
H14   H     H_    0.587932 0.107745 0.466646 0.111946
C19   C     C_3   0.244875 0.812129 0.561459 -0.025361
C20   C     C_3   0.755128 0.312138 0.438549 -0.025366
C21   C     C_3   0.232958 0.858497 0.471371 -0.082426
C22   C     C_3   0.767063 0.358501 0.528640 -0.082427
C23   C     C_3   0.441523 0.756239 0.563910 -0.015564
C24   C     C_3   0.558472 0.256252 0.436100 -0.015563
H15   H     H_    0.398585 0.796281 0.367295 0.171432
H16   H     H_    0.601436 0.296285 0.632714 0.171425
H17   H     H_    0.350889 0.909174 0.464622 0.090196
H18   H     H_    0.649143 0.409181 0.535394 0.090187
H19   H     H_    0.045292 0.577521 0.761978 0.113787
H20   H     H_    0.954694 0.077522 0.238023 0.113788
C25   C     C_R   0.340028 0.935604 0.031586 -0.151941
C26   C     C_R   0.659970 0.435604 0.968414 -0.151943
C27   C     C_R   0.396252 0.963313 0.111399 -0.108345
C28   C     C_R   0.603744 0.463312 0.888602 -0.108345
C29   C     C_R   0.409565 0.899685 0.175994 -0.139546
C30   C     C_R   0.590434 0.399684 0.824007 -0.139546
C31   C     C_R   0.366718 0.807849 0.161265 -0.146971
C32   C     C_R   0.633282 0.307848 0.838735 -0.146973
C33   C     C_R   0.310101 0.777443 0.080814 0.073503
C34   C     C_R   0.689899 0.277443 0.919186 0.073503
C35   C     C_R   0.296411 0.842690 0.014522 0.058600
C36   C     C_R   0.703588 0.342690 0.985478 0.058599
C37   C     C_R   0.263747 0.684149 0.066259 -0.182188
C38   C     C_R   0.736254 0.184149 0.933741 -0.182188
C39   C     C_R   0.203492 0.656237 0.985243 0.056903
C40   C     C_R   0.796506 0.156237 0.014757 0.056902
C41   C     C_R   0.189647 0.721507 0.918955 0.070791
C42   C     C_R   0.810349 0.221507 0.081045 0.070789
C43   C     C_R   0.236364 0.814744 0.933506 -0.178422
C44   C     C_R   0.763634 0.314744 0.066495 -0.178426
C45   C     C_R   0.159573 0.563369 0.968201 -0.151479
C46   C     C_R   0.840424 0.063369 0.031799 -0.151479
C47   C     C_R   0.102611 0.535749 0.888461 -0.118666
C48   C     C_R   0.897382 0.035749 0.111539 -0.118664
C49   C     C_R   0.088839 0.599418 0.823911 -0.125257
C50   C     C_R   0.911150 0.099418 0.176089 -0.125260
C51   C     C_R   0.132260 0.691201 0.838560 -0.108790
C52   C     C_R   0.867731 0.191201 0.161441 -0.108797
H21   H     H_    0.329232 0.988109 0.983904 0.113758
H22   H     H_    0.670765 0.488108 0.016097 0.113758
H23   H     H_    0.428560 0.034688 0.123281 0.142989
H24   H     H_    0.571435 0.534687 0.876721 0.142992
H25   H     H_    0.452413 0.921651 0.238000 0.119982
H26   H     H_    0.547584 0.421649 0.762001 0.119985
H27   H     H_    0.377439 0.761228 0.213752 0.100639
H28   H     H_    0.622562 0.261227 0.786248 0.100639
H29   H     H_    0.170522 0.510856 0.015870 0.115562
H30   H     H_    0.829476 0.010856 0.984129 0.115563
H31   H     H_    0.069968 0.464407 0.876615 0.134064
H32   H     H_    0.930025 0.964408 0.123385 0.134064
H33   H     H_    0.121424 0.737795 0.786007 0.102119
H34   H     H_    0.878565 0.237796 0.213994 0.102123
C53   C     C_2   0.607080 0.819504 0.539217 0.359218
H35   H     H_    0.666429 0.866495 0.584726 0.147700
O21   O     O_2   0.672540 0.820966 0.467721 -0.557261
C54   C     C_2   0.392924 0.319522 0.460795 0.359211
H36   H     H_    0.333581 0.366515 0.415286 0.147701
O22   O     O_2   0.327457 0.320981 0.532291 -0.557259
C55   C     C_2   0.056334 0.915063 0.453701 0.356129
H37   H     H_    0.025955 0.935393 0.389582 0.054178
O23   O     O_2   0.951222 0.942504 0.509720 -0.548095
C56   C     C_2   0.943705 0.415058 0.546309 0.356163
H38   H     H_    0.974097 0.435373 0.610426 0.054201
O24   O     O_2   0.048791 0.442504 0.490292 -0.548122
C57   C     C_2   0.478379 0.716304 0.651143 0.251051
H39   H     H_    0.381164 0.665637 0.677379 0.062098
O25   O     O_2   0.617812 0.738248 0.692465 -0.537429
C58   C     C_2   0.521606 0.216318 0.348867 0.251080
H40   H     H_    0.618816 0.165650 0.322630 0.062088
O26   O     O_2   0.382171 0.238264 0.307548 -0.537427

loop_
_geom_bond_atom_site_label_1
_geom_bond_atom_site_label_2
_ccdc_geom_bond_type
C32   H28   S    
C20   C24   S    
C58   H40   S    
O13   V3    S    
C53   H35   S    
O4    C2    A    
V1    O19   S    
C35   C43   A    
C54   H36   S    
C57   H39   S    
C11   H5    S    
O9    V1    S    
C9    C11   S    
C30   C32   A    
C10   C12   S    
C40   C42   A    
C4    C43   S    
C24   C54   S    
O3    C1    A    
C55   O23   D    
C13   H15   S    
C42   C44   A    
C57   O25   D    
C20   C22   S    
C11   C19   S    
O7    V1    S    
H9    C13   S    
C25   C27   A    
C6    C38   S    
O7    C3    A    
C14   H16   S    
O13   V1    S    
O5    C7    A    
C48   H32   S    
O6    C8    A    
O8    V2    S    
C15   C17   S    
C16   C18   S    
C14   C22   S    
O14   V4    S    
C45   C47   A    
C5    C37   S    
C1    C20   S    
C10   H2    S    
C8    C18   S    
C30   H26   S    
C1    O11   A    
C22   H18   S    
C2    O12   A    
C31   H27   S    
C29   C31   A    
C40   C46   A    
C48   C50   A    
C37   C39   A    
C7    C17   S    
O11   V3    S    
C12   H8    S    
C33   C35   A    
O17   V3    S    
C39   C45   A    
H10   C14   S    
C15   C23   S    
C41   C43   A    
C26   C36   A    
C47   H31   S    
C12   C20   S    
C46   H30   S    
C28   C30   A    
C51   H33   S    
C27   C29   A    
C13   C17   S    
C15   H13   S    
C52   H34   S    
C16   H14   S    
C9    C17   S    
C50   C52   A    
C2    C19   S    
C47   C49   A    
C34   C38   A    
C46   C48   A    
C33   C37   A    
V3    O19   S    
O10   V2    S    
O1    V3    S    
C34   C36   A    
C53   O21   D    
C16   H12   S    
O3    V1    S    
C31   C33   A    
C42   C52   A    
C39   C41   A    
O18   V4    S    
C38   C40   A    
O15   C5    A    
O8    C4    A    
C16   C24   S    
O16   C6    A    
C25   C35   A    
O1    C3    A    
C23   C53   S    
C56   H38   S    
C56   O24   D    
C24   C58   S    
V2    O20   S    
C58   O26   D    
C29   H25   S    
O16   V4    S    
C10   H4    S    
O18   C8    A    
C32   C34   A    
C12   H6    S    
C28   H24   S    
C54   O22   D    
C19   C23   S    
O5    V1    S    
O17   C7    A    
O6    V2    S    
O10   C6    A    
C10   C18   S    
C23   C57   S    
O2    V4    S    
C36   C44   A    
C55   H37   S    
C21   H17   S    
V4    O20   S    
C41   C51   A    
C49   C51   A    
O15   V3    S    
C15   H11   S    
C3    C44   S    
O9    C5    A    
C9    H1    S    
C22   C56   S    
O14   V2    S    
C27   H23   S    
O2    C4    A    
C9    H3    S    
C19   C21   S    
C13   C21   S    
O4    V2    S    
C14   C18   S    
C11   H7    S    
C21   C55   S    
H20   C50   S    
C45   H29   S    
H19   C49   S    
C26   C28   A    
O12   V4    S    
C26   H22   S    
C25   H21   S    
