data_mof_unit_11961.cif
_audit_creation_date              2012-12-10T17:38:20-0500
_audit_creation_method            fapswitch 2.2
_symmetry_space_group_name_H-M    P1
_symmetry_Int_Tables_number       1
_space_group_crystal_system       triclinic
_cell_length_a                    12.388007
_cell_length_b                    13.065033
_cell_length_c                    19.320195
_cell_angle_alpha                 75.680294
_cell_angle_beta                  101.412507
_cell_angle_gamma                 116.553529
_cell_volume                      2696.43700451

loop_
_atom_site_label
_atom_site_type_symbol
_atom_type_description
_atom_site_fract_x
_atom_site_fract_y
_atom_site_fract_z
_atom_type_partial_charge
C1    C     C_R   0.855041 0.285076 0.505982 0.824217
C2    C     C_R   0.013992 0.517893 0.707381 -0.296141
C3    C     C_R   0.995051 0.488333 0.072078 0.529602
C4    C     C_R   0.005085 0.501949 0.931191 0.520834
C5    C     C_R   0.045309 0.428123 0.201785 0.455324
C6    C     C_R   0.044617 0.432015 0.273438 -0.346066
C7    C     C_R   0.999829 0.502856 0.290887 -0.166002
C8    C     C_R   0.953009 0.570627 0.235374 0.067553
C9    C     C_R   0.941886 0.557168 0.163690 0.433845
C10   C     C_R   0.991431 0.488871 0.147196 -0.177243
C11   C     C_R   0.276230 0.038087 0.414650 -0.275097
C12   C     C_R   0.004445 0.505980 0.631977 0.880776
C13   C     C_R   0.226894 0.839321 0.476603 -0.151337
C14   C     C_R   0.812310 0.069910 0.541296 0.182669
C15   C     C_R   0.729611 0.953404 0.547225 -0.149201
C16   C     C_R   0.607897 0.922953 0.525138 -0.233597
C17   C     C_R   0.564434 0.008383 0.492730 0.102945
C18   C     C_R   0.649757 0.125458 0.475310 0.041508
C19   C     C_R   0.438624 0.980196 0.475024 0.095973
C20   C     C_R   0.400220 0.065207 0.432486 0.088283
C21   C     C_R   0.486175 0.175263 0.406520 -0.213123
C22   C     C_R   0.608956 0.204222 0.426313 -0.179358
C23   C     C_R   0.144657 0.714706 0.489651 0.801185
C24   C     C_R   0.349829 0.869723 0.499096 -0.330294
C25   C     C_R   0.188745 0.925696 0.437018 0.494131
C26   C     C_R   0.773030 0.159165 0.506107 -0.137084
C27   C     C_R   0.310374 0.285739 0.584605 0.106428
C28   C     C_R   0.768638 0.657718 0.409051 -0.035348
C29   C     C_R   0.674571 0.692965 0.385147 0.009663
C30   C     C_R   0.561486 0.626757 0.412787 0.514395
C31   C     C_R   0.546139 0.530100 0.470029 -0.213601
C32   C     C_R   0.645253 0.495883 0.491701 0.099249
C33   C     C_R   0.436631 0.465045 0.506578 -0.057683
C34   C     C_R   0.001089 0.502526 0.367324 0.835340
C35   C     C_R   0.415796 0.353160 0.548003 0.067507
C36   C     C_R   0.505099 0.313875 0.557309 -0.345199
C37   C     C_R   0.624295 0.392685 0.545598 0.542051
C38   C     C_R   0.346779 0.505238 0.504853 0.026897
C39   C     C_R   0.229215 0.333423 0.581582 0.087787
C40   C     C_R   0.112758 0.512872 0.757394 0.422890
C41   C     C_R   0.108261 0.504245 0.830915 0.360668
C42   C     C_R   0.011060 0.512185 0.853844 -0.217787
C43   C     C_R   0.919470 0.529879 0.802665 0.458917
C44   C     C_R   0.922660 0.533459 0.730011 -0.372088
Cu1   Cu    Cu3+1 0.098280 0.475420 0.516260 0.945597
Cu2   Cu    Cu3+1 0.901720 0.524580 0.483740 0.972665
H1    H     H_    0.458505 0.239435 0.370698 0.137376
H2    H     H_    0.247047 0.103203 0.381715 0.151951
H3    H     H_    0.374243 0.804615 0.535509 0.163786
H4    H     H_    0.550571 0.830932 0.532188 0.144461
H5    H     H_    0.758488 0.884429 0.571832 0.144049
H6    H     H_    0.670759 0.287898 0.400407 0.166841
H7    H     H_    0.149533 0.286005 0.609974 0.141673
H8    H     H_    0.487772 0.226296 0.584832 0.175758
H9    H     H_    0.355045 0.589667 0.476204 0.201799
H10   H     H_    0.854343 0.706869 0.386309 0.197712
H11   H     H_    0.852428 0.547410 0.691084 0.209910
H12   H     H_    0.077961 0.378332 0.315764 0.179615
N1    N     N_R   0.897109 0.464480 0.957315 -0.188732
N2    N     N_R   0.892186 0.458339 0.026423 -0.226344
N3    N     N_R   0.102856 0.524307 0.046535 -0.222779
N4    N     N_R   0.107638 0.531172 0.977348 -0.210893
N5    N     N_R   0.246290 0.438200 0.540910 -0.217564
N6    N     N_R   0.754310 0.561190 0.459520 -0.208431
O1    O     O_R   0.972510 0.318130 0.520450 -0.590028
O2    O     O_R   0.806530 0.359650 0.492990 -0.532909
O3    O     O_R   0.083010 0.479220 0.613590 -0.540576
O4    O     O_R   0.917030 0.520740 0.586130 -0.521987
O5    O     O_R   0.193470 0.640350 0.507010 -0.601710
O6    O     O_R   0.027490 0.681870 0.479550 -0.552551
O7    O     O_R   0.082970 0.479260 0.413870 -0.581527
O8    O     O_R   0.916990 0.520780 0.386410 -0.592422
O9    O     O_3   0.210918 0.508698 0.736208 -0.534429
C45   C     C_3   0.289847 0.622872 0.706577 -0.288084
H13   H     H_    0.247757 0.658361 0.655963 0.157906
H14   H     H_    0.371932 0.620372 0.693716 0.183435
H15   H     H_    0.319671 0.683880 0.744763 0.120146
C46   C     C_3   0.939761 0.093749 0.574846 -0.870130
H16   H     H_    0.951651 0.012586 0.599462 0.215265
H17   H     H_    0.004379 0.141411 0.533393 0.242380
H18   H     H_    0.961049 0.143239 0.618526 0.238599
C47   C     C_3   0.283596 0.165275 0.628239 -0.926829
H19   H     H_    0.356168 0.169053 0.673026 0.241751
H20   H     H_    0.196145 0.126809 0.652054 0.237620
H21   H     H_    0.277506 0.106537 0.593316 0.238556
O10   O     O_3   0.189436 0.471908 0.881173 -0.535937
C48   C     C_3   0.301852 0.568965 0.887904 -0.207750
H22   H     H_    0.342924 0.557983 0.944178 0.183337
H23   H     H_    0.294306 0.653692 0.876177 0.121241
H24   H     H_    0.364935 0.571337 0.853422 0.182007
O11   O     O_3   0.466964 0.657112 0.381376 -0.587431
C49   C     C_3   0.395196 0.584110 0.331350 -0.343722
H25   H     H_    0.351788 0.491624 0.358113 0.158840
H26   H     H_    0.321475 0.610830 0.304733 0.204730
H27   H     H_    0.448977 0.592288 0.288859 0.153103
C50   C     C_3   0.694367 0.800901 0.328948 -0.792494
H28   H     H_    0.788770 0.844673 0.313837 0.226960
H29   H     H_    0.631891 0.778321 0.279806 0.243094
H30   H     H_    0.676950 0.863351 0.349980 0.254538
O12   O     O_3   0.718950 0.370563 0.587233 -0.525097
C51   C     C_3   0.692789 0.302784 0.656474 -0.367873
H31   H     H_    0.645647 0.208696 0.653720 0.166644
H32   H     H_    0.640566 0.329673 0.683341 0.150616
H33   H     H_    0.779385 0.314916 0.690382 0.189929
O13   O     O_3   0.832788 0.552584 0.823835 -0.547597
C52   C     C_3   0.715117 0.469912 0.805474 -0.267984
H34   H     H_    0.709121 0.379680 0.817085 0.148068
H35   H     H_    0.684138 0.493693 0.748303 0.148527
H36   H     H_    0.651649 0.470673 0.838382 0.196337
O14   O     O_3   0.085925 0.355364 0.184314 -0.550583
C53   C     C_3   0.210182 0.388936 0.208281 -0.285524
H37   H     H_    0.223401 0.359170 0.267075 0.140483
H38   H     H_    0.264041 0.484594 0.193495 0.149549
H39   H     H_    0.246018 0.345957 0.181757 0.197364
C54   C     C_3   0.921007 0.661064 0.251231 -0.770175
H40   H     H_    0.832722 0.618032 0.274359 0.222565
H41   H     H_    0.992994 0.712404 0.289235 0.230897
H42   H     H_    0.913703 0.724437 0.202399 0.259972
O15   O     O_3   0.892706 0.618954 0.108433 -0.561883
C55   C     C_3   0.765015 0.559406 0.104319 -0.271502
H43   H     H_    0.732975 0.467137 0.098913 0.167052
H44   H     H_    0.726127 0.602676 0.055900 0.196081
H45   H     H_    0.729220 0.562982 0.151632 0.150952
O16   O     O_3   0.067557 0.898450 0.414520 -0.582560
C56   C     C_3   0.022989 0.940438 0.457920 -0.318627
H46   H     H_    0.924437 0.914053 0.442154 0.198181
H47   H     H_    0.067246 0.037127 0.450036 0.161290
H48   H     H_    0.034361 0.902183 0.515711 0.159066

loop_
_geom_bond_atom_site_label_1
_geom_bond_atom_site_label_2
_ccdc_geom_bond_type
C48   H22   S    
C51   H31   S    
Cu1   O7    S    
C41   C42   A    
C23   O5    A    
C35   C36   A    
C18   C26   A    
C2    C12   S    
C28   H10   S    
C7    C8    A    
C39   H7    S    
Cu1   Cu2   S    
C41   O10   S    
C12   O4    A    
C45   H14   S    
C28   C29   A    
C16   H4    S    
Cu2   O2    S    
C43   O13   S    
C5    C6    A    
C46   H17   S    
C52   H34   S    
C11   C25   A    
C15   C16   A    
C50   H30   S    
C4    N4    A    
C40   O9    S    
C13   C23   S    
O9    C45   S    
C6    H12   S    
O14   C53   S    
C49   H25   S    
C8    C54   S    
C17   C19   A    
C38   H9    S    
C19   C20   A    
C2    C44   A    
C8    C9    A    
C54   H41   S    
C45   H15   S    
C50   H29   S    
Cu1   O3    S    
C56   H48   S    
C1    O1    A    
C31   C33   A    
C15   H5    S    
C9    C10   A    
Cu2   O8    S    
C55   H45   S    
C46   H18   S    
C3    N2    A    
C52   H35   S    
N1    N2    A    
C51   H32   S    
C21   C22   A    
C23   O6    A    
C13   C25   A    
C11   H2    S    
C55   H44   S    
C1    O2    A    
C3    N3    A    
C12   O3    A    
C11   C20   A    
C45   H13   S    
Cu1   O5    S    
C32   N6    A    
C27   C39   A    
O11   C49   S    
O10   C48   S    
C16   C17   A    
C27   C35   A    
Cu1   N5    S    
C49   H27   S    
C13   C24   A    
Cu2   N6    S    
C43   C44   A    
Cu2   O4    S    
C29   C30   A    
C31   C32   A    
C44   H11   S    
C54   H42   S    
C50   H28   S    
C49   H26   S    
C17   C18   A    
C53   H38   S    
C32   C37   A    
C14   C26   A    
C28   N6    A    
C40   C41   A    
C51   H33   S    
C47   H20   S    
C48   H23   S    
Cu1   O1    S    
C1    C26   S    
C9    O15   S    
C7    C34   S    
C42   C43   A    
C34   O8    A    
C55   H43   S    
C22   H6    S    
C38   N5    A    
C24   H3    S    
C36   C37   A    
C53   H37   S    
C18   C22   A    
C27   C47   S    
C30   O11   S    
C29   C50   S    
O15   C55   S    
C6    C7    A    
C47   H21   S    
C39   N5    A    
O13   C52   S    
C33   C38   A    
C19   C24   A    
C5    C10   A    
C3    C10   S    
C46   H16   S    
C30   C31   A    
C56   H46   S    
C4    C42   S    
C4    N1    A    
O12   C51   S    
C33   C35   A    
C53   H39   S    
C14   C46   S    
N3    N4    A    
C25   O16   S    
Cu2   O6    S    
C36   H8    S    
C2    C40   A    
C20   C21   A    
C47   H19   S    
C5    O14   S    
C48   H24   S    
C56   H47   S    
C14   C15   A    
C34   O7    A    
C37   O12   S    
C54   H40   S    
O16   C56   S    
C21   H1    S    
C52   H36   S    
