data_mof_unit_62725.cif
_audit_creation_date              2013-03-05T16:06:57-0500
_audit_creation_method            fapswitch 2.2
_symmetry_space_group_name_H-M    P1
_symmetry_Int_Tables_number       1
_space_group_crystal_system       triclinic
_cell_length_a                    8.520509
_cell_length_b                    15.058874
_cell_length_c                    26.851
_cell_angle_alpha                 98.667597
_cell_angle_beta                  92.261199
_cell_angle_gamma                 80.776167
_cell_volume                      3361.43277279

loop_
_atom_site_label
_atom_site_type_symbol
_atom_site_description
_atom_site_fract_x
_atom_site_fract_y
_atom_site_fract_z
_atom_type_partial_charge
P1    P     P_3+3 0.071960 0.575810 0.612130 0.686837
O1    O     O_2   0.906490 0.548660 0.619040 -0.213880
O2    O     O_3   0.138490 0.548590 0.558860 -0.374244
O3    O     O_3   0.686290 0.382320 0.585720 -0.352879
O4    O     O_2   0.736492 0.450413 0.680669 -0.193151
O5    O     O_3   0.039461 0.694682 0.633689 -0.535925
O6    O     O_3   0.754366 0.271992 0.659867 -0.387019
H1    H     H_    0.758378 0.205515 0.586352 0.204270
C1    C     C_3   0.748980 0.111444 0.638496 -0.923986
H2    H     H_    0.879984 0.092346 0.639609 0.312252
H3    H     H_    0.700565 0.110503 0.676180 0.345930
P2    P     P_3+3 0.664360 0.290070 0.457280 0.523566
P3    P     P_3+3 0.154945 0.218816 0.554610 0.369210
O7    O     O_2   0.844020 0.276410 0.471510 -0.298918
O8    O     O_3   0.101490 0.335510 0.560360 -0.402359
O9    O     O_2   0.047344 0.182105 0.512290 -0.191449
O10   O     O_3   0.666386 0.269072 0.391267 -0.525075
O11   O     O_3   0.089589 0.180577 0.607182 -0.574013
C2    C     C_3   0.198210 0.195235 0.647128 0.927997
H4    H     H_    0.190144 0.269476 0.660642 -0.051000
H5    H     H_    0.322353 0.165705 0.635800 -0.007938
C3    C     C_3   0.156167 0.148134 0.690062 -1.361023
H6    H     H_    0.035606 0.178776 0.704196 0.351698
H7    H     H_    0.158185 0.074289 0.676600 0.338429
C4    C     C_3   0.283596 0.257193 0.375203 0.669584
H8    H     H_    0.370839 0.296256 0.395982 0.053515
C5    C     C_3   0.285801 0.170819 0.398971 -1.016145
H9    H     H_    0.211975 0.124865 0.376410 0.341960
H10   H     H_    0.409501 0.134064 0.400642 0.251368
H11   H     H_    0.234640 0.188511 0.437205 0.277280
Ba1   Ba    Ba6+2 0.860050 0.456430 0.522540 1.617081
C6    C     C_3   0.055561 0.746258 0.595224 0.184718
H12   H     H_    0.141534 0.708624 0.568305 0.263583
C7    C     C_3   0.104998 0.839138 0.615715 -0.063281
H13   H     H_    0.052922 0.867387 0.652830 0.176452
H14   H     H_    0.070406 0.888986 0.589153 0.107549
H15   H     H_    0.234266 0.833319 0.619978 0.069416
C8    C     C_3   0.705658 0.345145 0.373057 0.300206
H16   H     H_    0.823688 0.358431 0.387809 0.112512
H17   H     H_    0.615830 0.406261 0.384302 0.075670
C9    C     C_3   0.709392 0.327702 0.315679 -0.227572
H18   H     H_    0.747596 0.385375 0.301104 0.121682
H19   H     H_    0.588668 0.323634 0.300094 0.179635
P4    P     P_3+3 0.117760 0.424110 0.387870 0.691748
O12   O     O_2   0.283210 0.451320 0.380930 -0.336836
O13   O     O_3   0.051220 0.451340 0.441130 -0.457054
O14   O     O_3   0.503420 0.617610 0.414270 -0.350002
O15   O     O_3   0.126797 0.305194 0.377920 -0.576532
P5    P     P_3+3 0.016146 0.780052 0.439744 0.412857
O16   O     O_3   0.617160 0.609950 0.527080 -0.287660
O17   O     O_3   0.088220 0.664410 0.439630 -0.274173
O18   O     O_2   0.112776 0.830984 0.481598 -0.282852
O19   O     O_3   0.072143 0.813273 0.384014 -0.466971
Ba2   Ba    Ba6+2 0.329780 0.543490 0.477450 1.640714
P6    P     P_3+3 0.650979 0.377429 0.648591 0.547847
C10   C     C_3   0.702512 0.205201 0.623028 0.261813
H20   H     H_    0.570855 0.216086 0.618117 0.023825
H21   H     H_    0.699404 0.060370 0.610632 0.273265
O20   O     O_3   0.572560 0.389970 0.472910 -0.423499
C11   C     C_3   0.544512 0.749441 0.654976 0.442294
C12   C     C_3   0.599256 0.825009 0.695759 0.371026
H22   H     H_    0.607451 0.799486 0.732854 0.080277
P7    P     P_3+3 0.522612 0.724773 0.545862 0.609682
O21   O     O_2   0.345680 0.723560 0.528460 -0.449441
O22   O     O_3   0.511852 0.786520 0.608761 -0.587175
H23   H     H_    0.243388 0.155372 0.721623 0.353923
C13   C     C_3   0.975208 0.782630 0.343054 0.589862
H24   H     H_    0.878298 0.749172 0.354406 -0.049173
C14   C     C_3   0.892130 0.863938 0.318090 0.086258
H25   H     H_    0.830068 0.838055 0.283042 0.056395
H26   H     H_    0.799579 0.905413 0.343341 -0.009673
P8    P     P_3+3 0.534694 0.607770 0.349150 0.607767
C15   C     C_3   0.482755 0.781853 0.340881 0.841293
H27   H     H_    0.612047 0.768833 0.349089 0.734943
O23   O     O_2   0.461323 0.523882 0.324201 -0.314531
O24   O     O_3   0.416149 0.700970 0.326775 -0.462533
H28   H     H_    0.510457 0.901844 0.307366 0.097422
C16   C     C_3   0.459916 0.837870 0.297231 -0.101442
H29   H     H_    0.331738 0.854910 0.287991 0.139185
H30   H     H_    0.521689 0.800111 0.263232 0.114205
C17   C     C_R   0.108845 0.483420 0.188920 0.629837
O25   O     O_2   0.215578 0.485302 0.220609 -0.510222
N1    N     N_R   0.951623 0.492837 0.203662 -0.196881
C18   C     C_R   0.833788 0.488486 0.166521 0.535937
C19   C     C_2   0.785347 0.575641 0.275224 0.321116
C20   C     C_3   0.750016 0.596464 0.331541 0.100873
C21   C     C_1   0.979916 0.480080 0.343904 0.247978
C22   C     C_2   0.007087 0.459005 0.294838 -0.516236
C23   C     C_2   0.909719 0.510332 0.257389 0.086048
C24   C     C_R   0.024816 0.484326 0.100829 -0.176331
C25   C     C_R   0.147119 0.473131 0.137164 0.129430
C26   C     C_R   0.304693 0.452959 0.120994 -0.275727
C27   C     C_R   0.866585 0.495125 0.116186 0.077499
C28   C     C_2   0.856779 0.537593 0.363437 -0.482376
H31   H     H_    0.094394 0.400468 0.281181 0.323088
H32   H     H_    0.401603 0.440949 0.147688 0.285586
C29   C     C_2   0.337734 0.463323 0.634743 -0.817690
C30   C     C_R   0.256031 0.462160 0.981312 0.082792
C31   C     C_R   0.971678 0.509236 0.963053 -0.097334
C32   C     C_R   0.130952 0.484947 0.946504 0.202261
C33   C     C_R   0.413005 0.440622 0.962934 -0.574493
C34   C     C_R   0.446212 0.444068 0.912972 0.022515
C35   C     C_R   0.323895 0.464922 0.878262 0.029210
C36   C     C_R   0.165748 0.484226 0.894662 -0.301111
C37   C     C_R   0.043246 0.505542 0.859460 0.290644
C38   C     C_R   0.079367 0.490603 0.807273 0.276481
N2    N     N_R   0.235927 0.472011 0.791358 -0.075510
C39   C     C_R   0.357056 0.467040 0.827382 0.480468
C40   C     C_2   0.388178 0.394139 0.715585 0.243916
C41   C     C_3   0.430886 0.388981 0.660569 0.210796
C42   C     C_1   0.208393 0.513998 0.655038 0.189915
C43   C     C_2   0.180448 0.523803 0.704028 0.201123
C44   C     C_2   0.272859 0.461185 0.737441 -0.111316
O26   O     O_2   0.494390 0.464017 0.815131 -0.537699
C45   C     C_R   0.220803 0.463506 0.033163 -0.102942
C46   C     C_R   0.060551 0.484189 0.049140 0.204329
C47   C     C_R   0.935441 0.504882 0.014103 0.133860
C48   C     C_R   0.340214 0.444857 0.070039 -0.114767
H33   H     H_    0.569056 0.427939 0.901277 0.146797
H34   H     H_    0.514164 0.420400 0.986140 0.295989
H35   H     H_    0.463389 0.424065 0.060887 0.120001
O27   O     O_2   0.700382 0.478450 0.177203 -0.566975
C49   C     C_R   0.744256 0.513534 0.081208 -0.098147
H36   H     H_    0.621742 0.527232 0.092896 0.173554
C50   C     C_R   0.854954 0.541310 0.928292 -0.406700
C51   C     C_R   0.889757 0.541616 0.877875 0.195217
O28   O     O_2   0.971389 0.490579 0.776063 -0.523924
C52   C     C_R   0.777480 0.519813 0.031555 -0.402838
H37   H     H_    0.736196 0.571295 0.939801 0.250376
H38   H     H_    0.097732 0.582054 0.720899 0.106883
H39   H     H_    0.675939 0.534966 0.007450 0.186075
H40   H     H_    0.833023 0.546852 0.403387 0.147612
H41   H     H_    0.377818 0.472539 0.598232 0.361368
C53   C     C_R   0.357402 0.174861 0.531505 -0.020634
H42   H     H_    0.386835 0.307162 0.517219 0.160537
H43   H     H_    0.225879 0.040704 0.561979 0.178479
C54   C     C_R   0.580448 0.206391 0.487850 0.067488
C55   C     C_R   0.714989 0.760218 0.471459 -0.195745
C56   C     C_R   0.802753 0.817520 0.453060 0.130889
C57   C     C_R   0.740341 0.908998 0.454633 -0.319254
C58   C     C_R   0.611666 0.950717 0.486192 0.423780
C59   C     C_R   0.530531 0.892044 0.508941 -0.205369
C60   C     C_R   0.561466 0.047850 0.496648 -0.295669
C61   C     C_R   0.417175 0.080971 0.523312 0.049369
C62   C     C_R   0.335337 0.019711 0.541817 -0.212628
C63   C     C_R   0.393549 0.928445 0.536266 0.476143
C64   C     C_R   0.648675 0.113434 0.482372 0.291781
C65   C     C_R   0.438902 0.236073 0.513533 -0.316538
C66   C     C_R   0.586507 0.797312 0.503091 0.188119
H44   H     H_    0.760170 0.688032 0.466660 0.169294
H45   H     H_    0.798043 0.944861 0.431150 0.178348
H46   H     H_    0.324769 0.886645 0.552386 -0.036200
N3    N     N_R   0.906913 0.758260 0.568556 0.159843
O29   O     O_R   0.811529 0.835914 0.575252 -0.448229
O30   O     O_R   0.853962 0.683103 0.549817 -0.348429
I1    I     I_    0.865592 0.205508 0.288434 -0.150399
I2    I     I_    0.343779 0.719537 0.691622 -0.334076
N4    N     N_R   0.654470 0.664634 0.650061 0.293238
O31   O     O_R   0.747231 0.648370 0.688580 -0.376585
O32   O     O_R   0.606348 0.595121 0.622384 -0.377542
N5    N     N_R   0.481235 0.908664 0.700828 0.243898
O33   O     O_R   0.445854 0.953812 0.663036 -0.410252
O34   O     O_R   0.414682 0.940208 0.744073 -0.367198
N6    N     N_R   0.756724 0.845645 0.686485 0.257578
O35   O     O_R   0.769046 0.922910 0.671676 -0.365068
O36   O     O_R   0.878484 0.805496 0.710023 -0.335012
N7    N     N_R   0.072935 0.715008 0.307431 0.203967
O37   O     O_R   0.111592 0.733162 0.264008 -0.345004
O38   O     O_R   0.134610 0.637783 0.321430 -0.260695
N8    N     N_R   0.003886 0.921787 0.306558 0.297893
O39   O     O_R   0.026255 0.930639 0.260016 -0.305289
O40   O     O_R   0.063974 0.974394 0.342831 -0.273617
N9    N     N_R   0.403880 0.834354 0.385763 0.328882
O41   O     O_R   0.371922 0.792337 0.421855 -0.435363
O42   O     O_R   0.379181 0.923020 0.392596 -0.401986
I3    I     I_    0.485706 0.278292 0.750360 -0.453934
N10   N     N_R   0.702557 0.636024 0.243031 0.289178
O43   O     O_R   0.552635 0.634589 0.232491 -0.360927
O44   O     O_R   0.780861 0.683507 0.219157 -0.523888
I4    I     I_    0.713447 0.618527 0.836217 -0.300308
N11   N     N_R   0.813369 0.089089 0.470208 0.239773
O45   O     O_R   0.862823 0.099003 0.426427 -0.308976
O46   O     O_R   0.909169 0.043715 0.499833 -0.355523
I5    I     I_    0.343127 0.215532 0.296889 -0.298099

loop_
_geom_bond_atom_site_label_1
_geom_bond_atom_site_label_2
_geom_bond_distance
_ccdc_geom_bond_type
O5    C6    1.405656 S    
C21   C22   1.328364 D    
P7    O22   1.799165 S    
C33   C34   1.392150 A    
C5    H10   1.111745 S    
C12   N6    1.463595 S    
C45   C48   1.416750 A    
P3    C53   1.842119 S    
C59   C63   1.393657 A    
C54   C65   1.389179 A    
C42   C43   1.328057 D    
O6    P6    1.750454 S    
O7    Ba1   2.868706 S    
P8    O24   1.761466 S    
H1    C10   1.111542 S    
C62   C63   1.372101 A    
C24   C25   1.406859 A    
C40   I3    2.137931 S    
C49   H36   1.080755 S    
N7    O38   1.300023 A    
C34   C35   1.400033 A    
C54   C64   1.415240 A    
C19   C20   1.529168 S    
C55   H44   1.083524 S    
C60   C64   1.430496 A    
O16   Ba2   2.983188 S    
Ba2   O21   2.868989 S    
P3    O11   1.744768 S    
C12   N5    1.473000 S    
C59   C66   1.416855 A    
N6    O35   1.305694 A    
C2    H5    1.114887 S    
C11   N4    1.449671 S    
C7    H13   1.103458 S    
C58   C60   1.444442 A    
C8    H16   1.103405 S    
C29   C42   1.321458 D    
O2    Ba2   2.762459 S    
C16   H30   1.104222 S    
N8    O39   1.301133 A    
C18   O27   1.221071 D    
C45   C46   1.419528 A    
C7    H15   1.093640 S    
C21   C28   1.319530 D    
N11   O45   1.301515 A    
C32   C36   1.432727 A    
C46   C47   1.421713 A    
P1    O1    1.554886 D    
C9    H18   1.102961 S    
C39   O26   1.219985 D    
C14   H26   1.108289 S    
C26   C48   1.396035 A    
C3    H23   1.109405 S    
C20   C28   1.501916 S    
N5    O34   1.301873 A    
P2    O20   1.584135 S    
P7    C66   1.851125 S    
C31   C32   1.418597 A    
N10   O44   1.300846 A    
Ba1   O13   2.761859 S    
P2    O10   1.753241 S    
N2    C39   1.387337 Am   
C51   I4    2.132942 S    
C35   C39   1.411996 A    
C24   C46   1.432208 A    
C6    N3    1.429558 S    
N3    O30   1.308354 A    
P4    C21   1.832115 S    
C1    H2    1.107518 S    
H43   C62   1.075444 S    
C4    I5    2.158048 S    
C40   C44   1.370440 D    
C14   N8    1.460134 S    
C9    I1    2.139736 S    
C64   N11   1.430181 S    
N9    O42   1.303787 A    
C22   H31   1.085708 S    
C8    H17   1.110241 S    
N9    O41   1.294052 A    
C5    H11   1.109329 S    
N4    O32   1.302015 A    
O16   P7    1.793262 S    
C9    H19   1.102474 S    
C14   H25   1.110580 S    
O6    C10   1.411881 S    
P8    O23   1.549354 D    
C36   C37   1.411422 A    
C17   N1    1.391174 Am   
P4    O13   1.532129 S    
N5    O33   1.304191 A    
Ba2   O20   2.835566 S    
N11   O46   1.303735 A    
C55   C66   1.402209 A    
C29   H41   1.086103 S    
N1    C23   1.474447 S    
C18   C27   1.412176 A    
C13   H24   1.108195 S    
N2    C44   1.473060 S    
C2    C3    1.523447 S    
C57   C58   1.416636 A    
C8    C9    1.524089 S    
C31   C50   1.414986 A    
N7    O37   1.303022 A    
C19   C23   1.372428 D    
C16   H29   1.108215 S    
O11   C2    1.404116 S    
P5    O17   1.750838 S    
C4    H8    1.103834 S    
H28   C16   1.110093 S    
C38   O28   1.219810 D    
C17   O25   1.221388 D    
P1    O5    1.776959 S    
C11   C12   1.570340 S    
C13   C14   1.543268 S    
C48   H35   1.073182 S    
C6    C7    1.541123 S    
P1    Ba1   3.416602 S    
C50   H37   1.076764 S    
C31   C47   1.430235 A    
N1    C18   1.388983 Am   
C4    O15   1.412422 S    
C15   C16   1.533137 S    
P5    O18   1.548799 D    
O13   Ba2   2.995901 S    
P2    Ba1   3.451395 S    
C1    C10   1.518951 S    
C11   I2    2.146988 S    
O2    Ba1   2.995110 S    
C1    H3    1.110561 S    
C57   H45   1.069208 S    
O14   Ba2   2.758773 S    
C63   H46   1.071174 S    
C37   C51   1.411475 A    
P2    O7    1.551845 D    
O12   Ba2   2.794967 S    
H42   C65   1.082552 S    
C30   C32   1.424048 A    
P5    C56   1.847618 S    
O3    P6    1.740820 S    
N4    O31   1.305445 A    
C15   O24   1.419392 S    
C3    H7    1.113887 S    
C10   H20   1.112906 S    
Ba1   O16   2.836129 S    
C52   H39   1.075439 S    
C25   C26   1.399609 A    
P4    O12   1.555265 D    
C24   C27   1.402685 A    
C43   C44   1.508399 S    
Ba1   O20   2.983990 S    
C1    H21   1.111521 S    
C15   H27   1.106904 S    
C3    H6    1.112750 S    
C33   H34   1.074523 S    
O4    P6    1.550023 D    
C27   C49   1.397835 A    
C61   C62   1.398516 A    
C11   O22   1.435564 S    
P8    C20   1.887473 S    
C56   C57   1.389833 A    
O8    Ba1   2.787585 S    
C4    C5    1.530000 S    
C30   C33   1.415057 A    
C53   C65   1.389409 A    
C37   C38   1.423268 A    
O17   Ba2   2.788215 S    
C43   H38   1.085646 S    
C6    H12   1.079571 S    
C2    H4    1.114154 S    
P3    O8    1.728154 S    
P6    C41   1.891196 S    
P4    O15   1.759913 S    
C58   C59   1.422496 A    
P1    C42   1.848211 S    
C13   N7    1.463800 S    
C29   C41   1.506609 S    
C30   C45   1.432275 A    
C50   C51   1.398078 A    
N8    O40   1.302477 A    
P5    O19   1.753748 S    
N6    O36   1.305236 A    
C26   H32   1.082946 S    
C7    H14   1.110347 S    
O10   C8    1.402852 S    
Ba1   Ba2   4.663290 S    
C15   N9    1.461306 S    
C12   H22   1.116231 S    
O19   C13   1.415001 S    
C47   C52   1.415123 A    
C28   H40   1.083571 S    
O14   P8    1.759646 S    
O3    Ba1   2.759328 S    
C55   C56   1.382879 A    
C53   C61   1.411054 A    
P7    O21   1.562705 D    
C17   C25   1.419943 A    
P4    Ba2   3.416988 S    
C22   C23   1.503213 S    
C19   N10   1.433462 S    
N10   O43   1.300315 A    
C38   N2    1.389125 Am   
P3    O9    1.525890 D    
C49   C52   1.393907 A    
C35   C36   1.405990 A    
P2    C54   1.849262 S    
O1    Ba1   2.794650 S    
P1    O2    1.532334 S    
N3    O29   1.305293 A    
C40   C41   1.522977 S    
C34   H33   1.083799 S    
C60   C61   1.427618 A    
C5    H9    1.106652 S    
