data_mof_unit_34744.cif
_audit_creation_date              2012-12-11T15:21:19-0500
_audit_creation_method            fapswitch 2.2
_symmetry_space_group_name_H-M    P1
_symmetry_Int_Tables_number       1
_space_group_crystal_system       triclinic
_cell_length_a                    18.367644
_cell_length_b                    18.337976
_cell_length_c                    51.34306
_cell_angle_alpha                 89.803891
_cell_angle_beta                  89.967024
_cell_angle_gamma                 120.056147
_cell_volume                      14968.1173413

loop_
_atom_site_label
_atom_site_type_symbol
_atom_type_description
_atom_site_fract_x
_atom_site_fract_y
_atom_site_fract_z
_atom_type_partial_charge
C1    C     C_R   0.408006 0.584409 0.288029 0.531552
C2    C     C_R   0.409013 0.584407 0.212431 0.520803
C3    C     C_R   0.082618 0.522298 0.365383 0.230124
C4    C     C_R   0.117276 0.540862 0.131261 0.232339
C5    C     C_R   0.651057 0.497567 0.672763 -0.129194
C6    C     C_R   0.624206 0.522134 0.820993 -0.184110
C7    C     C_R   0.501226 0.398787 0.672246 -0.097577
C8    C     C_R   0.503454 0.383790 0.828643 -0.079683
C9    C     C_R   0.498678 0.417065 0.645904 0.461490
C10   C     C_R   0.494842 0.407750 0.853552 0.428591
C11   C     C_R   0.572825 0.473539 0.632589 0.199832
C12   C     C_R   0.550988 0.488904 0.862676 0.250211
C13   C     C_R   0.567783 0.604822 0.487504 0.056651
C14   C     C_R   0.442385 0.535426 0.007351 0.061315
C15   C     C_R   0.569580 0.547011 0.469657 -0.016801
C16   C     C_R   0.494613 0.523583 0.025103 -0.010211
C17   C     C_R   0.580672 0.480050 0.478722 0.028503
C18   C     C_R   0.555548 0.504070 0.015883 0.029819
C19   C     C_R   0.540413 0.660175 0.478444 0.395897
C20   C     C_R   0.395134 0.571567 0.016822 0.442020
C21   C     C_R   0.583257 0.439833 0.433516 -0.096220
C22   C     C_R   0.589387 0.489233 0.060870 -0.097279
C23   C     C_R   0.575018 0.391858 0.516301 -0.154090
C24   C     C_R   0.640783 0.504346 0.978599 -0.150600
C25   C     C_R   0.041278 0.488308 0.446810 -0.069278
C26   C     C_R   0.077686 0.506456 0.049814 -0.067111
C27   C     C_R   0.575594 0.378288 0.543099 0.027103
C28   C     C_R   0.653266 0.501331 0.951917 0.019778
C29   C     C_R   0.590547 0.429119 0.460048 -0.127820
C30   C     C_R   0.600186 0.484121 0.034288 -0.131356
C31   C     C_R   0.591056 0.175458 0.712615 0.592345
C32   C     C_R   0.590718 0.174864 0.787544 0.577079
C33   C     C_R   0.824376 0.415703 0.712331 0.551399
C34   C     C_R   0.824944 0.415830 0.787543 0.558362
C35   C     C_R   0.585196 0.408461 0.712065 0.540076
C36   C     C_R   0.584144 0.408641 0.787593 0.551977
C37   C     C_R   0.984706 0.426341 0.429495 -0.014502
C38   C     C_R   0.021003 0.444974 0.067414 -0.012538
C39   C     C_R   0.915266 0.353691 0.439519 -0.046754
C40   C     C_R   0.950753 0.372730 0.057803 -0.044646
C41   C     C_R   0.111781 0.561146 0.436874 -0.022198
C42   C     C_R   0.149394 0.578389 0.059422 -0.025284
C43   C     C_R   0.133059 0.560809 0.313091 0.003737
C44   C     C_R   0.144955 0.567772 0.185183 0.002324
C45   C     C_R   0.868958 0.428400 0.687307 -0.116625
C46   C     C_R   0.873506 0.430502 0.811844 -0.105281
C47   C     C_R   0.932610 0.405613 0.510756 0.042965
C48   C     C_R   0.963062 0.426655 0.986966 0.039324
C49   C     C_R   0.076776 0.521392 0.518676 0.033767
C50   C     C_R   0.107335 0.540488 0.977493 0.043089
C51   C     C_R   0.996694 0.459882 0.528216 -0.033926
C52   C     C_R   0.025712 0.479722 0.968833 -0.038144
C53   C     C_R   0.175642 0.591183 0.287685 0.541641
C54   C     C_R   0.177607 0.592467 0.211951 0.546325
C55   C     C_R   0.850957 0.352842 0.520790 -0.076196
C56   C     C_R   0.879743 0.376174 0.978085 -0.085823
C57   C     C_R   0.834675 0.348561 0.547355 -0.091350
C58   C     C_R   0.860362 0.371392 0.951805 -0.094471
C59   C     C_R   0.899000 0.397431 0.564944 0.046403
C60   C     C_R   0.923353 0.417214 0.933386 0.044512
C61   C     C_R   0.980502 0.452869 0.555427 -0.051879
C62   C     C_R   0.006333 0.471752 0.941830 -0.054609
C63   C     C_R   0.045755 0.501609 0.573037 -0.033066
C64   C     C_R   0.069774 0.518322 0.923354 -0.032559
C65   C     C_R   0.028180 0.495588 0.599895 0.500979
C66   C     C_R   0.049331 0.509647 0.896646 0.499499
C67   C     C_R   0.883191 0.393647 0.591839 0.489638
C68   C     C_R   0.904689 0.410982 0.906696 0.496861
C69   C     C_R   0.907855 0.369388 0.651154 0.398958
C70   C     C_R   0.917846 0.375827 0.847967 0.392934
C71   C     C_R   0.878328 0.363079 0.676580 -0.117002
C72   C     C_R   0.882188 0.365477 0.823257 -0.119143
C73   C     C_R   0.894055 0.502065 0.672582 -0.107527
C74   C     C_R   0.905447 0.507667 0.825034 -0.107890
C75   C     C_R   0.414989 0.823159 0.287818 0.556513
C76   C     C_R   0.415014 0.823014 0.212041 0.554382
C77   C     C_R   0.923499 0.508326 0.647140 0.397270
C78   C     C_R   0.940786 0.517915 0.849751 0.397914
C79   C     C_R   0.928587 0.441175 0.636117 0.239086
C80   C     C_R   0.945304 0.451360 0.861616 0.248603
C81   C     C_R   0.951751 0.408131 0.483828 0.029456
C82   C     C_R   0.984950 0.428059 0.013490 0.029573
C83   C     C_R   0.026970 0.477785 0.474105 -0.076869
C84   C     C_R   0.061702 0.496532 0.022600 -0.075373
C85   C     C_R   0.087431 0.537668 0.491454 0.037748
C86   C     C_R   0.121383 0.556040 0.004769 0.054707
C87   C     C_R   0.899020 0.343967 0.466156 0.363728
C88   C     C_R   0.933064 0.363606 0.031340 0.364120
C89   C     C_R   0.166282 0.623837 0.454096 -0.052967
C90   C     C_R   0.204351 0.640156 0.041836 -0.069337
C91   C     C_R   0.143239 0.562501 0.536781 0.439244
C92   C     C_R   0.171394 0.581329 0.958442 0.410850
C93   C     C_R   0.127324 0.553750 0.563460 -0.048669
C94   C     C_R   0.152347 0.570917 0.931946 -0.077655
C95   C     C_R   0.153726 0.613430 0.480875 0.433371
C96   C     C_R   0.190084 0.630441 0.015075 0.458819
C97   C     C_R   0.999361 0.438068 0.402487 0.435001
C98   C     C_R   0.035793 0.456850 0.094326 0.432974
C99   C     C_R   0.399529 0.954502 0.405609 0.507889
C100  C     C_R   0.419879 0.973183 0.095008 0.507594
C101  C     C_R   0.492241 0.898562 0.410014 0.489401
C102  C     C_R   0.441437 0.856082 0.087704 0.492897
C103  C     C_R   0.508991 0.937831 0.350918 0.396968
C104  C     C_R   0.502019 0.907841 0.145034 0.380934
C105  C     C_R   0.502027 0.914715 0.324684 -0.116703
C106  C     C_R   0.499116 0.889511 0.171586 -0.131005
C107  C     C_R   0.351139 0.827018 0.329952 -0.123666
C108  C     C_R   0.351990 0.850321 0.172823 -0.123119
C109  C     C_R   0.358147 0.847962 0.356220 0.395828
C110  C     C_R   0.354658 0.867896 0.146293 0.397197
C111  C     C_R   0.437196 0.902865 0.367038 0.239848
C112  C     C_R   0.429234 0.895254 0.132139 0.252635
C113  C     C_R   0.449302 0.944255 0.448622 -0.051585
C114  C     C_R   0.433024 0.934552 0.050661 -0.052823
C115  C     C_R   0.395171 0.960278 0.433023 0.037402
C116  C     C_R   0.415468 0.984279 0.067846 0.040092
C117  C     C_R   0.340517 0.983287 0.445431 0.011697
C118  C     C_R   0.397451 0.045095 0.057143 0.012639
C119  C     C_R   0.124798 0.571012 0.409813 0.440746
C120  C     C_R   0.162568 0.588525 0.086532 0.452793
C121  C     C_R   0.498576 0.914122 0.436931 0.017359
C122  C     C_R   0.445850 0.870193 0.060686 -0.004472
C123  C     C_R   0.423074 0.858555 0.314074 -0.105616
C124  C     C_R   0.423562 0.858815 0.185634 -0.108311
C125  C     C_R   0.561715 0.136451 0.687127 0.027611
C126  C     C_R   0.556109 0.126082 0.811919 0.015191
C127  C     C_R   0.416504 0.010730 0.514594 0.023893
C128  C     C_R   0.447212 0.038953 0.986585 0.025413
C129  C     C_R   0.502186 0.943546 0.519035 0.050476
C130  C     C_R   0.445979 0.906986 0.978931 0.004302
C131  C     C_R   0.461757 0.984066 0.530416 0.031446
C132  C     C_R   0.449680 0.980870 0.969159 0.039763
C133  C     C_R   0.383373 0.057524 0.526142 -0.161608
C134  C     C_R   0.462014 0.116950 0.976805 -0.152690
C135  C     C_R   0.391075 0.075212 0.552762 0.001847
C136  C     C_R   0.476348 0.137042 0.950367 0.014115
C137  C     C_R   0.430453 0.042487 0.569161 0.043896
C138  C     C_R   0.468980 0.074920 0.932292 0.039296
C139  C     C_R   0.466452 0.997461 0.557766 -0.060084
C140  C     C_R   0.455659 0.996424 0.941891 -0.061241
C141  C     C_R   0.082208 0.590419 0.353113 -0.030409
C142  C     C_R   0.113376 0.607409 0.143210 -0.040775
C143  C     C_R   0.507329 0.965621 0.573663 0.045377
C144  C     C_R   0.448698 0.933422 0.924393 0.037072
C145  C     C_R   0.525536 0.993578 0.599686 0.466737
C146  C     C_R   0.466498 0.954917 0.897731 0.459717
C147  C     C_R   0.434854 0.052010 0.596540 0.464264
C148  C     C_R   0.473703 0.087657 0.905030 0.455353
C149  C     C_R   0.537874 0.153530 0.641711 -0.046785
C150  C     C_R   0.580567 0.074450 0.852809 -0.063531
C151  C     C_R   0.561794 0.186916 0.666582 -0.183027
C152  C     C_R   0.608127 0.109807 0.828133 -0.174188
C153  C     C_R   0.535689 0.051435 0.682746 0.382057
C154  C     C_R   0.473801 0.101430 0.820385 0.373717
C155  C     C_R   0.509077 0.017174 0.657886 0.004477
C156  C     C_R   0.446414 0.065595 0.845060 0.009359
C157  C     C_R   0.510953 0.068286 0.637061 0.157595
C158  C     C_R   0.500395 0.054064 0.861647 0.170996
C159  C     C_R   0.406667 0.990825 0.487607 0.026141
C160  C     C_R   0.432197 0.018245 0.013456 0.027097
C161  C     C_R   0.454492 0.958454 0.475946 0.030500
C162  C     C_R   0.438892 0.949788 0.023395 0.039350
C163  C     C_R   0.107173 0.609582 0.327178 -0.123310
C164  C     C_R   0.126971 0.620767 0.169957 -0.125846
C165  C     C_R   0.508294 0.941247 0.491439 0.055115
C166  C     C_R   0.453700 0.898067 0.006188 0.010511
C167  C     C_R   0.348463 0.000016 0.472099 -0.145255
C168  C     C_R   0.408785 0.062917 0.030517 -0.150276
C169  C     C_R   0.556018 0.903501 0.452041 -0.106356
C170  C     C_R   0.467784 0.824383 0.043783 -0.060192
C171  C     C_R   0.529105 0.900471 0.535586 -0.080415
C172  C     C_R   0.427886 0.841454 0.961410 -0.135575
C173  C     C_R   0.531362 0.909980 0.562586 0.024500
C174  C     C_R   0.426947 0.852587 0.934510 0.011629
C175  C     C_R   0.565753 0.922433 0.478554 0.016208
C176  C     C_R   0.477113 0.841036 0.016975 0.025777
C177  C     C_R   0.523902 0.620774 0.407108 0.435481
C178  C     C_R   0.424939 0.568336 0.088365 0.439651
C179  C     C_R   0.551048 0.508168 0.397910 0.431536
C180  C     C_R   0.525653 0.524042 0.096955 0.433675
C181  C     C_R   0.430452 0.496905 0.353810 -0.024359
C182  C     C_R   0.431431 0.488253 0.149716 -0.022020
C183  C     C_R   0.397180 0.498718 0.329329 -0.008251
C184  C     C_R   0.419190 0.495205 0.176433 -0.018595
C185  C     C_R   0.127874 0.489145 0.324977 -0.140086
C186  C     C_R   0.145380 0.499039 0.173217 -0.132417
C187  C     C_R   0.518330 0.638951 0.322328 -0.141047
C188  C     C_R   0.473199 0.645557 0.169901 -0.140157
C189  C     C_R   0.549174 0.636171 0.346892 -0.049232
C190  C     C_R   0.485854 0.637683 0.143611 -0.046592
C191  C     C_R   0.504525 0.565862 0.362942 0.206533
C192  C     C_R   0.463048 0.558781 0.133255 0.200077
C193  C     C_R   0.558071 0.554956 0.442628 -0.048381
C194  C     C_R   0.486877 0.532741 0.052248 -0.044545
C195  C     C_R   0.538086 0.615686 0.433813 -0.026686
C196  C     C_R   0.432458 0.560330 0.061409 -0.027085
C197  C     C_R   0.527872 0.666667 0.452012 -0.055219
C198  C     C_R   0.388871 0.581812 0.043425 -0.047053
C199  C     C_R   0.564692 0.500911 0.424545 0.044493
C200  C     C_R   0.534291 0.515160 0.070139 0.048599
C201  C     C_R   0.441193 0.571981 0.313227 -0.023907
C202  C     C_R   0.437482 0.574621 0.186447 -0.029074
C203  C     C_R   0.577708 0.437761 0.685813 -0.079624
C204  C     C_R   0.569537 0.439712 0.812398 -0.055234
C205  C     C_R   0.587326 0.601089 0.514093 0.062170
C206  C     C_R   0.443564 0.515869 0.980595 0.050141
C207  C     C_R   0.103165 0.470263 0.351001 -0.054481
C208  C     C_R   0.131776 0.485855 0.146480 -0.041370
C209  C     C_R   0.579399 0.465350 0.506041 0.014096
C210  C     C_R   0.570401 0.506142 0.988664 0.013554
C211  C     C_R   0.582638 0.526147 0.523660 0.006107
C212  C     C_R   0.513393 0.510405 0.971040 0.004660
C213  C     C_R   0.612169 0.669262 0.531628 0.052708
C214  C     C_R   0.377644 0.500195 0.962924 0.045317
C215  C     C_R   0.605526 0.653766 0.558391 -0.117970
C216  C     C_R   0.392490 0.503365 0.936183 -0.129867
C217  C     C_R   0.587423 0.575025 0.568263 0.021632
C218  C     C_R   0.466337 0.508891 0.926381 0.019493
C219  C     C_R   0.581553 0.512543 0.550980 -0.054455
C220  C     C_R   0.525515 0.508175 0.943759 -0.054641
C221  C     C_R   0.574390 0.436968 0.560947 0.042500
C222  C     C_R   0.596215 0.505021 0.933923 0.045494
C223  C     C_R   0.564665 0.422918 0.588272 0.488855
C224  C     C_R   0.607154 0.506798 0.906529 0.500588
C225  C     C_R   0.581243 0.559899 0.595221 0.437893
C226  C     C_R   0.478654 0.508233 0.899420 0.508421
C227  C     C_R   0.649873 0.514766 0.646185 -0.020501
C228  C     C_R   0.614857 0.548066 0.845911 0.002358
Cr1   Cr    Cr6+3 0.456550 0.732290 0.250000 1.046260
Cr2   Cr    Cr6+3 0.275740 0.543450 0.250000 1.038375
Cr3   Cr    Cr6+3 0.267710 0.724260 0.250000 1.051373
Cr4   Cr    Cr6+3 0.543450 0.275740 0.750000 1.132018
Cr5   Cr    Cr6+3 0.724260 0.267710 0.750000 1.078076
Cr6   Cr    Cr6+3 0.732290 0.456550 0.750000 1.054363
H1    H     H_    0.146549 0.449925 0.314571 0.130034
H2    H     H_    0.159833 0.457497 0.184272 0.151647
H3    H     H_    0.065876 0.630645 0.364033 0.164845
H4    H     H_    0.101267 0.649713 0.131664 0.168060
H5    H     H_    0.218107 0.682593 0.446851 0.200064
H6    H     H_    0.257651 0.698037 0.048806 0.181108
H7    H     H_    0.887314 0.553299 0.680266 0.203189
H8    H     H_    0.899819 0.559022 0.816764 0.185142
H9    H     H_    0.179671 0.587510 0.576656 0.204663
H10   H     H_    0.203203 0.603700 0.918088 0.206788
H11   H     H_    0.289649 0.782173 0.322421 0.170764
H12   H     H_    0.292526 0.825947 0.182971 0.173102
H13   H     H_    0.103585 0.417393 0.360303 0.151685
H14   H     H_    0.134566 0.434022 0.137454 0.156154
H15   H     H_    0.582473 0.252920 0.669690 0.134560
H16   H     H_    0.671713 0.128100 0.822295 0.169975
H17   H     H_    0.541206 0.194450 0.625928 0.216449
H18   H     H_    0.623030 0.066448 0.865555 0.172062
H19   H     H_    0.355753 0.086264 0.514374 0.095012
H20   H     H_    0.469467 0.166302 0.989886 0.097227
H21   H     H_    0.303980 0.015024 0.480746 0.107699
H22   H     H_    0.393412 0.108807 0.023101 0.104068
H23   H     H_    0.558264 0.939495 0.312798 0.177444
H24   H     H_    0.555088 0.896289 0.180872 0.179737
H25   H     H_    0.598299 0.886303 0.442723 0.160067
H26   H     H_    0.483498 0.779233 0.051797 0.199752
H27   H     H_    0.545199 0.855781 0.527607 0.150585
H28   H     H_    0.409737 0.779149 0.968733 0.205085
H29   H     H_    0.872991 0.303401 0.426696 0.201729
H30   H     H_    0.908691 0.322519 0.070826 0.200673
H31   H     H_    0.487680 0.951108 0.654780 0.198187
H32   H     H_    0.384242 0.049775 0.851737 0.181558
H33   H     H_    0.554199 0.695498 0.310770 0.153090
H34   H     H_    0.487369 0.706873 0.176981 0.150501
H35   H     H_    0.606785 0.689864 0.353759 0.159493
H36   H     H_    0.511283 0.692716 0.131086 0.186412
H37   H     H_    0.507735 0.710430 0.445928 0.188433
H38   H     H_    0.350940 0.608425 0.049860 0.176880
H39   H     H_    0.710723 0.527296 0.682904 0.194304
H40   H     H_    0.674676 0.565995 0.808374 0.138987
H41   H     H_    0.620092 0.705272 0.571617 0.156603
H42   H     H_    0.343108 0.495315 0.922898 0.161384
H43   H     H_    0.859657 0.305627 0.687449 0.187165
H44   H     H_    0.858414 0.305444 0.813562 0.175103
H45   H     H_    0.396025 0.443271 0.366673 0.173886
H46   H     H_    0.415804 0.427840 0.141471 0.188163
H47   H     H_    0.590496 0.398578 0.420024 0.175219
H48   H     H_    0.625263 0.473523 0.074190 0.172597
H49   H     H_    0.571095 0.343073 0.503712 0.091233
H50   H     H_    0.688217 0.505757 0.991322 0.098525
H51   H     H_    0.443933 0.352159 0.681766 0.181390
H52   H     H_    0.460684 0.319633 0.822635 0.200372
H53   H     H_    0.605433 0.381128 0.465296 0.119365
H54   H     H_    0.642452 0.462075 0.028725 0.115145
H55   H     H_    0.771049 0.306794 0.554061 0.202020
H56   H     H_    0.795467 0.331431 0.945970 0.197901
H57   H     H_    0.797328 0.317241 0.508383 0.198950
H58   H     H_    0.827449 0.342702 0.991266 0.196460
H59   H     H_    0.110135 0.665056 0.318615 0.154293
H60   H     H_    0.127021 0.674755 0.178456 0.157113
N1    N     N_R   0.068489 0.510039 0.393031 -0.385851
N2    N     N_R   0.105377 0.528429 0.103553 -0.381319
N3    N     N_R   0.947434 0.442858 0.608850 -0.341496
N4    N     N_R   0.967462 0.456700 0.888731 -0.343552
N5    N     N_R   0.444176 0.920065 0.394654 -0.353999
N6    N     N_R   0.430235 0.908389 0.104418 -0.344890
N7    N     N_R   0.488501 0.035384 0.610888 -0.394729
N8    N     N_R   0.477783 0.030614 0.888531 -0.400747
N9    N     N_R   0.529649 0.566725 0.389597 -0.387923
N10   N     N_R   0.471216 0.550027 0.105717 -0.386385
N11   N     N_R   0.570708 0.484948 0.604816 -0.390238
N12   N     N_R   0.547520 0.505776 0.889931 -0.345130
O1    O     O_R   0.475290 0.813700 0.278840 -0.499245
O2    O     O_R   0.475290 0.813700 0.221160 -0.506057
O3    O     O_2   0.186583 0.633603 0.401114 -0.444910
O4    O     O_2   0.224847 0.650644 0.095029 -0.454075
O5    O     O_2   0.084418 0.537350 0.615336 -0.443435
O6    O     O_2   0.104096 0.549121 0.880434 -0.433729
O7    O     O_2   0.365878 0.982282 0.391346 -0.417628
O8    O     O_2   0.417675 0.022718 0.110375 -0.418497
O9    O     O_2   0.390474 0.073932 0.607812 -0.422953
O10   O     O_2   0.474133 0.149304 0.895791 -0.426316
O11   O     O_2   0.529533 0.865884 0.400191 -0.433555
O12   O     O_2   0.448334 0.797722 0.096458 -0.456410
O13   O     O_2   0.577367 0.984479 0.611979 -0.437276
O14   O     O_2   0.474343 0.907716 0.882752 -0.434777
O15   O     O_2   0.504605 0.672055 0.399463 -0.470849
O16   O     O_2   0.376675 0.590815 0.096466 -0.467701
O17   O     O_2   0.585688 0.613518 0.610273 -0.459791
O18   O     O_2   0.427638 0.508868 0.884259 -0.448105
O19   O     O_2   0.557344 0.461912 0.382098 -0.488294
O20   O     O_2   0.567206 0.509611 0.112552 -0.497490
O21   O     O_2   0.549389 0.355249 0.597479 -0.398691
O22   O     O_2   0.669648 0.509565 0.897233 -0.424995
O23   O     O_R   0.448450 0.657720 0.276690 -0.490686
O24   O     O_R   0.448450 0.657720 0.223310 -0.489162
O25   O     O_R   0.524710 0.338410 0.721160 -0.495196
O26   O     O_R   0.524710 0.338410 0.778840 -0.479763
O27   O     O_R   0.551550 0.209270 0.723310 -0.492353
O28   O     O_R   0.551550 0.209270 0.776690 -0.422609
O29   O     O_R   0.661590 0.186300 0.721160 -0.463605
O30   O     O_R   0.661590 0.186300 0.778840 -0.511986
O31   O     O_R   0.790730 0.342280 0.723310 -0.495694
O32   O     O_R   0.790730 0.342280 0.776690 -0.494923
O33   O     O_R   0.813700 0.475290 0.721160 -0.502149
O34   O     O_R   0.813700 0.475290 0.778840 -0.498941
O35   O     O_R   0.657720 0.448450 0.723310 -0.497475
O36   O     O_R   0.657720 0.448450 0.776690 -0.490984
O37   O     O_3   0.666667 0.333333 0.750000 -0.269510
O38   O     O_R   0.338410 0.524710 0.278840 -0.525822
O39   O     O_R   0.338410 0.524710 0.221160 -0.514631
O40   O     O_R   0.209270 0.551550 0.276690 -0.498397
O41   O     O_R   0.209270 0.551550 0.223310 -0.490852
O42   O     O_R   0.186300 0.661590 0.278840 -0.510111
O43   O     O_R   0.186300 0.661590 0.221160 -0.508994
O44   O     O_R   0.342280 0.790730 0.276690 -0.488995
O45   O     O_R   0.342280 0.790730 0.223310 -0.491005
O46   O     O_3   0.333333 0.666667 0.250000 -0.240756
O47   O     O_2   0.950253 0.384842 0.387344 -0.490619
O48   O     O_2   0.986026 0.404190 0.109636 -0.496972
O49   O     O_2   0.812085 0.347312 0.600171 -0.450915
O50   O     O_2   0.832344 0.365360 0.899367 -0.434111
F1    F     F_    0.225013 0.604312 0.529155 -0.538444
F2    F     F_    0.254047 0.624191 0.964810 -0.566844
F3    F     F_    0.942759 0.577843 0.632706 -0.554193
F4    F     F_    0.965818 0.590824 0.862839 -0.567209
F5    F     F_    0.201126 0.681972 0.495854 -0.554696
F6    F     F_    0.238120 0.699054 0.000028 -0.564420
F7    F     F_    0.288179 0.811718 0.371426 -0.554458
F8    F     F_    0.283571 0.854717 0.134088 -0.573375
C229  C     C_2   0.269455 0.984826 0.432216 0.308088
H61   H     H_    0.252791 0.031758 0.437682 0.099323
O51   O     O_2   0.225203 0.930362 0.416636 -0.387743
C230  C     C_2   0.361887 0.088881 0.072245 0.308075
H62   H     H_    0.381009 0.153915 0.067688 0.097593
O52   O     O_2   0.306652 0.051292 0.088446 -0.388542
C231  C     C_2   0.361349 0.132949 0.561589 0.287812
H63   H     H_    0.304920 0.127992 0.553109 0.117348
O53   O     O_2   0.402333 0.190168 0.576763 -0.396132
C232  C     C_2   0.503999 0.225848 0.943427 0.308722
H64   H     H_    0.474753 0.257743 0.952809 0.097980
O54   O     O_2   0.563706 0.266044 0.928872 -0.380825
F9    F     F_    0.585778 0.992834 0.360758 -0.569299
F10   F     F_    0.575077 0.935734 0.131686 -0.582167
F11   F     F_    0.534992 0.001720 0.702498 -0.576753
F12   F     F_    0.420510 0.114029 0.805237 -0.587724
C233  C     C_2   0.553333 0.855525 0.578213 0.329985
H65   H     H_    0.597012 0.837631 0.570464 0.083291
O55   O     O_2   0.519113 0.825899 0.599077 -0.402240
C234  C     C_2   0.397702 0.775956 0.918366 0.332894
H66   H     H_    0.411701 0.727450 0.924362 0.124335
O56   O     O_2   0.352719 0.763241 0.899442 -0.404115
C235  C     C_2   0.644749 0.934528 0.490391 0.250359
H67   H     H_    0.673561 0.899594 0.482973 0.169432
O57   O     O_2   0.681380 0.987456 0.507194 -0.462936
C236  C     C_2   0.525348 0.810107 0.001779 0.265071
H68   H     H_    0.553531 0.838596 0.983209 0.112519
O58   O     O_2   0.537225 0.754642 0.010254 -0.484644
C237  C     C_2   0.729966 0.572028 0.632485 0.308527
H69   H     H_    0.731647 0.579045 0.611484 0.131303
O59   O     O_2   0.795593 0.612146 0.644513 -0.438143
C238  C     C_2   0.673265 0.636453 0.853662 0.307147
H70   H     H_    0.726756 0.676530 0.841340 0.121265
O60   O     O_2   0.661803 0.666342 0.873393 -0.450509
C239  C     C_2   0.659223 0.758822 0.523219 0.305472
H71   H     H_    0.662261 0.807668 0.535769 0.100143
O61   O     O_2   0.698997 0.779411 0.502842 -0.488806
C240  C     C_2   0.288547 0.465771 0.970960 0.348772
H72   H     H_    0.244693 0.470425 0.957858 0.130165
O62   O     O_2   0.261986 0.427588 0.991487 -0.479167
F13   F     F_    0.518097 0.702911 0.495144 -0.637246
F14   F     F_    0.360958 0.604485 0.000463 -0.575293
C241  C     C_2   0.314692 0.424703 0.322537 0.247868
H73   H     H_    0.267311 0.431542 0.312181 0.137345
O63   O     O_2   0.297364 0.354007 0.329462 -0.467963
C242  C     C_2   0.389437 0.419978 0.193504 0.263702
H74   H     H_    0.392610 0.426327 0.214519 0.139928
O64   O     O_2   0.362116 0.349754 0.184277 -0.465584
C243  C     C_2   0.582266 0.303718 0.550798 0.302264
H75   H     H_    0.548173 0.245554 0.539894 0.097781
O65   O     O_2   0.630640 0.308262 0.567847 -0.452048
C244  C     C_2   0.726166 0.491747 0.944544 0.298920
H76   H     H_    0.786755 0.531270 0.953674 0.095659
O66   O     O_2   0.717806 0.435554 0.930001 -0.384613
F15   F     F_    0.424412 0.377182 0.632980 -0.546426
F16   F     F_    0.434302 0.349993 0.869511 -0.569594
F17   F     F_    0.912969 0.304191 0.640738 -0.559393
F18   F     F_    0.921899 0.310880 0.859205 -0.577076
F19   F     F_    0.835367 0.268219 0.474289 -0.622950
F20   F     F_    0.868543 0.288301 0.023448 -0.628841

loop_
_geom_bond_atom_site_label_1
_geom_bond_atom_site_label_2
_ccdc_geom_bond_type
C2    O39   A    
C194  C196  A    
C63   C65   A    
C21   C29   A    
Cr5   O37   S    
C33   C45   S    
C185  C207  A    
C2    C202  S    
C39   C87   A    
C55   H57   S    
C170  C176  A    
C171  C173  A    
C177  O15   D    
C188  H34   S    
C214  C240  S    
C189  H35   S    
C18   C210  A    
C84   C86   A    
Cr1   O24   S    
C4    C142  A    
C57   C59   A    
C205  C211  A    
C58   C60   A    
C108  H12   S    
C177  N9    Am   
C106  H24   S    
C105  C123  A    
C178  N10   Am   
C61   C63   A    
C21   H47   S    
C7    C203  A    
C12   C228  A    
C65   N3    Am   
C49   C51   A    
C50   C52   A    
C159  C161  A    
C177  C195  A    
C46   C72   A    
C1    O23   A    
C206  C214  A    
C243  O65   D    
C182  C192  A    
C49   C91   A    
C105  H23   S    
C230  H62   S    
C20   F14   S    
C4    C208  A    
C77   C79   A    
C98   N2    Am   
C167  H21   S    
Cr2   O40   S    
C183  C201  A    
C127  C133  A    
C8    C204  A    
C133  H19   S    
C53   O40   A    
C181  H45   S    
C26   C38   A    
C182  H46   S    
C212  C220  A    
C193  C199  A    
C68   N4    Am   
Cr5   O32   S    
C75   O44   A    
C207  H13   S    
C64   C66   A    
Cr1   O1    S    
C137  C139  A    
C92   C94   A    
C216  H42   S    
C112  N6    S    
Cr4   O27   S    
C35   O25   A    
C155  H31   S    
C138  C140  A    
C126  C154  A    
C185  H1    S    
C110  F8    S    
C82   C84   A    
C70   F18   S    
C76   O45   A    
C22   H48   S    
C233  H65   S    
C194  C200  A    
C192  N10   S    
C143  C173  A    
C235  H67   S    
Cr4   O26   S    
Cr2   O38   S    
C135  C137  A    
C187  C201  A    
C227  C237  S    
C54   O43   A    
C36   O26   A    
C147  O9    D    
C238  O60   D    
C234  O56   D    
C150  H18   S    
C226  N12   Am   
C34   O32   A    
C237  H69   S    
C180  N10   Am   
C2    O24   A    
C186  C208  A    
C3    C207  A    
C244  H76   S    
C225  O17   D    
C156  C158  A    
C64   C94   A    
C229  H61   S    
C99   C115  A    
C40   C88   A    
C33   O31   A    
C8    H52   S    
C188  C202  A    
C159  C167  A    
C72   H44   S    
C47   C81   A    
C127  C131  A    
C99   N5    Am   
C113  C161  A    
C74   H8    S    
C206  C212  A    
C48   C52   A    
C156  H32   S    
C8    C10   A    
C106  C124  A    
C133  C135  A    
C73   C77   A    
C228  C238  S    
C189  C191  A    
C15   C17   A    
C218  C226  A    
C161  C165  A    
C76   O2    A    
C41   C89   A    
C147  N7    Am   
Cr3   O46   S    
C45   C71   A    
C190  H36   S    
C3    C141  A    
C48   C56   A    
C38   C98   A    
C53   O42   A    
C152  H16   S    
C226  O18   D    
C145  O13   D    
C146  O14   D    
C34   O34   A    
C60   C62   A    
C216  C218  A    
C101  N5    Am   
C149  C151  A    
C102  N6    Am   
C214  C216  A    
C43   C185  A    
C239  H71   S    
C168  H22   S    
C188  C190  A    
C32   C126  S    
C171  H27   S    
C232  H64   S    
C10   F16   S    
C125  C151  A    
C59   C67   A    
C126  C152  A    
C148  N8    Am   
C116  C118  A    
C97   O47   D    
C34   C46   S    
C197  H37   S    
C198  H38   S    
C160  C168  A    
Cr6   O34   S    
C54   O41   A    
C21   C199  A    
C81   C83   A    
C145  N7    Am   
C186  H2    S    
Cr6   O36   S    
C59   C61   A    
C76   C124  S    
C119  N1    Am   
C120  N2    Am   
C65   O5    D    
C104  C112  A    
C66   O6    D    
C122  C170  A    
C178  C196  A    
C66   N4    Am   
C5    C227  A    
C42   C90   A    
C160  C162  A    
C100  N6    Am   
C208  H14   S    
C183  C241  S    
C180  C200  A    
C128  C134  A    
C148  O10   D    
C12   N12   S    
C103  C105  A    
C222  C224  A    
C242  H74   S    
C10   C12   A    
C28   C222  A    
C210  C212  A    
Cr3   O44   S    
C119  O3    D    
C69   C79   A    
C31   C125  S    
C144  C174  A    
C26   C42   A    
Cr5   O30   S    
C25   C83   A    
C240  H72   S    
C224  O22   D    
C26   C84   A    
C22   C30   A    
C120  O4    D    
C24   C28   A    
C98   O48   D    
C5    C203  A    
C114  C116  A    
C90   C96   A    
C104  C106  A    
C23   H49   S    
C211  C219  A    
C92   F2    S    
C3    N1    S    
Cr1   O23   S    
C85   C95   A    
C42   C120  A    
C95   F5    S    
C82   C88   A    
Cr6   O33   S    
C172  C174  A    
C108  C110  A    
C150  C152  A    
C241  O63   D    
C164  H60   S    
C6    H40   S    
C110  C112  A    
C131  C139  A    
C44   C54   S    
C113  C121  A    
C11   C227  A    
C58   H56   S    
C36   O36   A    
C217  C225  A    
C195  C197  A    
C243  H75   S    
C11   N11   S    
C155  C157  A    
C229  O51   D    
C17   C29   A    
C100  C116  A    
C107  C123  A    
C1    C201  S    
C79   N3    S    
C230  O52   D    
C33   O33   A    
C71   H43   S    
C215  H41   S    
Cr2   O41   S    
C22   C200  A    
C108  C124  A    
C17   C209  A    
C142  C164  A    
C40   H30   S    
C114  C162  A    
C231  H63   S    
C103  F9    S    
Cr5   O31   S    
C103  C111  A    
C96   F6    S    
C162  C166  A    
C43   C53   S    
C130  C172  A    
C115  C117  A    
C6    C228  A    
C31   O29   A    
Cr4   O28   S    
C153  C155  A    
C154  C156  A    
C213  C215  A    
C205  C213  A    
C29   H53   S    
C67   N3    Am   
C30   H54   S    
C107  C109  A    
C174  C234  S    
C163  H59   S    
C107  H11   S    
C101  O11   D    
C19   C197  A    
C13   C19   A    
C32   O28   A    
Cr4   O25   S    
C14   C20   A    
C99   O7    D    
C238  H70   S    
C223  O21   D    
C93   H9    S    
C181  C183  A    
C14   C206  A    
C24   C210  A    
C47   C51   A    
C235  O57   D    
C70   C80   A    
C101  C121  A    
C173  C233  S    
C244  O66   D    
C89   C95   A    
C130  C132  A    
C6    C204  A    
C7    H51   S    
C91   C93   A    
C75   O1    A    
C56   H58   S    
C225  N11   Am   
C169  C175  A    
Cr2   O46   S    
C41   C119  A    
C81   C87   A    
C154  F12   S    
C146  N8    Am   
Cr1   O46   S    
C144  C146  A    
C100  O8    D    
C83   C85   A    
C111  N5    S    
C13   C205  A    
C165  C175  A    
C25   C41   A    
C28   C244  S    
C57   H55   S    
C142  H4    S    
C190  C192  A    
C150  C158  A    
Cr2   O39   S    
Cr3   O45   S    
C97   N1    Am   
C137  C147  A    
C87   F19   S    
C140  C144  A    
Cr4   O37   S    
C88   F20   S    
C236  O58   D    
C236  H68   S    
C67   O49   D    
C132  C140  A    
C63   C93   A    
C129  C165  A    
C218  C220  A    
C109  C111  A    
C62   C64   A    
C37   C39   A    
Cr1   O2    S    
C38   C40   A    
C181  C191  A    
C179  C199  A    
C117  C167  A    
C118  C168  A    
C48   C82   A    
C31   O27   A    
C78   C80   A    
C232  O54   D    
C78   F4    S    
C15   C193  A    
C73   H7    S    
C60   C68   A    
C74   C78   A    
C233  O55   D    
C223  N11   Am   
C52   C62   A    
C44   C164  A    
C102  C122  A    
C149  C157  A    
C44   C186  A    
C43   C163  A    
C149  H17   S    
C121  C169  A    
C68   O50   D    
C158  N8    S    
C32   O30   A    
C153  F11   S    
C89   H5    S    
C51   C61   A    
C234  H66   S    
C220  C222  A    
C151  H15   S    
C239  O61   D    
Cr6   O37   S    
C237  O59   D    
C75   C123  S    
C184  C242  S    
C215  C217  A    
C180  O20   D    
C143  C145  A    
C45   C73   A    
C69   C71   A    
C130  C166  A    
C94   H10   S    
C25   C37   A    
C24   H50   S    
C175  C235  S    
C193  C195  A    
C241  H73   S    
C18   C30   A    
C23   C27   A    
C27   C243  S    
C179  O19   D    
C242  O64   D    
C80   N4    S    
C37   C97   A    
C136  C232  S    
Cr3   O43   S    
C35   O35   A    
C139  C143  A    
C128  C132  A    
C19   F13   S    
C125  C153  A    
Cr5   O29   S    
C240  O62   D    
C56   C58   A    
C69   F17   S    
C184  C202  A    
C117  C229  S    
C49   C85   A    
C16   C194  A    
C134  H20   S    
C136  C138  A    
C135  C231  S    
C134  C136  A    
C23   C209  A    
C231  O53   D    
C219  C221  A    
C138  C148  A    
C187  H33   S    
C20   C198  A    
C179  N9    Am   
C9    C11   A    
C86   C96   A    
C50   C92   A    
C102  O12   D    
C141  C163  A    
C13   C15   A    
C14   C16   A    
C104  F10   S    
C127  C159  A    
C46   C74   A    
C128  C160  A    
C47   C55   A    
C9    F15   S    
Cr6   O35   S    
C141  H3    S    
C182  C184  A    
C129  C171  A    
C4    N2    S    
C157  N7    S    
C70   C72   A    
C191  N9    S    
C217  C219  A    
C166  C176  A    
C90   H6    S    
Cr3   O42   S    
C213  C239  S    
C1    O38   A    
C55   C57   A    
C27   C221  A    
C221  C223  A    
C39   H29   S    
C178  O16   D    
C35   C203  S    
C113  C115  A    
C91   F1    S    
C109  F7    S    
C176  C236  S    
C209  C211  A    
C172  H28   S    
C187  C189  A    
C196  C198  A    
C50   C86   A    
C114  C122  A    
C7    C9    A    
C5    H39   S    
C16   C18   A    
C118  C230  S    
C169  H25   S    
C170  H26   S    
C36   C204  S    
C77   F3    S    
C224  N12   Am   
C129  C131  A    
