data_mof_unit_7915.cif
_audit_creation_date              2013-03-05T16:25:43-0500
_audit_creation_method            fapswitch 2.2
_symmetry_space_group_name_H-M    P1
_symmetry_Int_Tables_number       1
_space_group_crystal_system       triclinic
_cell_length_a                    11.000069
_cell_length_b                    15.057402
_cell_length_c                    13.99116
_cell_angle_alpha                 89.553302
_cell_angle_beta                  89.960962
_cell_angle_gamma                 92.266174
_cell_volume                      2315.50635421

loop_
_atom_site_label
_atom_site_type_symbol
_atom_site_description
_atom_site_fract_x
_atom_site_fract_y
_atom_site_fract_z
_atom_type_partial_charge
O1    O     O_R   0.500010 0.371450 0.581430 -0.511879
O2    O     O_R   0.499990 0.628550 0.418570 -0.543045
O3    O     O_R   0.500010 0.371460 0.418560 -0.581099
O4    O     O_R   0.499990 0.628540 0.581440 -0.538336
C1    C     C_R   0.499472 0.330138 0.500093 0.882415
C2    C     C_R   0.494314 0.669454 0.499835 0.830450
O5    O     O_R   0.319640 0.500000 0.581430 -0.504851
O6    O     O_R   0.680360 0.500000 0.418570 -0.525888
O7    O     O_R   0.319640 0.500010 0.418560 -0.586865
O8    O     O_R   0.680360 0.499990 0.581440 -0.596112
C3    C     C_R   0.262721 0.502528 0.500108 0.836332
C4    C     C_R   0.738035 0.500488 0.500192 0.875460
Cu1   Cu    Cu3+1 0.500000 0.499990 0.596430 1.073624
Cu2   Cu    Cu3+1 0.500000 0.500010 0.403570 1.036627
H1    H     H_    0.289374 0.683599 0.113123 0.140066
H2    H     H_    0.774035 0.489075 0.949281 0.165735
C5    C     C_R   0.245012 0.691918 0.261995 -0.111873
C6    C     C_R   0.811119 0.411568 0.825376 -0.194263
H3    H     H_    0.290156 0.756580 0.270337 0.167422
H4    H     H_    0.790013 0.348798 0.861029 0.171744
C7    C     C_R   0.186305 0.650698 0.339986 -0.120840
C8    C     C_R   0.850960 0.412814 0.730609 -0.061372
H5    H     H_    0.186172 0.684362 0.408067 0.161755
H6    H     H_    0.865375 0.350718 0.695088 0.213855
C9    C     C_R   0.128790 0.566190 0.330548 0.100926
C10   C     C_R   0.879003 0.493875 0.684014 0.095871
C11   C     C_R   0.130520 0.524033 0.241251 -0.160940
C12   C     C_R   0.868831 0.573662 0.733976 -0.210706
H7    H     H_    0.088801 0.458308 0.232879 0.125500
H8    H     H_    0.893885 0.636142 0.698887 0.149054
C13   C     C_R   0.185508 0.566594 0.161873 0.189338
C14   C     C_R   0.831640 0.572545 0.830139 0.194804
C15   C     C_R   0.244471 0.650348 0.173109 -0.130429
C16   C     C_R   0.802447 0.491029 0.875227 -0.128219
C17   C     C_R   0.938229 0.513049 0.413920 0.125894
C18   C     C_R   0.064767 0.492936 0.587132 0.131077
C19   C     C_R   0.872790 0.502183 0.500980 -0.080176
C20   C     C_R   0.129257 0.506753 0.500653 -0.096407
C21   C     C_R   0.937844 0.495549 0.588384 -0.074856
C22   C     C_R   0.065621 0.524097 0.415041 -0.086731
C23   C     C_R   0.572224 0.092616 0.552470 -0.240501
C24   C     C_R   0.391663 0.902060 0.539873 -0.228847
H9    H     H_    0.636617 0.054879 0.593098 0.184931
H10   H     H_    0.319502 0.936508 0.574886 0.191015
C25   C     C_R   0.581658 0.185289 0.552566 0.395670
C26   C     C_R   0.391450 0.809321 0.543328 0.319192
C27   C     C_R   0.497220 0.233365 0.499398 -0.167133
C28   C     C_R   0.488189 0.765697 0.499343 -0.203190
C29   C     C_R   0.408835 0.188517 0.443829 -0.207270
C30   C     C_R   0.579669 0.814803 0.450555 -0.136181
H11   H     H_    0.344347 0.225574 0.402570 0.176389
H12   H     H_    0.652982 0.781294 0.416056 0.220887
C31   C     C_R   0.402620 0.096068 0.440950 0.184062
C32   C     C_R   0.578799 0.907018 0.446713 0.168199
C33   C     C_R   0.485089 0.047935 0.495878 -0.003797
C34   C     C_R   0.484880 0.950917 0.493032 -0.014236
C35   C     C_R   0.575407 0.560381 0.107422 -0.052864
C36   C     C_R   0.489206 0.417764 0.893582 -0.038577
C37   C     C_R   0.564070 0.565035 0.207996 0.463772
C38   C     C_R   0.476238 0.421722 0.792373 0.458210
N1    N     N_R   0.500000 0.500020 0.258690 -0.230242
N2    N     N_R   0.500000 0.499980 0.741310 -0.238259
C39   C     C_R   0.433215 0.436508 0.210134 0.307363
C40   C     C_R   0.522330 0.576577 0.793535 0.340042
C41   C     C_R   0.430865 0.436602 0.109384 -0.296330
C42   C     C_R   0.512317 0.575881 0.894142 -0.301863
H13   H     H_    0.368925 0.389856 0.074355 0.194043
H14   H     H_    0.515942 0.638607 0.931154 0.182478
C43   C     C_R   0.504462 0.497109 0.055509 0.106224
C44   C     C_R   0.502399 0.496450 0.946647 0.092452
N3    N     N_3   0.313995 0.052765 0.380388 -0.578249
H15   H     H_    0.359211 0.012052 0.332973 0.227531
H16   H     H_    0.255742 0.012612 0.422790 0.238344
N4    N     N_3   0.673018 0.954449 0.394316 -0.556734
H17   H     H_    0.632394 0.994855 0.343361 0.232582
H18   H     H_    0.722922 0.995083 0.441449 0.230201
N5    N     N_3   0.662658 0.618180 0.059287 -0.580828
H19   H     H_    0.748067 0.609184 0.089849 0.235850
H20   H     H_    0.639772 0.684073 0.069829 0.268516
N6    N     N_3   0.488680 0.333505 0.942167 -0.588927
H21   H     H_    0.561738 0.297862 0.917259 0.264292
H22   H     H_    0.407248 0.298186 0.927271 0.261765
N7    N     N_R   0.607793 0.644447 0.253976 0.126791
O9    O     O_R   0.710066 0.646692 0.300095 -0.387670
O10   O     O_R   0.554079 0.718458 0.237422 -0.407325
N8    N     N_R   0.425918 0.344219 0.746493 0.130210
O11   O     O_R   0.316131 0.344723 0.712260 -0.361194
O12   O     O_R   0.481618 0.269637 0.750530 -0.361658
N9    N     N_3   0.361823 0.370805 0.261626 -0.522988
H23   H     H_    0.271518 0.373905 0.239293 0.202803
H24   H     H_    0.392021 0.308412 0.242373 0.204544
N10   N     N_3   0.558276 0.658770 0.747566 -0.484837
H25   H     H_    0.645338 0.651614 0.719667 0.220164
H26   H     H_    0.565287 0.711117 0.796177 0.207344
N11   N     N_3   0.180816 0.523710 0.070665 -0.607750
H27   H     H_    0.228694 0.562315 0.019637 0.222559
H28   H     H_    0.089884 0.520433 0.048813 0.215381
N12   N     N_3   0.823694 0.653355 0.882939 -0.585263
H29   H     H_    0.890905 0.653147 0.935728 0.222718
H30   H     H_    0.843933 0.708271 0.838726 0.221616
N13   N     N_3   0.874786 0.513976 0.324259 -0.519334
H31   H     H_    0.901794 0.570356 0.284508 0.255460
H32   H     H_    0.894760 0.456948 0.286272 0.206056
N14   N     N_3   0.128826 0.478130 0.675192 -0.496278
H33   H     H_    0.098031 0.417694 0.705472 0.245243
H34   H     H_    0.113200 0.529767 0.722600 0.240429
N15   N     N_R   0.682650 0.229162 0.599896 0.127914
O13   O     O_R   0.743001 0.293741 0.556645 -0.431565
O14   O     O_R   0.728073 0.194608 0.676902 -0.355695
N16   N     N_R   0.289664 0.761591 0.586902 0.093982
O15   O     O_R   0.306513 0.699916 0.650501 -0.337132
O16   O     O_R   0.180419 0.789983 0.575169 -0.387574

loop_
_geom_bond_atom_site_label_1
_geom_bond_atom_site_label_2
_geom_bond_distance
_ccdc_geom_bond_type
C42   H14   1.080044 S    
C33   C34   1.461595 S    
C39   C41   1.409850 A    
N13   H31   1.044387 S    
C11   H7    1.081511 S    
N15   O14   1.301422 A    
C31   C33   1.408224 A    
N11   H27   1.045850 S    
C17   N13   1.436179 S    
N14   H34   1.045222 S    
C27   C29   1.401091 A    
N5    H19   1.045734 S    
O5    C3    1.300083 A    
C1    C27   1.456485 S    
C30   C32   1.389549 A    
C2    C28   1.453354 S    
O1    C1    1.301070 A    
C17   C19   1.419508 A    
C37   N7    1.428946 S    
C9    C22   1.494794 S    
C41   C43   1.408463 A    
C10   C21   1.485516 S    
C35   C37   1.415106 A    
C36   C38   1.424314 A    
O4    Cu1   1.945336 S    
C38   N2    1.389084 A    
C24   C26   1.396785 A    
C25   C27   1.409193 A    
C4    C19   1.481577 S    
N1    C39   1.367856 A    
N16   O15   1.299802 A    
C23   C33   1.398792 A    
N2    C40   1.383993 A    
C24   C34   1.397865 A    
C32   N4    1.433144 S    
Cu1   N2    2.027038 S    
C12   H8    1.083582 S    
C29   H11   1.083791 S    
C30   H12   1.083221 S    
N15   O13   1.300636 A    
C13   C15   1.405113 A    
N9    H24   1.045949 S    
C36   N6    1.434475 S    
H2    C16   1.081850 S    
C28   C30   1.399158 A    
N13   H32   1.044023 S    
Cu1   Cu2   2.698334 S    
C23   H9    1.083996 S    
O2    C2    1.299942 A    
C24   H10   1.084023 S    
N14   H33   1.044871 S    
C26   C28   1.415364 A    
N5    H20   1.044751 S    
C32   C34   1.408552 A    
C37   N1    1.375517 A    
N4    H17   1.045591 S    
N8    O12   1.301235 A    
C11   C13   1.402608 A    
C35   N5    1.433901 S    
C12   C14   1.405779 A    
N6    H22   1.045445 S    
N3    H16   1.044682 S    
C38   N8    1.428765 S    
N8    O11   1.299767 A    
C36   C44   1.405822 A    
C41   H13   1.080631 S    
Cu2   N1    2.027037 S    
C5    C7    1.396322 A    
C14   C16   1.401458 A    
C3    C20   1.472024 S    
O7    Cu2   1.994886 S    
C6    C16   1.396102 A    
N7    O9    1.296718 A    
O6    C4    1.306694 A    
C39   N9    1.428702 S    
N10   H26   1.045677 S    
C5    C15   1.396527 A    
O7    C3    1.302608 A    
O3    Cu2   1.945336 S    
O8    C4    1.301258 A    
O4    C2    1.295839 A    
N7    O10   1.301115 A    
N12   H30   1.045582 S    
C26   N16   1.438894 S    
C8    H6    1.079449 S    
O1    Cu1   1.948455 S    
N4    H18   1.044406 S    
C31   N3    1.432820 S    
C7    C9    1.405688 A    
O6    Cu2   1.995190 S    
C6    C8    1.395924 A    
C18   C21   1.398374 A    
N6    H21   1.044976 S    
O3    C1    1.295025 A    
O8    Cu1   1.994884 S    
N11   H28   1.045553 S    
C9    C11   1.406239 A    
C10   C12   1.402891 A    
C18   N14   1.439978 S    
C7    H5    1.082518 S    
C17   C22   1.404722 A    
N3    H15   1.045601 S    
C19   C21   1.422133 A    
C23   C25   1.395178 A    
C20   C22   1.415520 A    
C42   C44   1.399247 A    
C13   N11   1.434709 S    
C18   C20   1.411981 A    
N10   H25   1.043767 S    
C5    H3    1.082503 S    
C14   N12   1.433969 S    
C6    H4    1.082210 S    
C43   C44   1.523395 S    
O2    Cu2   1.948455 S    
N16   O16   1.301387 A    
C29   C31   1.391915 A    
O5    Cu1   1.995190 S    
N12   H29   1.045475 S    
C8    C10   1.402665 A    
C40   N10   1.431862 S    
C35   C43   1.413144 A    
N9    H23   1.044242 S    
H1    C15   1.082753 S    
C25   N15   1.434871 S    
C40   C42   1.411749 A    
