data_mof_unit_23206.cif
_audit_creation_date              2012-12-10T19:08:08-0500
_audit_creation_method            fapswitch 2.2
_symmetry_space_group_name_H-M    P1
_symmetry_Int_Tables_number       1
_space_group_crystal_system       triclinic
_cell_length_a                    9.075197
_cell_length_b                    10.824522
_cell_length_c                    9.54866
_cell_angle_alpha                 90.043612
_cell_angle_beta                  89.985913
_cell_angle_gamma                 90.186203
_cell_volume                      938.004207106

loop_
_atom_site_label
_atom_site_type_symbol
_atom_type_description
_atom_site_fract_x
_atom_site_fract_y
_atom_site_fract_z
_atom_type_partial_charge
C1    C     C_R   0.498859 0.262373 0.499939 0.793700
C2    C     C_R   0.457020 0.935434 0.375627 -0.156044
C3    C     C_R   0.485017 0.870668 0.500378 -0.079451
C4    C     C_R   0.494859 0.936407 0.625746 0.059106
C5    C     C_3   0.604180 0.927143 0.742213 -0.429022
C6    C     C_3   0.609606 0.067960 0.741935 -0.033361
C7    C     C_R   0.573970 0.589786 0.073701 0.244575
C8    C     C_R   0.416297 0.418466 0.074360 -0.074511
C9    C     C_R   0.416276 0.418466 0.925504 -0.067143
C10   C     C_R   0.574320 0.589468 0.926292 0.207360
C11   C     C_3   0.735721 0.615292 0.920357 -0.522146
C12   C     C_R   0.220673 0.499947 0.499989 0.840916
C13   C     C_3   0.735318 0.616188 0.079384 0.049273
C14   C     C_R   0.497829 0.737621 0.500025 0.823317
C15   C     C_R   0.779302 0.500073 0.500016 0.859375
C16   C     C_1   0.065523 0.500013 0.500007 -0.172134
C17   C     C_1   0.934413 0.500060 0.500011 -0.178081
C18   C     C_R   0.498603 0.063431 0.625343 0.092541
C19   C     C_R   0.488023 0.129195 0.500013 -0.084558
C20   C     C_R   0.458069 0.064288 0.375536 -0.204809
Cu1   Cu    Cu3+1 0.499990 0.499980 0.640670 0.944149
Cu2   Cu    Cu3+1 0.500010 0.500020 0.359330 0.967902
H1    H     H_    0.441337 0.112423 0.277438 0.161919
H2    H     H_    0.760340 0.706377 0.872233 0.219816
H3    H     H_    0.800535 0.539761 0.125806 0.160570
H4    H     H_    0.440322 0.887147 0.277480 0.183693
H5    H     H_    0.553947 0.888436 0.838962 0.191500
H6    H     H_    0.707966 0.881283 0.708748 0.203621
H7    H     H_    0.564125 0.109713 0.839185 0.168890
H8    H     H_    0.350789 0.350866 0.130121 0.139594
H9    H     H_    0.350765 0.350859 0.869669 0.137823
H10   H     H_    0.799671 0.536996 0.876201 0.200363
N1    N     N_R   0.500920 0.500930 0.147930 -0.205337
N2    N     N_R   0.500930 0.500890 0.852020 -0.182023
O1    O     O_R   0.500000 0.319640 0.618810 -0.590987
O2    O     O_R   0.500020 0.319680 0.381230 -0.591886
O3    O     O_R   0.288380 0.499980 0.618770 -0.579192
O4    O     O_R   0.288400 0.500020 0.381190 -0.575207
O5    O     O_R   0.499980 0.680320 0.618770 -0.581433
O6    O     O_R   0.500000 0.680360 0.381190 -0.558301
O7    O     O_R   0.711600 0.499980 0.618810 -0.589219
O8    O     O_R   0.711620 0.500020 0.381230 -0.568829
Br1   Br    Br    0.775396 0.778164 0.158348 -0.543415
C21   C     C_3   0.760575 0.120101 0.699815 -0.806796
H11   H     H_    0.797481 0.081748 0.597665 0.243487
H12   H     H_    0.755248 0.222215 0.691803 0.239510
H13   H     H_    0.843049 0.096213 0.781179 0.240882

loop_
_geom_bond_atom_site_label_1
_geom_bond_atom_site_label_2
_ccdc_geom_bond_type
C7    C10   A    
C20   H1    S    
Cu1   O1    S    
C5    H6    S    
C11   C13   S    
C15   O8    A    
C19   C20   A    
Cu1   O5    S    
C21   H13   S    
C7    C13   S    
C4    C18   A    
C2    C3    A    
C8    H8    S    
C10   N2    A    
C6    C21   S    
Cu1   Cu2   S    
C7    N1    A    
C13   H3    S    
Cu2   O8    S    
C3    C14   S    
Cu1   O7    S    
C5    C6    S    
C21   H12   S    
C11   H10   S    
C8    N1    A    
C12   O4    A    
C9    N2    A    
C6    C18   S    
C1    C19   S    
C16   C17   T    
C10   C11   S    
C9    H9    S    
C2    C20   A    
C3    C4    A    
Cu2   O4    S    
C11   H2    S    
C13   Br1   S    
C6    H7    S    
Cu1   O3    S    
C21   H11   S    
C15   O7    A    
C2    H4    S    
C18   C19   A    
C12   O3    A    
C15   C17   S    
Cu2   N1    S    
Cu2   O6    S    
C8    C9    A    
Cu1   N2    S    
C1    O1    A    
C14   O5    A    
C5    H5    S    
C14   O6    A    
Cu2   O2    S    
C12   C16   S    
C1    O2    A    
C4    C5    S    
