data_mof_unit_15222.cif
_audit_creation_date              2012-12-11T15:55:50-0500
_audit_creation_method            fapswitch 2.2
_symmetry_space_group_name_H-M    P1
_symmetry_Int_Tables_number       1
_space_group_crystal_system       triclinic
_cell_length_a                    11.004973
_cell_length_b                    11.062591
_cell_length_c                    18.707866
_cell_angle_alpha                 90.478048
_cell_angle_beta                  90.856603
_cell_angle_gamma                 59.396834
_cell_volume                      1960.10893251

loop_
_atom_site_label
_atom_site_type_symbol
_atom_type_description
_atom_site_fract_x
_atom_site_fract_y
_atom_site_fract_z
_atom_type_partial_charge
C1    C     C_R   0.360499 0.766359 0.395402 0.534480
C2    C     C_R   0.623843 0.165302 0.157133 0.036715
C3    C     C_R   0.361612 0.346550 0.158143 -0.011394
C4    C     C_R   0.490921 0.276213 0.269159 -0.157394
C5    C     C_R   0.491562 0.268068 0.194697 -0.038783
C6    C     C_R   0.056572 0.650019 0.348392 -0.123306
C7    C     C_R   0.918688 0.751152 0.366104 -0.205207
C8    C     C_R   0.655170 0.198484 0.089996 -0.062015
C9    C     C_R   0.761657 0.093993 0.048250 -0.066022
C10   C     C_R   0.244218 0.449296 0.194913 -0.155362
C11   C     C_R   0.235749 0.448350 0.269405 -0.033419
C12   C     C_R   0.385308 0.357029 0.386371 0.538378
C13   C     C_R   0.806575 0.758089 0.327916 -0.064049
C14   C     C_R   0.833406 0.663358 0.272720 0.382440
C15   C     C_R   0.971168 0.551843 0.260950 -0.074499
C16   C     C_R   0.088077 0.543288 0.298264 -0.035973
C17   C     C_R   0.364672 0.356395 0.308078 0.007464
C18   C     C_R   0.867558 0.326311 0.184189 0.012643
C19   C     C_R   0.963586 0.228945 0.233902 -0.003706
C20   C     C_R   0.934223 0.245127 0.306203 -0.022194
C21   C     C_R   0.710774 0.454588 0.279576 -0.087974
C22   C     C_R   0.739342 0.437958 0.206842 -0.101436
C23   C     C_R   0.774501 0.380208 0.402833 0.539028
C24   C     C_3   0.012552 0.075919 0.238037 -0.248706
C25   C     C_3   0.979754 0.094580 0.316617 -0.284296
C26   C     C_R   0.809688 0.359377 0.329126 0.026753
C27   C     C_R   0.368620 0.827639 0.171906 0.025522
C28   C     C_R   0.418692 0.889614 0.220536 0.105437
C29   C     C_R   0.417884 0.870390 0.293657 0.043146
C30   C     C_R   0.331489 0.712980 0.271062 -0.170666
C31   C     C_R   0.335462 0.729705 0.197549 -0.174199
C32   C     C_3   0.374443 0.040208 0.229501 -0.255472
C33   C     C_3   0.374599 0.019449 0.309395 -0.304695
C34   C     C_R   0.341624 0.774033 0.603144 0.535677
C35   C     C_R   0.360397 0.793184 0.319719 0.000784
C36   C     C_R   0.300392 0.312140 0.809408 -0.029891
C37   C     C_R   0.411301 0.203956 0.772447 0.011628
C38   C     C_R   0.420814 0.204088 0.700338 -0.018531
C39   C     C_R   0.194881 0.421301 0.694732 0.208661
C40   C     C_R   0.185513 0.416431 0.769668 -0.136478
C41   C     C_3   0.566356 0.130891 0.785887 -0.271969
C42   C     C_3   0.579545 0.130028 0.705683 -0.261749
C43   C     C_R   0.322253 0.320613 0.661105 0.006857
C44   C     C_R   0.817524 0.327498 0.835460 0.007348
C45   C     C_R   0.369513 0.349631 0.595124 0.551310
C46   C     C_R   0.779902 0.453262 0.802045 0.039869
C47   C     C_R   0.773189 0.463865 0.729300 0.015186
C48   C     C_R   0.846973 0.219046 0.717821 -0.170216
C49   C     C_R   0.853165 0.208611 0.792688 -0.167607
C50   C     C_3   0.650588 0.593032 0.812344 -0.275915
C51   C     C_3   0.643088 0.605605 0.731916 -0.245453
C52   C     C_R   0.802885 0.349329 0.685644 0.001852
C53   C     C_R   0.250352 0.934484 0.814161 0.014650
C54   C     C_R   0.156614 0.908750 0.776307 0.002355
C55   C     C_R   0.179467 0.870840 0.705216 0.006899
C56   C     C_R   0.760941 0.378362 0.611105 0.528462
C57   C     C_R   0.376571 0.907413 0.702796 -0.169625
C58   C     C_R   0.355273 0.942989 0.775570 -0.150923
C59   C     C_3   0.109414 0.807271 0.792445 -0.278533
C60   C     C_3   0.134946 0.765312 0.714714 -0.224016
C61   C     C_R   0.296542 0.857373 0.668934 0.006995
C62   C     C_R   0.911431 0.314535 0.111504 0.539213
C63   C     C_R   0.330585 0.297567 0.090605 0.530932
C64   C     C_R   0.311121 0.895010 0.103716 0.539909
C65   C     C_R   0.878982 0.310418 0.906159 0.532008
C66   C     C_R   0.293905 0.287717 0.884697 0.536379
C67   C     C_R   0.844528 0.957766 0.074721 -0.090178
C68   C     C_R   0.237527 0.957663 0.891330 0.566391
C69   C     C_R   0.819662 0.925087 0.142791 -0.103294
C70   C     C_R   0.710448 0.028136 0.183995 -0.099324
Cr1   Cr    Cr6+3 0.601740 0.606840 0.505840 0.984398
Cr2   Cr    Cr6+3 0.291500 0.601560 0.495070 0.987029
Cr3   Cr    Cr6+3 0.606780 0.291630 0.499130 0.990338
Cr4   Cr    Cr6+3 0.062440 0.063060 0.008240 0.976736
Cr5   Cr    Cr6+3 0.062950 0.375000 0.998920 1.009966
Cr6   Cr    Cr6+3 0.374550 0.061770 0.992470 1.020652
H1    H     H_    0.591410 0.216437 0.296917 0.138087
H2    H     H_    0.700203 0.842453 0.337870 0.121653
H3    H     H_    0.988194 0.479843 0.217790 0.146540
H4    H     H_    0.612186 0.542034 0.297594 0.157818
H5    H     H_    0.663661 0.512800 0.168872 0.162966
H6    H     H_    0.126003 0.010100 0.227877 0.156287
H7    H     H_    0.945406 0.047323 0.206425 0.169361
H8    H     H_    0.891332 0.078144 0.330723 0.145314
H9    H     H_    0.074698 0.039402 0.351715 0.142241
H10   H     H_    0.303264 0.639458 0.290046 0.143462
H11   H     H_    0.778695 0.118411 0.994949 0.124239
H12   H     H_    0.299326 0.677196 0.161421 0.129775
H13   H     H_    0.268408 0.114015 0.206458 0.134407
H14   H     H_    0.459045 0.057154 0.211855 0.173483
H15   H     H_    0.458097 0.029046 0.338390 0.144108
H16   H     H_    0.268028 0.080463 0.333173 0.132605
H17   H     H_    0.091896 0.496302 0.796403 0.148522
H18   H     H_    0.609720 0.024146 0.808797 0.134212
H19   H     H_    0.599044 0.198975 0.813940 0.139996
H20   H     H_    0.622405 0.196153 0.688110 0.177014
H21   H     H_    0.899542 0.830927 0.405564 0.108501
H22   H     H_    0.631109 0.022779 0.682199 0.123503
H23   H     H_    0.871529 0.127716 0.685644 0.126190
H24   H     H_    0.888971 0.107736 0.817160 0.135405
H25   H     H_    0.673978 0.669114 0.839156 0.146734
H26   H     H_    0.561817 0.585937 0.835404 0.135917
H27   H     H_    0.549878 0.605401 0.708511 0.154660
H28   H     H_    0.663077 0.688266 0.712343 0.133232
H29   H     H_    0.463902 0.905181 0.675683 0.119495
H30   H     H_    0.428560 0.965181 0.802962 0.150936
H31   H     H_    0.996144 0.859860 0.806855 0.126450
H32   H     H_    0.927824 0.877566 0.042445 0.107778
H33   H     H_    0.182740 0.721765 0.829271 0.152311
H34   H     H_    0.224326 0.656439 0.706980 0.185984
H35   H     H_    0.036743 0.794748 0.684150 0.173264
H36   H     H_    0.884582 0.819689 0.163463 0.138478
H37   H     H_    0.690992 0.998999 0.235718 0.109366
H38   H     H_    0.135575 0.665935 0.369078 0.204592
H39   H     H_    0.591470 0.303211 0.068143 0.088942
H40   H     H_    0.150939 0.521687 0.164374 0.134680
O1    O     O_R   0.748670 0.497520 0.427970 -0.521836
O2    O     O_R   0.300170 0.471020 0.567120 -0.471888
O3    O     O_R   0.491630 0.259030 0.574940 -0.531368
O4    O     O_R   0.718640 0.304340 0.577850 -0.505590
O5    O     O_3   0.500010 0.500010 0.500020 -0.245862
O6    O     O_R   0.186620 0.923750 0.087000 -0.528316
O7    O     O_R   0.957350 0.194160 0.084660 -0.504609
O8    O     O_R   0.935120 0.407280 0.085350 -0.503477
O9    O     O_R   0.203800 0.365060 0.067090 -0.510240
O10   O     O_R   0.417470 0.174910 0.067830 -0.502264
O11   O     O_R   0.375160 0.946380 0.070880 -0.479212
O12   O     O_R   0.476470 0.723930 0.429450 -0.490296
O13   O     O_R   0.160500 0.919670 0.926690 -0.524679
O14   O     O_R   0.933140 0.190380 0.936050 -0.541407
O15   O     O_R   0.909010 0.403210 0.925030 -0.508540
O16   O     O_R   0.179590 0.361290 0.918480 -0.507629
O17   O     O_R   0.391360 0.170840 0.907510 -0.531072
O18   O     O_R   0.350950 0.942600 0.922260 -0.513827
O19   O     O_3   0.166650 0.166610 0.999880 -0.266842
O20   O     O_R   0.264730 0.744140 0.416740 -0.562414
O21   O     O_R   0.309440 0.472410 0.418220 -0.529165
O22   O     O_R   0.501630 0.260530 0.414310 -0.530451
O23   O     O_R   0.727920 0.305730 0.428950 -0.509135
O24   O     O_R   0.738670 0.496020 0.588600 -0.546969
O25   O     O_R   0.467190 0.722540 0.578350 -0.514411
O26   O     O_R   0.254720 0.742640 0.577370 -0.511246
F1    F     F_    0.727844 0.688586 0.226301 -0.674847
O27   O     O_3   0.092912 0.539319 0.658847 -0.580917
C71   C     C_3   0.023563 0.501271 0.607329 0.038205
H41   H     H_    0.947994 0.481405 0.635060 0.167376
H42   H     H_    0.096927 0.404487 0.577092 0.101564
C72   C     C_3   0.946870 0.619992 0.552645 -0.218281
H43   H     H_    0.022070 0.649343 0.531306 0.180314
H44   H     H_    0.909506 0.581824 0.507075 0.147028
C73   C     C_3   0.820145 0.750322 0.584201 -0.413788
H45   H     H_    0.735633 0.728258 0.597631 0.170975
H46   H     H_    0.776923 0.836599 0.544297 0.112739
H47   H     H_    0.850721 0.786008 0.633120 0.153850

loop_
_geom_bond_atom_site_label_1
_geom_bond_atom_site_label_2
_ccdc_geom_bond_type
C45   O2    A    
C44   C49   A    
C7    C13   A    
C57   H29   S    
C21   C26   A    
C34   O25   A    
Cr3   O3    S    
Cr2   O5    S    
Cr6   O10   S    
C41   C42   S    
Cr1   O24   S    
C19   C20   A    
C1    O12   A    
C40   H17   S    
C62   O8    A    
C65   O14   A    
C53   C54   A    
Cr2   O26   S    
C30   C35   A    
C64   O6    A    
C42   H20   S    
C23   O23   A    
C36   C37   A    
C24   H7    S    
C72   H44   S    
C38   C42   S    
C33   H15   S    
C30   C31   A    
C56   O24   A    
C69   H36   S    
Cr5   O19   S    
C67   H32   S    
C23   C26   S    
C20   C25   S    
C51   H27   S    
C15   C16   A    
C29   C33   S    
C18   C19   A    
C73   H47   S    
C4    H1    S    
C53   C68   S    
C24   H6    S    
C6    H38   S    
C8    H39   S    
C65   O15   A    
C21   C22   A    
C54   C55   A    
C15   H3    S    
C41   H18   S    
C44   C46   A    
C8    C9    A    
C12   C17   S    
C25   H8    S    
C73   H45   S    
C72   C73   S    
C30   H10   S    
C1    O20   A    
Cr1   O25   S    
C45   O3    A    
Cr4   O7    S    
C59   C60   S    
Cr3   O4    S    
C55   C60   S    
C56   O4    A    
C44   C65   S    
C69   C70   A    
C62   O7    A    
C71   H42   S    
Cr6   O19   S    
Cr5   O15   S    
C71   H41   S    
C66   O16   A    
C54   C59   S    
C70   H37   S    
C32   H14   S    
Cr1   O1    S    
C27   C31   A    
Cr5   O8    S    
C22   H5    S    
C28   C32   S    
C60   H34   S    
C72   H43   S    
C27   C64   S    
C33   H16   S    
C39   C40   A    
Cr6   O18   S    
C18   C62   S    
C39   C43   A    
Cr3   O23   S    
C51   H28   S    
C34   C61   S    
C59   H31   S    
C58   H30   S    
C47   C52   A    
C9    C67   A    
C37   C38   A    
C66   O17   A    
C34   O26   A    
C11   C16   S    
Cr5   O9    S    
C32   H13   S    
C14   C15   A    
C36   C40   A    
Cr6   O17   S    
C64   O11   A    
Cr4   O19   S    
C25   H9    S    
C50   C51   S    
C24   C25   S    
C43   C45   S    
C63   O9    A    
C4    C17   A    
Cr2   O21   S    
Cr4   O6    S    
C50   H26   S    
Cr3   O5    S    
Cr4   O14   S    
C12   O22   A    
Cr1   O12   S    
C2    C5    S    
C71   C72   S    
C10   H40   S    
Cr5   O16   S    
C1    C35   S    
C48   H23   S    
C46   C50   S    
C46   C47   A    
C28   C29   A    
C31   H12   S    
C7    H21   S    
C18   C22   A    
Cr1   O5    S    
C2    C8    A    
O27   C71   S    
C3    C5    A    
C42   H22   S    
C11   C17   A    
C23   O1    A    
C47   C51   S    
C53   C58   A    
C57   C61   A    
C6    C7    A    
C3    C63   S    
C29   C35   A    
C32   C33   S    
C68   O18   A    
C19   C24   S    
C14   F1    S    
C38   C43   A    
C60   H35   S    
C2    C70   A    
C9    H11   S    
C49   H24   S    
C57   C58   A    
C41   H19   S    
C20   C26   A    
C48   C49   A    
C4    C5    A    
C55   C61   A    
C21   H4    S    
C59   H33   S    
C36   C66   S    
C73   H46   S    
C37   C41   S    
C68   O13   A    
C63   O10   A    
Cr2   O20   S    
C10   C11   A    
C13   H2    S    
C6    C16   A    
C48   C52   A    
C39   O27   S    
C50   H25   S    
Cr3   O22   S    
Cr4   O13   S    
Cr2   O2    S    
C27   C28   A    
C3    C10   A    
Cr6   O11   S    
C12   O21   A    
C67   C69   A    
C13   C14   A    
C52   C56   S    
