data_mof_unit_23080.cif
_audit_creation_date              2012-10-26T19:57:53-0400
_audit_creation_method            fapswitch 2.2
_symmetry_space_group_name_H-M    P1
_symmetry_Int_Tables_number       1
_space_group_crystal_system       triclinic
_cell_length_a                    7.507196
_cell_length_b                    8.789824
_cell_length_c                    12.946408
_cell_angle_alpha                 85.75934
_cell_angle_beta                  78.83702
_cell_angle_gamma                 102.932225
_cell_volume                      810.705125664

loop_
_atom_site_label
_atom_site_type_symbol
_atom_type_description
_atom_site_fract_x
_atom_site_fract_y
_atom_site_fract_z
_atom_type_partial_charge
C1    C     C_R   0.453182 0.200077 0.504211 0.580675
C2    C     C_R   0.659512 0.664407 0.122604 0.053199
C3    C     C_R   0.538177 0.600351 0.862661 0.062066
C4    C     C_R   0.461823 0.399649 0.137339 0.062067
C5    C     C_R   0.547907 0.573490 0.969584 0.008871
C6    C     C_R   0.452093 0.426510 0.030416 0.008871
C7    C     C_2   0.426716 0.032480 0.515098 0.069105
C8    C     C_2   0.573284 0.967520 0.484902 0.069105
C9    C     C_R   0.546818 0.799923 0.495789 0.580674
C10   C     C_R   0.464956 0.492392 0.701394 0.577463
C11   C     C_R   0.535044 0.507608 0.298606 0.577462
C12   C     C_R   0.556412 0.522642 0.184308 0.027225
C13   C     C_R   0.443588 0.477358 0.815692 0.027225
C14   C     C_R   0.345216 0.311117 0.983597 -0.073387
C15   C     C_R   0.654784 0.688883 0.016403 -0.073387
C16   C     C_R   0.340488 0.335593 0.877396 0.053199
Cu1   Cu    Cu3+1 0.686350 0.517570 0.488220 1.097694
Cu2   Cu    Cu3+1 0.313650 0.482430 0.511780 1.097694
H1    H     H_    0.263945 0.200626 0.028333 0.192777
H2    H     H_    0.736055 0.799374 0.971667 0.192777
H3    H     H_    0.943069 0.402637 0.683566 0.248023
H4    H     H_    0.926881 0.249080 0.613640 0.260302
H5    H     H_    0.056931 0.597363 0.316434 0.248023
H6    H     H_    0.073119 0.750920 0.386360 0.260302
I1    I     I_    0.356032 0.170402 0.226538 -0.270385
I2    I     I_    0.643967 0.829598 0.773462 -0.270384
I3    I     I_    0.826587 0.849396 0.182342 -0.280559
I4    I     I_    0.173413 0.150604 0.817658 -0.280559
I5    I     I_    0.144484 0.908564 0.592205 -0.184090
I6    I     I_    0.855516 0.091436 0.407795 -0.184090
N1    N     N_2   0.033570 0.455950 0.529530 -0.019407
N2    N     N_2   0.966430 0.544050 0.470470 -0.019407
N3    N     N_3   0.905905 0.362470 0.614911 -0.421684
N4    N     N_3   0.094095 0.637530 0.385089 -0.421684
O1    O     O_R   0.621060 0.286250 0.492350 -0.481638
O2    O     O_R   0.378940 0.713750 0.507650 -0.481638
O3    O     O_R   0.306310 0.256580 0.512240 -0.474212
O4    O     O_R   0.693690 0.743420 0.487760 -0.474212
O5    O     O_R   0.631800 0.512400 0.642670 -0.471523
O6    O     O_R   0.368200 0.487600 0.357330 -0.471523
O7    O     O_R   0.317060 0.482730 0.662570 -0.500517
O8    O     O_R   0.682940 0.517270 0.337430 -0.500517

loop_
_geom_bond_atom_site_label_1
_geom_bond_atom_site_label_2
_ccdc_geom_bond_type
C16   I4    S    
C9    O2    A    
C11   C12   S    
N1    N3    S    
C2    I3    S    
C7    I5    S    
C4    C12   A    
N1    N2    D    
C3    C13   A    
C1    O3    A    
H5    N4    S    
C2    C12   A    
Cu1   Cu2   S    
C8    I6    S    
C7    C8    D    
C10   O7    A    
C2    C15   A    
C5    C6    A    
C9    O4    A    
Cu2   O3    S    
C4    I1    S    
Cu1   O4    S    
C15   H2    S    
C14   C16   A    
C5    C15   A    
C6    C14   A    
C11   O6    A    
H3    N3    S    
C1    O1    A    
C11   O8    A    
C4    C6    A    
Cu1   O5    S    
C13   C16   A    
H4    N3    S    
Cu1   N2    S    
Cu2   O6    S    
Cu1   O8    S    
C10   O5    A    
Cu2   N1    S    
Cu1   O1    S    
C1    C7    S    
Cu2   O2    S    
C14   H1    S    
C3    I2    S    
H6    N4    S    
Cu2   O7    S    
C8    C9    S    
C3    C5    A    
C10   C13   S    
N2    N4    S    
