data_mof_unit_45733.cif
_audit_creation_date              2012-10-26T21:32:56-0400
_audit_creation_method            fapswitch 2.2
_symmetry_space_group_name_H-M    P1
_symmetry_Int_Tables_number       1
_space_group_crystal_system       triclinic
_cell_length_a                    28.189966
_cell_length_b                    18.490647
_cell_length_c                    17.083074
_cell_angle_alpha                 89.984923
_cell_angle_beta                  60.734074
_cell_angle_gamma                 89.976577
_cell_volume                      7767.98656506

loop_
_atom_site_label
_atom_site_type_symbol
_atom_type_description
_atom_site_fract_x
_atom_site_fract_y
_atom_site_fract_z
_atom_type_partial_charge
C1    C     C_R   0.701780 0.268693 0.675831 0.883325
C2    C     C_R   0.969468 0.628322 0.447109 0.434572
C3    C     C_R   0.074020 0.900360 0.933977 0.906475
C4    C     C_R   0.573905 0.599716 0.934047 0.906186
C5    C     C_R   0.425972 0.400375 0.066038 0.906057
C6    C     C_R   0.425980 0.599640 0.066023 0.906474
C7    C     C_R   0.574021 0.400362 0.933976 0.905628
C8    C     C_R   0.541218 0.000017 0.523943 -0.084392
C9    C     C_R   0.458607 0.999986 0.476665 -0.084536
C10   C     C_R   0.041392 0.500014 0.523335 -0.084536
C11   C     C_R   0.958782 0.499983 0.476057 -0.084392
C12   C     C_R   0.518847 0.066424 0.516360 0.002564
C13   C     C_R   0.969378 0.371583 0.447564 0.434644
C14   C     C_R   0.480958 0.933573 0.484306 0.001828
C15   C     C_R   0.481016 0.066403 0.484052 0.002739
C16   C     C_R   0.518792 0.933603 0.516610 0.003371
C17   C     C_R   0.019042 0.566427 0.515694 0.001828
C18   C     C_R   0.981153 0.433576 0.483640 0.002564
C19   C     C_R   0.981208 0.566397 0.483390 0.003371
C20   C     C_R   0.018984 0.433597 0.515948 0.002739
C21   C     C_R   0.607137 0.934483 0.551674 0.019054
C22   C     C_R   0.392788 0.065517 0.448671 0.018495
C23   C     C_R   0.392758 0.934440 0.448826 0.018549
C24   C     C_R   0.030793 0.628428 0.551789 0.434765
C25   C     C_R   0.607163 0.065568 0.551524 0.018566
C26   C     C_R   0.107212 0.434483 0.551329 0.018495
C27   C     C_R   0.892863 0.565516 0.448326 0.019054
C28   C     C_R   0.892837 0.434432 0.448476 0.018566
C29   C     C_R   0.107241 0.565560 0.551174 0.018549
C30   C     C_R   0.657971 0.935203 0.551144 -0.098783
C31   C     C_R   0.342011 0.064795 0.448994 -0.098741
C32   C     C_R   0.341995 0.935195 0.449073 -0.098499
C33   C     C_R   0.657984 0.064812 0.551069 -0.098664
C34   C     C_R   0.157989 0.435205 0.551006 -0.098741
C35   C     C_R   0.530532 0.871678 0.552891 0.434572
C36   C     C_R   0.842029 0.564797 0.448856 -0.098783
C37   C     C_R   0.842016 0.435188 0.448931 -0.098664
C38   C     C_R   0.158004 0.564805 0.550927 -0.098499
C39   C     C_R   0.681647 0.999999 0.552783 -0.290755
C40   C     C_R   0.318364 0.000003 0.447260 -0.289912
C41   C     C_R   0.181636 0.499997 0.552740 -0.289912
C42   C     C_R   0.818353 0.500001 0.447217 -0.290755
C43   C     C_R   0.585327 0.000024 0.542015 0.060679
C44   C     C_R   0.414557 0.999980 0.458437 0.060650
C45   C     C_R   0.085443 0.500020 0.541563 0.060650
C46   C     C_R   0.469309 0.128335 0.447738 0.434887
C47   C     C_R   0.914673 0.499976 0.457985 0.060679
C48   C     C_R   0.075203 0.371959 0.567077 -0.221763
C49   C     C_R   0.924884 0.628042 0.432480 -0.220031
C50   C     C_R   0.924828 0.371868 0.432843 -0.222129
C51   C     C_R   0.075267 0.628123 0.566702 -0.221766
C52   C     C_R   0.575116 0.871958 0.567520 -0.220031
C53   C     C_R   0.424797 0.128041 0.432923 -0.221763
C54   C     C_R   0.424733 0.871877 0.433298 -0.221766
C55   C     C_R   0.575172 0.128131 0.567157 -0.222129
C56   C     C_R   0.469207 0.871572 0.448211 0.434765
C57   C     C_R   0.530622 0.128417 0.552436 0.434644
C58   C     C_R   0.720611 0.264210 0.953540 0.093946
C59   C     C_R   0.279390 0.735792 0.046459 0.094459
C60   C     C_R   0.279389 0.264279 0.046447 0.094485
C61   C     C_R   0.298219 0.731305 0.324169 0.883545
C62   C     C_R   0.720941 0.733858 0.953519 0.111906
C63   C     C_R   0.220610 0.764208 0.953541 0.094459
C64   C     C_R   0.779389 0.235789 0.046460 0.093946
C65   C     C_R   0.779059 0.766142 0.046481 0.111906
C66   C     C_R   0.220610 0.235721 0.953553 0.094485
C67   C     C_R   0.777841 0.264604 0.907984 -0.158171
C68   C     C_R   0.222160 0.735388 0.092014 -0.156235
C69   C     C_R   0.222156 0.264591 0.092012 -0.156214
C70   C     C_R   0.744520 0.802292 0.945732 -0.157872
C71   C     C_R   0.277840 0.764612 0.907986 -0.156235
C72   C     C_R   0.298212 0.268710 0.324179 0.883192
C73   C     C_R   0.722159 0.235396 0.092016 -0.158171
C74   C     C_R   0.755479 0.697708 0.054268 -0.157872
C75   C     C_R   0.277844 0.235408 0.907988 -0.156214
C76   C     C_R   0.806780 0.250599 0.953758 -0.162400
C77   C     C_R   0.193220 0.749390 0.046241 -0.160485
C78   C     C_R   0.193219 0.250518 0.046256 -0.160543
C79   C     C_R   0.773025 0.818267 0.991703 -0.155001
C80   C     C_R   0.306780 0.750609 0.953759 -0.160485
C81   C     C_R   0.693220 0.249401 0.046242 -0.162400
C82   C     C_R   0.726975 0.681732 0.008297 -0.155001
C83   C     C_R   0.701854 0.731160 0.675824 0.883286
C84   C     C_R   0.306781 0.249481 0.953744 -0.160543
C85   C     C_R   0.643398 0.326024 0.945994 -0.195555
C86   C     C_R   0.356607 0.673986 0.054001 -0.193796
C87   C     C_R   0.356592 0.326091 0.054009 -0.193670
C88   C     C_R   0.643392 0.673327 0.945931 -0.193047
C89   C     C_R   0.143393 0.826014 0.945999 -0.193796
C90   C     C_R   0.856601 0.173976 0.054006 -0.195555
C91   C     C_R   0.856608 0.826673 0.054069 -0.193047
C92   C     C_R   0.143408 0.173908 0.945991 -0.193670
C93   C     C_R   0.616342 0.346840 0.898466 -0.067202
C94   C     C_R   0.201781 0.768695 0.675831 0.883545
C95   C     C_R   0.383661 0.653164 0.101531 -0.067630
C96   C     C_R   0.383643 0.346883 0.101551 -0.067584
C97   C     C_R   0.616363 0.652891 0.898354 -0.067296
C98   C     C_R   0.116339 0.846835 0.898469 -0.067630
C99   C     C_R   0.883658 0.153160 0.101534 -0.067202
C100  C     C_R   0.883637 0.847109 0.101646 -0.067296
C101  C     C_R   0.116357 0.153117 0.898449 -0.067584
C102  C     C_R   0.632988 0.321922 0.813324 -0.255741
C103  C     C_R   0.367012 0.678078 0.186676 -0.254797
C104  C     C_R   0.366989 0.321958 0.186697 -0.255848
C105  C     C_R   0.798220 0.231306 0.324169 0.883325
C106  C     C_R   0.633073 0.677919 0.813245 -0.255526
C107  C     C_R   0.132988 0.821922 0.813324 -0.254797
C108  C     C_R   0.867012 0.178078 0.186676 -0.255741
C109  C     C_R   0.866926 0.822081 0.186755 -0.255526
C110  C     C_R   0.133011 0.178042 0.813303 -0.255848
C111  C     C_R   0.679396 0.281243 0.770898 -0.054034
C112  C     C_R   0.320603 0.718756 0.229102 -0.054254
C113  C     C_R   0.320593 0.281287 0.229112 -0.053998
C114  C     C_R   0.679532 0.718493 0.770918 -0.055252
C115  C     C_R   0.179397 0.781244 0.770898 -0.054254
C116  C     C_R   0.798146 0.768840 0.324176 0.883286
C117  C     C_R   0.820604 0.218757 0.229102 -0.054034
C118  C     C_R   0.820468 0.781507 0.229082 -0.055252
C119  C     C_R   0.179407 0.218713 0.770888 -0.053998
C120  C     C_R   0.707530 0.259509 0.816846 -0.187261
C121  C     C_R   0.292470 0.740490 0.183154 -0.186373
C122  C     C_R   0.292471 0.259581 0.183153 -0.186343
C123  C     C_R   0.707803 0.739679 0.816912 -0.185091
C124  C     C_R   0.207530 0.759510 0.816846 -0.186373
C125  C     C_R   0.792470 0.240491 0.183154 -0.187261
C126  C     C_R   0.792197 0.760320 0.183088 -0.185091
C127  C     C_R   0.201788 0.231290 0.675821 0.883192
C128  C     C_R   0.207529 0.240419 0.816846 -0.186343
C129  C     C_R   0.689593 0.281869 0.905523 0.072323
C130  C     C_R   0.310410 0.718135 0.094475 0.072100
C131  C     C_R   0.310402 0.281951 0.094473 0.072011
C132  C     C_R   0.689897 0.716765 0.905429 0.070046
C133  C     C_R   0.189590 0.781865 0.905525 0.072100
C134  C     C_R   0.810407 0.218131 0.094477 0.072323
C135  C     C_R   0.810103 0.783234 0.094571 0.070047
C136  C     C_R   0.189598 0.218049 0.905527 0.072011
C137  C     C_R   0.691601 0.129215 0.533504 0.887937
C138  C     C_R   0.030691 0.371665 0.552262 0.434887
C139  C     C_R   0.308391 0.870792 0.466535 0.887889
C140  C     C_R   0.308401 0.129218 0.466502 0.887697
C141  C     C_R   0.691593 0.870777 0.533536 0.887668
C142  C     C_R   0.191608 0.629208 0.533465 0.887889
C143  C     C_R   0.808399 0.370785 0.466496 0.887937
C144  C     C_R   0.808407 0.629223 0.466464 0.887668
C145  C     C_R   0.191599 0.370781 0.533498 0.887697
C146  C     C_R   0.074028 0.099624 0.933961 0.906057
C147  C     C_R   0.926095 0.900283 0.065953 0.906186
C148  C     C_R   0.925979 0.099638 0.066024 0.905628
Cl1   Cl    Cl    0.983914 0.299851 0.601130 -0.583649
Cl2   Cl    Cl    0.016268 0.700088 0.398079 -0.584169
Cl3   Cl    Cl    0.016109 0.299665 0.398877 -0.583654
Cl4   Cl    Cl    0.984108 0.700415 0.600284 -0.569329
Cl5   Cl    Cl    0.483732 0.799912 0.601921 -0.584169
Cl6   Cl    Cl    0.516086 0.200149 0.398870 -0.583649
Cl7   Cl    Cl    0.515892 0.799585 0.399716 -0.569329
Cl8   Cl    Cl    0.483891 0.200335 0.601123 -0.583654
H1    H     H_    0.800399 0.277253 0.837115 0.155024
H2    H     H_    0.369834 0.652850 0.987347 0.156256
H3    H     H_    0.369821 0.347232 0.987350 0.156204
H4    H     H_    0.628898 0.654068 0.013747 0.156666
H5    H     H_    0.130166 0.847150 0.012653 0.156256
H6    H     H_    0.869825 0.152834 0.987355 0.155371
H7    H     H_    0.871101 0.845932 0.986253 0.156666
H8    H     H_    0.130179 0.152768 0.012650 0.156204
H9    H     H_    0.720772 0.999985 0.550480 0.196284
H10   H     H_    0.279283 0.000017 0.449403 0.196532
H11   H     H_    0.220717 0.499983 0.550597 0.196532
H12   H     H_    0.199603 0.722733 0.162881 0.154814
H13   H     H_    0.779228 0.500015 0.449520 0.196284
H14   H     H_    0.081575 0.324429 0.597577 0.201103
H15   H     H_    0.918450 0.675580 0.402064 0.200597
H16   H     H_    0.918412 0.324288 0.402513 0.201164
H17   H     H_    0.081621 0.675695 0.597117 0.201547
H18   H     H_    0.581550 0.824420 0.597936 0.200597
H19   H     H_    0.418425 0.175571 0.402423 0.201103
H20   H     H_    0.418379 0.824305 0.402882 0.201547
H21   H     H_    0.581588 0.175712 0.597487 0.201164
H22   H     H_    0.649224 0.247753 0.083397 0.150771
H23   H     H_    0.199588 0.277225 0.162882 0.154743
H24   H     H_    0.350776 0.752266 0.916605 0.150664
H25   H     H_    0.350778 0.247886 0.916574 0.150497
H26   H     H_    0.710354 0.627926 0.014637 0.136138
H27   H     H_    0.149224 0.747734 0.083395 0.150664
H28   H     H_    0.850776 0.252247 0.916603 0.150771
H29   H     H_    0.789645 0.872073 0.985363 0.136138
H30   H     H_    0.149222 0.252114 0.083426 0.150497
H31   H     H_    0.611920 0.338661 0.777536 0.182310
H32   H     H_    0.388079 0.661337 0.222465 0.182722
H33   H     H_    0.388049 0.338675 0.222491 0.182372
H34   H     H_    0.740116 0.844034 0.905276 0.135026
H35   H     H_    0.611937 0.661449 0.777485 0.182359
H36   H     H_    0.111921 0.838663 0.777535 0.182722
H37   H     H_    0.888080 0.161339 0.222464 0.182310
H38   H     H_    0.888063 0.838551 0.222515 0.182359
H39   H     H_    0.111951 0.161325 0.777509 0.182372
H40   H     H_    0.743918 0.226772 0.783118 0.157837
H41   H     H_    0.256080 0.773223 0.216885 0.158393
H42   H     H_    0.256098 0.226845 0.216878 0.158378
H43   H     H_    0.745054 0.770657 0.782626 0.161547
H44   H     H_    0.243920 0.726776 0.783115 0.158393
H45   H     H_    0.300397 0.777267 0.837119 0.154814
H46   H     H_    0.756082 0.273228 0.216882 0.157837
H47   H     H_    0.754946 0.729343 0.217374 0.161547
H48   H     H_    0.243902 0.273155 0.783122 0.158378
H49   H     H_    0.699601 0.222747 0.162884 0.155024
H50   H     H_    0.759884 0.655966 0.094724 0.135026
H51   H     H_    0.300412 0.222775 0.837118 0.154743
H52   H     H_    0.630175 0.347165 0.012645 0.155371
O1    O     O_R   0.746490 0.236330 0.638080 -0.629523
O2    O     O_R   0.325830 0.813840 0.483730 -0.627873
O3    O     O_R   0.325830 0.186160 0.483730 -0.627595
O4    O     O_R   0.674170 0.813840 0.516270 -0.626258
O5    O     O_R   0.174170 0.686160 0.516270 -0.627873
O6    O     O_R   0.825830 0.313840 0.483730 -0.627516
O7    O     O_R   0.825830 0.686160 0.483730 -0.626258
O8    O     O_R   0.174170 0.313840 0.516270 -0.627595
O9    O     O_R   0.739960 0.127620 0.525000 -0.626560
O10   O     O_R   0.260040 0.872380 0.475000 -0.626276
O11   O     O_R   0.260040 0.127620 0.475000 -0.626232
O12   O     O_R   0.253510 0.763670 0.361920 -0.629325
O13   O     O_R   0.739960 0.872380 0.525000 -0.627076
O14   O     O_R   0.239960 0.627620 0.525000 -0.626276
O15   O     O_R   0.760040 0.372380 0.475000 -0.626560
O16   O     O_R   0.760040 0.627620 0.475000 -0.627076
O17   O     O_R   0.239960 0.372380 0.525000 -0.626232
O18   O     O_R   0.680700 0.294870 0.629350 -0.627669
O19   O     O_R   0.319300 0.705130 0.370650 -0.627539
O20   O     O_R   0.319300 0.294870 0.370650 -0.627730
O21   O     O_R   0.680700 0.705130 0.629350 -0.627892
O22   O     O_R   0.180700 0.794870 0.629350 -0.627539
O23   O     O_R   0.253510 0.236330 0.361920 -0.629200
O24   O     O_R   0.819300 0.205130 0.370650 -0.627669
O25   O     O_R   0.819300 0.794870 0.370650 -0.627892
O26   O     O_R   0.180700 0.205130 0.629350 -0.627730
O27   O     O_R   0.062020 0.072840 0.007170 -0.623820
O28   O     O_R   0.937980 0.927160 0.992830 -0.624765
O29   O     O_R   0.937980 0.072840 0.992830 -0.624876
O30   O     O_R   0.062020 0.927160 0.007170 -0.623965
O31   O     O_R   0.562020 0.572840 0.007170 -0.624765
O32   O     O_R   0.437980 0.427160 0.992830 -0.623820
O33   O     O_R   0.437980 0.572840 0.992830 -0.623965
O34   O     O_R   0.746490 0.763670 0.638080 -0.628277
O35   O     O_R   0.562020 0.427160 0.007170 -0.624876
O36   O     O_R   0.947860 0.073950 0.109290 -0.620062
O37   O     O_R   0.052140 0.926050 0.890710 -0.619627
O38   O     O_R   0.052140 0.073950 0.890710 -0.620192
O39   O     O_R   0.947860 0.926050 0.109290 -0.620210
O40   O     O_R   0.447860 0.573950 0.109290 -0.619627
O41   O     O_R   0.552140 0.426050 0.890710 -0.620062
O42   O     O_R   0.552140 0.573950 0.890710 -0.620210
O43   O     O_R   0.447860 0.426050 0.109290 -0.620192
O44   O     O_R   0.246490 0.736330 0.638080 -0.629325
O45   O     O_R   0.753510 0.263670 0.361920 -0.629523
O46   O     O_R   0.753510 0.736330 0.361920 -0.628277
O47   O     O_R   0.246490 0.263670 0.638080 -0.629200
O48   O     O_R   0.674170 0.186160 0.516270 -0.627516
Zn1   Zn    Zn3+2 0.792340 0.208750 0.507670 1.000114
Zn2   Zn    Zn3+2 0.494040 0.500000 0.919480 0.976770
Zn3   Zn    Zn3+2 0.005960 0.000000 0.080520 0.976771
Zn4   Zn    Zn3+2 0.994040 0.000000 0.919480 0.975783
Zn5   Zn    Zn3+2 0.207660 0.791250 0.492330 1.001225
Zn6   Zn    Zn3+2 0.207660 0.208750 0.492330 1.000984
Zn7   Zn    Zn3+2 0.792340 0.791250 0.507670 1.002329
Zn8   Zn    Zn3+2 0.292340 0.708750 0.507670 1.001225
Zn9   Zn    Zn3+2 0.707660 0.291250 0.492330 1.000114
Zn10  Zn    Zn3+2 0.707660 0.708750 0.492330 1.002329
Zn11  Zn    Zn3+2 0.292340 0.291250 0.507670 1.000984
Zn12  Zn    Zn3+2 0.505960 0.500000 0.080520 0.975783

loop_
_geom_bond_atom_site_label_1
_geom_bond_atom_site_label_2
_ccdc_geom_bond_type
C125  C134  A    
C2    Cl2   S    
C14   C56   A    
O48   Zn9   S    
C59   C130  S    
C65   C79   A    
C5    O32   A    
C52   H18   S    
C123  C132  A    
C55   H21   S    
C5    O43   A    
C11   C47   A    
O12   Zn5   S    
C139  O10   A    
C8    C43   A    
C105  O45   A    
O41   Zn2   S    
C99   C148  S    
C105  C117  S    
C25   C43   A    
C139  O2    A    
C69   C78   A    
C28   C47   A    
C116  O46   A    
C99   C108  A    
O36   Zn3   S    
C83   O34   A    
C11   C19   A    
C124  H44   S    
C120  H40   S    
C30   C141  S    
C124  C133  A    
C106  C114  A    
C127  O47   A    
C63   C133  S    
C6    O40   A    
C84   H25   S    
C72   O23   A    
C29   C51   A    
C81   H22   S    
C128  C136  A    
C16   C35   A    
C143  O15   A    
C90   C134  A    
C34   C145  S    
C75   C84   A    
C11   C18   A    
C104  H33   S    
C10   C17   A    
C54   H20   S    
O9    Zn1   S    
C31   C40   A    
C62   C70   A    
O7    Zn7   S    
C128  H48   S    
C20   C138  A    
C37   C42   A    
C51   H17   S    
O37   Zn4   S    
C24   Cl4   S    
C26   C45   A    
C85   C129  A    
C3    O37   A    
C21   C43   A    
C85   C93   A    
C23   C44   A    
C26   C34   A    
C22   C44   A    
C113  C122  A    
C33   C137  S    
C9    C44   A    
C141  O13   A    
C29   C38   A    
O19   Zn8   S    
C64   C73   A    
C61   O12   A    
C6    O33   A    
C78   H30   S    
O20   Zn11  S    
C91   C100  A    
C79   H29   S    
C121  C130  A    
C40   H10   S    
C88   C97   A    
C89   H5    S    
C26   C48   A    
O25   Zn7   S    
C147  O28   A    
C92   H8    S    
C24   C51   A    
C88   H4    S    
C62   C82   A    
O22   Zn5   S    
C147  O39   A    
C100  C109  A    
C8    C16   A    
C1    C111  S    
C4    C97   S    
C38   C142  S    
C83   C114  S    
C91   H7    S    
C102  C111  A    
C92   C136  A    
C34   C41   A    
C28   C50   A    
C106  H35   S    
C74   C82   A    
C56   Cl7   S    
C46   Cl6   S    
C53   H19   S    
C60   C131  S    
C73   C81   A    
C71   C80   A    
C95   C103  A    
C109  C118  A    
C22   C53   A    
C75   H51   S    
C138  Cl1   S    
O2    Zn8   S    
C7    C93   S    
C57   Cl8   S    
C64   C134  S    
C101  C146  S    
O28   Zn4   S    
C17   C24   A    
C89   C133  A    
C22   C31   A    
C1    O1    A    
C148  O29   A    
C105  O24   A    
C62   C132  S    
O30   Zn3   S    
O35   Zn12  S    
C13   Cl3   S    
C38   C41   A    
O33   Zn2   S    
C58   C81   A    
C10   C20   A    
C49   H15   S    
O44   Zn8   S    
C86   C130  A    
C83   O21   A    
O45   Zn9   S    
C101  C110  A    
C145  O17   A    
C72   C113  S    
C125  H46   S    
C65   C74   A    
C120  C129  A    
O21   Zn10  S    
O5    Zn5   S    
C111  C120  A    
C39   H9    S    
C9    C14   A    
C108  H37   S    
C2    C49   A    
C36   C42   A    
C59   C68   A    
C145  O8    A    
C33   C39   A    
C140  O11   A    
O1    Zn1   S    
O31   Zn12  S    
C1    O18   A    
O34   Zn7   S    
C42   H13   S    
C121  H41   S    
C87   C96   A    
O29   Zn4   S    
O3    Zn11  S    
C64   C76   A    
C109  H38   S    
C67   H1    S    
C61   O19   A    
C122  H42   S    
C86   H2    S    
C141  O4    A    
C107  C115  A    
C65   C135  S    
C87   C131  A    
C92   C101  A    
C32   C139  S    
C143  O6    A    
C48   H14   S    
C114  C123  A    
C13   C18   A    
C66   C78   A    
C60   C69   A    
O23   Zn6   S    
C7    O41   A    
C126  C135  A    
C119  C127  S    
C12   C15   A    
O24   Zn1   S    
C96   C104  A    
C27   C36   A    
C14   C16   A    
C90   H6    S    
C12   C57   A    
C7    O35   A    
O4    Zn10  S    
C68   H12   S    
C90   C99   A    
C110  H39   S    
C5    C96   S    
C27   C49   A    
C94   O22   A    
C23   C54   A    
C63   C77   A    
C27   C47   A    
C68   C77   A    
C71   H45   S    
C73   H49   S    
C146  O27   A    
O46   Zn10  S    
C127  O26   A    
C115  C124  A    
C37   C143  S    
C2    C19   A    
C93   C102  A    
C108  C117  A    
C70   H34   S    
O11   Zn6   S    
C103  H32   S    
C35   Cl5   S    
C142  O5    A    
C63   C71   A    
C137  O9    A    
O13   Zn7   S    
C94   O44   A    
C110  C119  A    
C123  H43   S    
C144  O7    A    
O39   Zn3   S    
C94   C115  S    
C54   C56   A    
C59   C80   A    
O40   Zn12  S    
C48   C138  A    
C126  H47   S    
C118  C126  A    
C21   C30   A    
C146  O38   A    
C102  H31   S    
C100  C147  S    
C89   C98   A    
C142  O14   A    
C23   C32   A    
C55   C57   A    
C9    C15   A    
C4    O42   A    
C112  C121  A    
C80   H24   S    
C25   C55   A    
C119  C128  A    
C107  H36   S    
C60   C84   A    
C3    C98   S    
C122  C131  A    
C70   C79   A    
O6    Zn1   S    
O47   Zn11  S    
C28   C37   A    
C87   H3    S    
C3    O30   A    
C66   C75   A    
C41   H11   S    
C46   C53   A    
C104  C113  A    
C77   H27   S    
C4    O31   A    
C116  C118  S    
C30   C39   A    
C66   C136  S    
C18   C20   A    
O15   Zn9   S    
C32   C40   A    
C36   C144  S    
C116  O25   A    
C144  O16   A    
C137  O48   A    
O38   Zn4   S    
C86   C95   A    
C98   C107  A    
O18   Zn9   S    
O8    Zn6   S    
C13   C50   A    
C17   C19   A    
C97   C106  A    
C58   C67   A    
O26   Zn6   S    
C91   C135  A    
C140  O3    A    
O27   Zn3   S    
C6    C95   S    
C72   O20   A    
C10   C45   A    
C29   C45   A    
C35   C52   A    
C148  O36   A    
O10   Zn5   S    
C88   C132  A    
C103  C112  A    
O16   Zn10  S    
C50   H16   S    
C67   C76   A    
C58   C129  S    
C15   C46   A    
O32   Zn2   S    
C31   C140  S    
C76   H28   S    
C61   C112  S    
C117  C125  A    
O43   Zn12  S    
O17   Zn11  S    
C21   C52   A    
C69   H23   S    
C8    C12   A    
C85   H52   S    
C25   C33   A    
O14   Zn8   S    
C82   H26   S    
C74   H50   S    
O42   Zn2   S    
