data_mof_unit_22780.cif
_audit_creation_date              2012-12-10T16:51:17-0500
_audit_creation_method            fapswitch 2.2
_symmetry_space_group_name_H-M    P1
_symmetry_Int_Tables_number       1
_space_group_crystal_system       triclinic
_cell_length_a                    27.699968
_cell_length_b                    8.717658
_cell_length_c                    7.423476
_cell_angle_alpha                 101.727963
_cell_angle_beta                  94.226015
_cell_angle_gamma                 92.428171
_cell_volume                      1747.39602062

loop_
_atom_site_label
_atom_site_type_symbol
_atom_type_description
_atom_site_fract_x
_atom_site_fract_y
_atom_site_fract_z
_atom_type_partial_charge
C1    C     C_R   0.497054 0.200837 0.456292 0.884223
C2    C     C_R   0.502987 0.799176 0.543706 0.871451
C3    C     C_R   0.101958 0.480984 0.531137 -0.092923
C4    C     C_R   0.897917 0.518497 0.463065 -0.113161
C5    C     C_R   0.123475 0.339723 0.456956 -0.142661
C6    C     C_R   0.876371 0.660047 0.536297 -0.148488
C7    C     C_R   0.093024 0.200586 0.399125 0.440553
C8    C     C_R   0.906875 0.799374 0.593095 0.435704
C9    C     C_R   0.131694 0.612972 0.622014 -0.078072
C10   C     C_R   0.868207 0.385541 0.375007 -0.094042
C11   C     C_R   0.354546 0.493544 0.508719 -0.077856
C12   C     C_R   0.645451 0.505792 0.490862 -0.075484
C13   C     C_R   0.970129 0.368027 0.396243 0.001592
C14   C     C_R   0.029760 0.631973 0.596079 0.012388
C15   C     C_R   0.978873 0.643617 0.563542 0.009332
C16   C     C_R   0.021025 0.356407 0.428306 0.015083
C17   C     C_R   0.949139 0.509572 0.475747 0.030173
C18   C     C_R   0.050754 0.490316 0.516923 0.047664
C19   C     C_R   0.939041 0.247643 0.280083 0.356330
C20   C     C_R   0.060762 0.752102 0.713181 0.364562
C21   C     C_R   0.889054 0.254315 0.278663 -0.060994
C22   C     C_R   0.110768 0.744463 0.717313 -0.049666
C23   C     C_R   0.407475 0.498504 0.502417 0.880939
C24   C     C_R   0.592527 0.501321 0.497530 0.865532
C25   C     C_R   0.042730 0.211394 0.392167 -0.141935
C26   C     C_R   0.957151 0.788567 0.599164 -0.135134
C27   C     C_2   0.487208 0.037175 0.442567 0.091017
C28   C     C_2   0.512940 0.962888 0.557394 0.087988
C29   C     C_R   0.174525 0.345041 0.450004 0.676227
C30   C     C_R   0.825289 0.654679 0.543190 0.658280
C31   C     C_R   0.182085 0.608268 0.622880 0.626574
C32   C     C_R   0.817888 0.388953 0.377761 0.671865
C33   C     C_R   0.283666 0.457666 0.672234 -0.107917
C34   C     C_R   0.716185 0.538981 0.325547 -0.101853
C35   C     C_R   0.333819 0.464649 0.666559 -0.182686
C36   C     C_R   0.666061 0.532489 0.331855 -0.189425
C37   C     C_R   0.324307 0.516280 0.357058 -0.184368
C38   C     C_R   0.675800 0.484636 0.643032 -0.170358
C39   C     C_R   0.274030 0.511625 0.363708 0.411503
C40   C     C_R   0.726070 0.488896 0.635776 0.431149
C41   C     C_R   0.253640 0.481316 0.521602 0.246706
C42   C     C_R   0.746320 0.517024 0.476689 0.241617
Cu1   Cu    Cu3+1 0.505380 0.517380 0.684380 1.073791
Cu2   Cu    Cu3+1 0.494620 0.482620 0.315620 1.069654
H1    H     H_    0.339668 0.539776 0.234655 0.199216
H2    H     H_    0.660537 0.462801 0.766342 0.190054
H3    H     H_    0.462543 0.378252 0.949023 0.243077
H4    H     H_    0.537460 0.621732 0.050981 0.237654
H5    H     H_    0.643502 0.549948 0.213002 0.171457
H6    H     H_    0.356312 0.445845 0.784908 0.176551
H7    H     H_    0.731725 0.560863 0.203015 0.209234
H8    H     H_    0.268023 0.434220 0.793921 0.209788
H9    H     H_    0.866352 0.157833 0.194973 0.249689
H10   H     H_    0.133401 0.840545 0.802068 0.249566
H11   H     H_    0.020558 0.103705 0.368118 0.233053
H12   H     H_    0.979330 0.896149 0.622358 0.239264
N1    N     N_R   0.202169 0.477985 0.531673 -0.460419
N2    N     N_R   0.797771 0.520307 0.466058 -0.468252
N3    N     N_2   0.486510 0.456430 0.038510 -0.182310
N4    N     N_2   0.513490 0.543570 0.961490 -0.188112
O1    O     O_R   0.503500 0.286120 0.619780 -0.567636
O2    O     O_R   0.496500 0.713880 0.380220 -0.567463
O3    O     O_R   0.494410 0.256780 0.308360 -0.529544
O4    O     O_R   0.505590 0.743220 0.691640 -0.529501
O5    O     O_R   0.434810 0.514700 0.655690 -0.602136
O6    O     O_R   0.565190 0.485300 0.344310 -0.618479
O7    O     O_R   0.425720 0.485350 0.344280 -0.555779
O8    O     O_R   0.574280 0.514650 0.655720 -0.565244
O9    O     O_2   0.196656 0.221828 0.358529 -0.425282
O10   O     O_2   0.802954 0.779463 0.629764 -0.401819
O11   O     O_2   0.789161 0.261176 0.295577 -0.444026
O12   O     O_2   0.210922 0.733795 0.711324 -0.478160
Cl1   Cl    Cl    0.237162 0.547284 0.175003 -0.561836
Cl2   Cl    Cl    0.763129 0.455757 0.825305 -0.546595
S1    S     S_3+6 0.115096 0.009037 0.351632 0.082809
O13   O     O_2   0.075013 0.885690 0.344800 -0.282150
O14   O     O_2   0.136360 0.982202 0.168058 -0.196107
O15   O     O_3   0.158197 0.993228 0.517574 -0.496207
H13   H     H_    0.177758 0.906875 0.460003 0.405221
S2    S     S_3+6 0.885168 0.991392 0.642071 0.087614
O16   O     O_2   0.848003 0.009154 0.490808 -0.234199
O17   O     O_2   0.862355 0.016463 0.822518 -0.185268
O18   O     O_3   0.930759 0.128545 0.658006 -0.537113
H14   H     H_    0.916162 0.229971 0.700849 0.381532
Cl3   Cl    Cl    0.958378 0.100926 0.104908 -0.483117
Cl4   Cl    Cl    0.041167 0.899545 0.886962 -0.469039
S3    S     S_3+6 0.434177 0.953910 0.298235 0.022038
O19   O     O_2   0.448940 0.857941 0.120941 -0.247955
O20   O     O_2   0.404501 0.851410 0.393907 -0.310143
O21   O     O_3   0.400096 0.097782 0.249227 -0.534018
H15   H     H_    0.372106 0.042913 0.167219 0.391677
S4    S     S_3+6 0.565874 0.047041 0.702183 0.027926
O22   O     O_2   0.596396 0.919681 0.749019 -0.265459
O23   O     O_2   0.595589 0.148559 0.605399 -0.312753
O24   O     O_3   0.548958 0.155985 0.898923 -0.491029
H16   H     H_    0.579234 0.211957 0.963333 0.374856

loop_
_geom_bond_atom_site_label_1
_geom_bond_atom_site_label_2
_ccdc_geom_bond_type
C21   H9    S    
S3    O19   D    
C8    C26   A    
C14   C18   A    
Cu2   O6    S    
O24   H16   S    
C34   C42   A    
C32   N2    A    
Cu1   Cu2   S    
C42   N2    S    
C39   C41   A    
C33   H8    S    
C34   H7    S    
C19   C21   A    
C9    C22   A    
Cu2   N3    S    
C3    C18   A    
C23   O7    A    
C11   C37   A    
Cu1   O8    S    
C20   Cl4   S    
C12   C36   A    
C5    C29   A    
C24   O6    A    
C40   C42   A    
N3    N4    D    
Cu2   O3    S    
C22   H10   S    
S2    O18   S    
C1    O3    A    
C30   O10   S    
C2    O4    A    
Cu1   O4    S    
H4    N4    S    
C32   O11   S    
C29   O9    S    
C10   C21   A    
C13   C19   A    
C14   C20   A    
S2    O17   D    
C5    C7    A    
C9    C31   A    
O15   H13   S    
C15   C26   A    
C6    C8    A    
Cu2   O2    S    
S4    O24   S    
C1    O1    A    
S1    O13   D    
C3    C9    A    
O18   H14   S    
Cu1   O5    S    
C35   H6    S    
S4    O23   D    
C28   S4    S    
C27   S3    S    
S1    O14   D    
Cu1   N4    S    
C4    C17   A    
C4    C6    A    
C31   O12   S    
C6    C30   A    
C20   C22   A    
S3    O20   D    
C13   C16   A    
C37   H1    S    
C3    C5    A    
Cu1   O1    S    
C8    S2    S    
C16   C25   A    
C15   C17   A    
C25   H11   S    
C29   N1    A    
S2    O16   D    
C19   Cl3   S    
C26   H12   S    
C7    S1    S    
C12   C24   S    
C7    C25   A    
C13   C17   A    
C33   C41   A    
C23   O5    A    
C11   C35   A    
C41   N1    S    
C37   C39   A    
C38   C40   A    
C31   N1    A    
O21   H15   S    
C30   N2    A    
C11   C23   S    
S4    O22   D    
C33   C35   A    
C40   Cl2   S    
C34   C36   A    
C39   Cl1   S    
C12   C38   A    
S1    O15   S    
C38   H2    S    
C24   O8    A    
H3    N3    S    
C10   C32   A    
C16   C18   A    
S3    O21   S    
C27   C28   D    
C1    C27   S    
C14   C15   A    
Cu2   O7    S    
C2    C28   S    
C4    C10   A    
C36   H5    S    
C2    O2    A    
