data_mof_unit_54815.cif
_audit_creation_date              2013-03-05T15:43:51-0500
_audit_creation_method            fapswitch 2.2
_symmetry_space_group_name_H-M    P1
_symmetry_Int_Tables_number       1
_space_group_crystal_system       triclinic
_cell_length_a                    13.882098
_cell_length_b                    13.781916
_cell_length_c                    27.265516
_cell_angle_alpha                 90.18116
_cell_angle_beta                  90.697119
_cell_angle_gamma                 59.888127
_cell_volume                      4512.15189407

loop_
_atom_site_label
_atom_site_type_symbol
_atom_site_description
_atom_site_fract_x
_atom_site_fract_y
_atom_site_fract_z
_atom_type_partial_charge
O1    O     O_R   0.301710 0.195650 0.554160 -0.470777
O2    O     O_R   0.522390 0.158990 0.550460 -0.488138
C1    C     C_R   0.620402 0.098860 0.570094 0.544030
O3    O     O_R   0.694390 0.003530 0.554040 -0.488101
O4    O     O_R   0.657700 0.819660 0.549320 -0.490481
C2    C     C_R   0.597393 0.783435 0.569262 0.543710
O5    O     O_R   0.501930 0.803280 0.552920 -0.490974
O6    O     O_R   0.318170 0.023580 0.549580 -0.499710
C3    C     C_R   0.280721 0.120586 0.569750 0.550565
O7    O     O_R   0.303010 0.193990 0.446760 -0.442281
O8    O     O_R   0.523600 0.157450 0.450900 -0.442421
C4    C     C_R   0.624560 0.103352 0.433831 0.566284
O9    O     O_R   0.695690 0.001860 0.446640 -0.487830
O10   O     O_R   0.658900 0.818120 0.449760 -0.494729
C5    C     C_R   0.598638 0.780116 0.429620 0.556165
O11   O     O_R   0.503220 0.801620 0.445520 -0.440499
O12   O     O_R   0.319370 0.022040 0.450020 -0.426762
C6    C     C_R   0.280516 0.120987 0.429567 0.595221
Cr1   Cr    Cr6+3 0.417550 0.169090 0.500530 1.168268
Cr2   Cr    Cr6+3 0.669180 0.913420 0.499920 1.112175
Cr3   Cr    Cr6+3 0.413260 0.917540 0.499520 1.167102
O13   O     O_3   0.499990 0.000010 0.499990 -0.323150
C7    C     C_3   0.755583 0.606564 0.737309 0.150360
C8    C     C_3   0.762969 0.686383 0.774816 0.185534
H1    H     H_    0.658176 0.870048 0.741113 0.209971
C9    C     C_1   0.696685 0.618372 0.903450 0.103605
C10   C     C_1   0.622390 0.747362 0.618880 0.061727
C11   C     C_3   0.674952 0.591466 0.772284 0.108991
C12   C     C_3   0.685754 0.670939 0.809424 -0.012192
C13   C     C_3   0.573216 0.694171 0.748720 0.085044
C14   C     C_3   0.652757 0.709869 0.714803 -0.084174
C15   C     C_3   0.585500 0.771156 0.785871 0.168734
C16   C     C_3   0.662436 0.790390 0.751609 -0.111342
C17   C     C_1   0.693129 0.649082 0.862084 0.130997
C18   C     C_1   0.636266 0.728978 0.662065 0.035555
C19   C     C_3   0.092051 0.143330 0.734749 -0.133610
C20   C     C_3   0.170157 0.057155 0.774162 0.090750
H2    H     H_    0.026169 0.138961 0.713015 0.193862
H3    H     H_    0.353121 0.984832 0.743545 0.209018
C21   C     C_1   0.094922 0.199375 0.902872 0.103551
C22   C     C_1   0.238277 0.134347 0.618343 0.078811
C23   C     C_3   0.074193 0.239094 0.769843 0.169722
C24   C     C_3   0.149330 0.154785 0.808870 -0.021331
C25   C     C_3   0.172043 0.243782 0.748353 0.211704
C26   C     C_3   0.192541 0.147224 0.713534 -0.063170
C27   C     C_3   0.248319 0.158533 0.786944 0.195405
C28   C     C_3   0.271960 0.059619 0.752184 -0.077929
C29   C     C_1   0.123084 0.173948 0.861079 0.105719
C30   C     C_1   0.214438 0.141498 0.660983 0.069916
C31   C     C_3   0.663223 0.248226 0.736346 0.074849
C32   C     C_3   0.564289 0.270335 0.770160 0.103262
C33   C     C_1   0.682663 0.212153 0.904508 0.094373
C34   C     C_1   0.639129 0.122545 0.618942 0.087164
C35   C     C_3   0.749085 0.168713 0.775950 0.078892
C36   C     C_3   0.650060 0.191334 0.809357 -0.050278
C37   C     C_3   0.745040 0.068302 0.753677 0.150480
C38   C     C_3   0.661197 0.145803 0.714470 -0.063907
C39   C     C_3   0.649578 0.089357 0.787311 0.162415
C40   C     C_3   0.565369 0.166463 0.748397 0.181017
C41   C     C_1   0.659068 0.205370 0.862436 0.100390
C42   C     C_1   0.653126 0.132219 0.661751 0.087891
C43   C     C_R   0.735603 0.658850 0.364920 -0.114544
C44   C     C_R   0.755146 0.626224 0.315095 0.001555
C45   C     C_R   0.781947 0.609495 0.211959 0.000072
C46   C     C_R   0.876657 0.563490 0.244095 0.125802
C47   C     C_R   0.862885 0.570550 0.295603 0.231604
C48   C     C_R   0.787488 0.615953 0.160171 0.103789
H4    H     H_    0.803842 0.641054 0.389863 0.194920
C49   C     C_R   0.693620 0.638520 0.131038 0.000570
C50   C     C_R   0.536760 0.752121 0.348475 0.266141
C51   C     C_R   0.556839 0.700388 0.302934 -0.010165
C52   C     C_R   0.663632 0.654170 0.283561 -0.048752
C53   C     C_R   0.469360 0.705397 0.274420 0.184272
C54   C     C_R   0.479618 0.700027 0.223169 0.179019
C55   C     C_R   0.580227 0.680083 0.202149 -0.035167
C56   C     C_R   0.676224 0.644714 0.232482 -0.056317
C57   C     C_R   0.588371 0.689891 0.151556 0.167602
C58   C     C_R   0.626084 0.726776 0.380967 -0.016770
C59   C     C_R   0.177743 0.093084 0.356966 0.236133
C60   C     C_R   0.173298 0.084018 0.304699 -0.001339
C61   C     C_R   0.152981 0.084304 0.200739 -0.006778
C62   C     C_R   0.112062 0.029549 0.230257 0.236808
C63   C     C_R   0.128991 0.022866 0.281317 0.132354
C64   C     C_R   0.136690 0.093328 0.149668 0.119117
C65   C     C_R   0.138020 0.182239 0.125350 -0.034542
C66   C     C_R   0.265486 0.205293 0.346624 0.204763
C67   C     C_R   0.267033 0.192503 0.295850 0.006171
C68   C     C_R   0.217176 0.136046 0.274475 -0.021052
C69   C     C_R   0.322278 0.231654 0.266215 -0.048346
C70   C     C_R   0.317347 0.227982 0.215398 0.241207
C71   C     C_R   0.248963 0.191789 0.192778 0.022714
C72   C     C_R   0.207255 0.136395 0.222718 -0.053930
C73   C     C_R   0.209013 0.219753 0.143427 0.100200
C74   C     C_R   0.235550 0.143088 0.377814 0.041115
H5    H     H_    0.373450 0.262086 0.282237 0.177133
C75   C     C_R   0.589429 0.255493 0.371501 0.123875
C76   C     C_R   0.592831 0.271587 0.320180 0.010766
C77   C     C_R   0.609394 0.295728 0.218198 0.014332
C78   C     C_R   0.534683 0.386928 0.246479 -0.075423
C79   C     C_R   0.516665 0.371702 0.295394 0.117238
C80   C     C_R   0.619466 0.309048 0.168121 -0.097923
H6    H     H_    0.579368 0.392875 0.152606 0.173922
H7    H     H_    0.479027 0.466139 0.228768 0.197692
C81   C     C_R   0.684648 0.215822 0.138481 0.023886
C82   C     C_R   0.748647 0.070447 0.365226 0.094765
C83   C     C_R   0.744503 0.075726 0.313911 -0.025704
C84   C     C_R   0.669783 0.179002 0.291352 -0.038117
C85   C     C_R   0.796834 0.978222 0.285020 0.103691
C86   C     C_R   0.783647 0.985909 0.233604 0.249109
C87   C     C_R   0.728991 0.092394 0.210190 0.026769
C88   C     C_R   0.670539 0.188945 0.239870 -0.003710
C89   C     C_R   0.730500 0.106568 0.158411 0.272612
C90   C     C_R   0.656292 0.147678 0.391281 0.005238
O14   O     O_R   0.818720 0.150820 0.967160 -0.468780
O15   O     O_R   0.006410 0.181720 0.970200 -0.499330
C91   C     C_R   0.047470 0.236989 0.950172 0.553072
O16   O     O_R   0.027890 0.334070 0.964920 -0.470800
O17   O     O_R   0.809600 0.521790 0.967960 -0.481492
C92   C     C_R   0.711019 0.564582 0.949483 0.554311
O18   O     O_R   0.635520 0.542770 0.964420 -0.480787
O19   O     O_R   0.665950 0.325030 0.970100 -0.489914
C93   C     C_R   0.721164 0.226412 0.951521 0.563795
O20   O     O_R   0.816620 0.158530 0.074540 -0.437544
O21   O     O_R   0.004460 0.188870 0.069750 -0.485779
C94   C     C_R   0.055018 0.239997 0.085445 0.543920
O22   O     O_R   0.025800 0.341780 0.072300 -0.479075
O23   O     O_R   0.807650 0.528950 0.067500 -0.491893
C95   C     C_R   0.709677 0.574190 0.085818 0.537256
O24   O     O_R   0.633420 0.550490 0.071810 -0.475741
O25   O     O_R   0.664000 0.332180 0.069640 -0.502481
C96   C     C_R   0.720678 0.234424 0.090085 0.565279
Cr4   Cr    Cr6+3 0.909170 0.177380 0.020380 1.149274
Cr5   Cr    Cr6+3 0.912710 0.429210 0.018220 1.131746
Cr6   Cr    Cr6+3 0.657170 0.432570 0.019030 1.122561
O26   O     O_3   0.826350 0.346390 0.019210 -0.315398
N1    N     N_R   0.867468 0.679544 0.789509 0.164351
O27   O     O_R   0.929139 0.689626 0.756735 -0.175306
O28   O     O_R   0.901782 0.659070 0.834896 -0.212377
N2    N     N_R   0.328194 0.166614 0.819231 0.133806
O29   O     O_R   0.341382 0.253164 0.816431 -0.241813
O30   O     O_R   0.360715 0.106065 0.858923 -0.220561
N3    N     N_R   0.167347 0.348606 0.735244 0.151395
O31   O     O_R   0.145462 0.424335 0.768587 -0.173930
O32   O     O_R   0.172105 0.372344 0.689539 -0.239428
N4    N     N_R   0.966600 0.335887 0.779699 0.107737
O33   O     O_R   0.879855 0.346907 0.756300 -0.299317
O34   O     O_R   0.955997 0.409174 0.812516 -0.278277
I1    I     I_    0.414390 0.427554 0.780977 0.057396
I2    I     I_    0.676454 0.358880 0.684716 -0.172865
N5    N     N_R   0.471295 0.159156 0.729153 0.110717
O35   O     O_R   0.480430 0.060884 0.726026 -0.391601
O36   O     O_R   0.400768 0.238548 0.700295 -0.264505
N6    N     N_R   0.643020 0.010211 0.820198 0.110363
O37   O     O_R   0.573528 0.050413 0.856212 -0.203494
O38   O     O_R   0.727838 0.909485 0.824471 -0.255071
N7    N     N_R   0.842520 0.959474 0.743747 0.121549
O39   O     O_R   0.912868 0.903817 0.778876 -0.183060
O40   O     O_R   0.861212 0.918672 0.699580 -0.281076
I3    I     I_    0.891681 0.149865 0.814049 -0.195038
I4    I     I_    0.909805 0.641219 0.123506 0.033750
I5    I     I_    0.883885 0.510504 0.684655 -0.043289
I6    I     I_    0.041168 0.456240 0.219350 -0.157424
N8    N     N_R   0.958004 0.519066 0.328086 0.083588
O41   O     O_R   0.035540 0.545565 0.325768 -0.211345
O42   O     O_R   0.965842 0.447168 0.360982 -0.297709
N9    N     N_R   0.489991 0.754065 0.121605 -0.119055
O43   O     O_R   0.494142 0.795507 0.079377 -0.000000
O44   O     O_R   0.494142 0.795507 0.079377 -0.000000
N10   N     N_R   0.390389 0.709800 0.192757 0.126662
O45   O     O_R   0.404396 0.627449 0.164565 -0.291574
O46   O     O_R   0.296931 0.804186 0.191074 -0.248069
N11   N     N_R   0.379206 0.700859 0.298120 0.092913
O47   O     O_R   0.299237 0.701798 0.272501 -0.213767
O48   O     O_R   0.389945 0.669614 0.343820 -0.263871
N12   N     N_R   0.434904 0.856363 0.353498 0.074348
O49   O     O_R   0.350405 0.862450 0.376317 -0.236304
O50   O     O_R   0.427119 0.945617 0.333637 -0.404561
I7    I     I_    0.144665 0.958499 0.106130 0.042241
N13   N     N_R   0.101096 0.080932 0.387407 0.084885
O51   O     O_R   0.994918 0.149368 0.381007 -0.302648
O52   O     O_R   0.135477 0.015851 0.425783 -0.253159
N14   N     N_R   0.034422 0.000687 0.209986 0.086166
O53   O     O_R   0.943389 0.078914 0.189648 -0.372513
O54   O     O_R   0.058944 0.896564 0.207039 -0.170365
I8    I     I_    0.102671 0.903668 0.318529 0.103321
I9    I     I_    0.246933 0.318935 0.094704 -0.036840
N15   N     N_R   0.384386 0.259395 0.188145 0.077191
O55   O     O_R   0.366796 0.361197 0.191064 -0.295056
O56   O     O_R   0.468071 0.184250 0.163204 -0.307694
N16   N     N_R   0.290628 0.285876 0.366281 0.087735
O57   O     O_R   0.393793 0.256397 0.373943 -0.354419
O58   O     O_R   0.212539 0.377208 0.386096 -0.197053
I10   I     I_    0.519209 0.389365 0.423474 -0.108482
I11   I     I_    0.348562 0.475647 0.317042 0.068125
N17   N     N_R   0.781865 0.012258 0.125893 0.124815
O59   O     O_R   0.889747 0.949803 0.124908 -0.186892
O60   O     O_R   0.722582 0.002374 0.091020 -0.254778
N18   N     N_R   0.498322 0.851726 0.817523 0.101576
O61   O     O_R   0.404535 0.852822 0.819019 -0.301571
O62   O     O_R   0.526884 0.889651 0.855239 -0.200395
N19   N     N_R   0.814651 0.885831 0.206421 0.114407
O63   O     O_R   0.917639 0.804556 0.206552 -0.193190
O64   O     O_R   0.737236 0.869855 0.187513 -0.299252
I12   I     I_    0.862274 0.817200 0.318145 -0.109024
I13   I     I_    0.899205 0.981088 0.408146 -0.047895
I14   I     I_    0.427236 0.698436 0.719742 -0.125859
I15   I     I_    0.658133 0.463184 0.808885 -0.193519
I16   I     I_    0.165170 0.907802 0.790884 -0.003759

loop_
_geom_bond_atom_site_label_1
_geom_bond_atom_site_label_2
_geom_bond_distance
_ccdc_geom_bond_type
C78   H7    1.081590 S    
C67   C68   1.397056 A    
C20   C24   1.548496 S    
N16   O57   1.291965 A    
O20   Cr4   2.069376 S    
C50   C58   1.408937 A    
N10   O46   1.297311 A    
N10   O45   1.301344 A    
C35   C36   1.554105 S    
C65   C94   1.483167 S    
N8    O41   1.300826 A    
C37   N7    1.457374 S    
O16   Cr5   2.080551 S    
C95   O24   1.307493 A    
C76   C79   1.415324 A    
C61   C62   1.408882 A    
N12   O50   1.299009 A    
O4    Cr2   1.931890 S    
C21   C91   1.428182 S    
N7    O39   1.299906 A    
C91   O16   1.288438 A    
C4    O9    1.289327 A    
O8    Cr1   1.958149 S    
C31   C35   1.566251 S    
C82   C90   1.389064 A    
C19   C20   1.558401 S    
N8    O42   1.301263 A    
C12   C15   1.520559 S    
C13   C14   1.545003 S    
C77   C78   1.398373 A    
C38   C40   1.534504 S    
C5    C58   1.473231 S    
O14   Cr4   2.056621 S    
C83   C84   1.410248 A    
O15   C91   1.284187 A    
C13   I14   2.139208 S    
C85   C86   1.408967 A    
O21   Cr4   1.937120 S    
N19   O63   1.300678 A    
O17   C92   1.284413 A    
C54   N10   1.431214 S    
C15   N18   1.453740 S    
C33   C41   1.205298 T    
C35   I3    2.121518 S    
C8    C12   1.529543 S    
C61   C72   1.403998 A    
C49   C57   1.388674 A    
C9    C17   1.197647 T    
C68   C72   1.416004 A    
O22   Cr5   2.036567 S    
N11   O48   1.301795 A    
O6    C3    1.290353 A    
C81   C96   1.484577 S    
C46   I6    2.121257 S    
C7    C8    1.539471 S    
C14   C16   1.547885 S    
N18   O61   1.295597 A    
C76   C84   1.426023 A    
O19   Cr6   1.949751 S    
C20   C28   1.557687 S    
C66   C74   1.414762 A    
C50   N12   1.430832 S    
C32   C36   1.555945 S    
C2    C10   1.420408 S    
C52   C56   1.403245 A    
C73   I9    2.158886 S    
C8    N1    1.456949 S    
C94   O22   1.299797 A    
C44   C47   1.404788 A    
Cr3   O13   2.028354 S    
N9    O44   1.301521 A    
N19   O64   1.300929 A    
O25   Cr6   1.924746 S    
C23   C25   1.516677 S    
C60   C63   1.414997 A    
C22   C30   1.202810 T    
C37   C39   1.524271 S    
N4    O34   1.300290 A    
C25   C27   1.530075 S    
N4    O33   1.295615 A    
C87   C89   1.427666 A    
O15   Cr4   1.955553 S    
C26   C28   1.558166 S    
C53   C54   1.404288 A    
C35   C37   1.535846 S    
O1    Cr1   2.078787 S    
C66   N16   1.422363 S    
C54   C55   1.409955 A    
N2    O30   1.298927 A    
C80   H6    1.084248 S    
O10   Cr2   1.946233 S    
Cr1   O13   2.016027 S    
O1    C3    1.282222 A    
C64   C65   1.403436 A    
C49   C95   1.468810 S    
C59   C74   1.408316 A    
N1    O28   1.300363 A    
C71   C72   1.429486 A    
C51   C53   1.406122 A    
C66   C67   1.394065 A    
C31   C32   1.561488 S    
C57   N9    1.442144 S    
O5    Cr3   2.034888 S    
H3    C28   1.107689 S    
C12   C17   1.459769 S    
O12   Cr3   1.918478 S    
C1    O3    1.275154 A    
C87   C88   1.417654 A    
C48   C49   1.412593 A    
C7    C14   1.544730 S    
C69   H5    1.077789 S    
C55   C56   1.421799 A    
C45   C48   1.420545 A    
C89   N17   1.436017 S    
C43   C44   1.415627 A    
N5    O36   1.298730 A    
C71   C73   1.427370 A    
C59   C60   1.433442 A    
N12   O49   1.299554 A    
O10   C5    1.304743 A    
C26   C30   1.462021 S    
O7    Cr1   2.048011 S    
N2    O29   1.297005 A    
O14   C93   1.293967 A    
C75   C76   1.422524 A    
O12   C6    1.311871 A    
C45   C56   1.416404 A    
C19   C26   1.542228 S    
C7    C11   1.570508 S    
C9    C92   1.419958 S    
C53   N11   1.444396 S    
C64   I7    2.158044 S    
C55   C57   1.397914 A    
C39   N6    1.452572 S    
O19   C93   1.284982 A    
Cr6   O26   2.031596 S    
O17   Cr5   1.919782 S    
C25   N3    1.458519 S    
C75   I10   2.138906 S    
Cr2   O13   2.031827 S    
C46   C47   1.416084 A    
C80   C81   1.402631 A    
C67   C69   1.401856 A    
N9    O43   1.301518 A    
C6    C74   1.504666 S    
C20   I16   2.144580 S    
C59   N13   1.431861 S    
C75   C90   1.403321 A    
N6    O38   1.297955 A    
C37   C38   1.538790 S    
C34   C42   1.198912 T    
O23   C95   1.285173 A    
C69   C70   1.388422 A    
C61   C64   1.403862 A    
N11   O47   1.298953 A    
C27   N2    1.454801 S    
C81   C89   1.415192 A    
C4    C90   1.483259 S    
C24   C29   1.463760 S    
C40   N5    1.451159 S    
C21   C29   1.202066 T    
C27   C28   1.553953 S    
C11   C12   1.549741 S    
N16   O58   1.300876 A    
C77   C88   1.405477 A    
O9    Cr2   2.050790 S    
O20   C96   1.288684 A    
O2    Cr1   1.934063 S    
N3    O31   1.300256 A    
C31   C38   1.543772 S    
C84   C88   1.411462 A    
C43   C58   1.401715 A    
C25   C26   1.540049 S    
O23   Cr5   1.961233 S    
N1    O27   1.299826 A    
O6    Cr3   1.958787 S    
C19   C23   1.545457 S    
C33   C93   1.433365 S    
C92   O18   1.296924 A    
O11   Cr3   2.075496 S    
C38   C42   1.459174 S    
C2    O5    1.285423 A    
C82   I13   2.149746 S    
C79   I11   2.126076 S    
N13   O51   1.300960 A    
C77   C80   1.396238 A    
C82   C83   1.400233 A    
C62   N14   1.428172 S    
C3    C22   1.429616 S    
C8    C16   1.542651 S    
C78   C79   1.395644 A    
C43   H4    1.082721 S    
C10   C18   1.197953 T    
C15   C16   1.547118 S    
C86   N19   1.429195 S    
O2    C1    1.295504 A    
C39   C40   1.533629 S    
N15   O55   1.300179 A    
C85   I12   2.129718 S    
C86   C87   1.419121 A    
C45   C46   1.427389 A    
C19   H2    1.110452 S    
C13   C15   1.533436 S    
C1    C34   1.421956 S    
C31   I2    2.154538 S    
C70   C71   1.410433 A    
O4    C2    1.295346 A    
C83   C85   1.407743 A    
C32   I1    2.144495 S    
O7    C6    1.279940 A    
Cr4   O26   2.015175 S    
C5    O11   1.284372 A    
C14   C18   1.457159 S    
N7    O40   1.300234 A    
C11   C13   1.545568 S    
C47   N8    1.437667 S    
O25   C96   1.294366 A    
O18   Cr6   2.039467 S    
C7    I5    2.161091 S    
C70   N15   1.424362 S    
C24   C27   1.529655 S    
N14   O54   1.300527 A    
O24   Cr6   2.068794 S    
N15   O56   1.300828 A    
C50   C51   1.389700 A    
N17   O59   1.300728 A    
O3    Cr2   2.062551 S    
C51   C52   1.397135 A    
C65   C73   1.406878 A    
C32   C40   1.541099 S    
C44   C52   1.409273 A    
C60   C68   1.420742 A    
C62   C63   1.404638 A    
C23   C24   1.528088 S    
C36   C39   1.529913 S    
Cr5   O26   2.028504 S    
C11   I15   2.146428 S    
N5    O35   1.298041 A    
C63   I8    2.117409 S    
C48   I4    2.154232 S    
N18   O62   1.297144 A    
N13   O52   1.300529 A    
N6    O37   1.298115 A    
C36   C41   1.471618 S    
C23   N4    1.446008 S    
N3    O32   1.300229 A    
N14   O53   1.298666 A    
O8    C4    1.304606 A    
H1    C16   1.107739 S    
O21   C94   1.288110 A    
N17   O60   1.300974 A    
