data_mof_unit_21455.cif
_audit_creation_date              2013-03-05T16:07:32-0500
_audit_creation_method            fapswitch 2.2
_symmetry_space_group_name_H-M    P1
_symmetry_Int_Tables_number       1
_space_group_crystal_system       triclinic
_cell_length_a                    10.92465
_cell_length_b                    10.77775
_cell_length_c                    9.610242
_cell_angle_alpha                 88.240098
_cell_angle_beta                  91.828537
_cell_angle_gamma                 89.718737
_cell_volume                      1130.41082496

loop_
_atom_site_label
_atom_site_type_symbol
_atom_site_description
_atom_site_fract_x
_atom_site_fract_y
_atom_site_fract_z
_atom_type_partial_charge
O1    O     O_R   0.499990 0.319660 0.618740 -0.522151
O2    O     O_R   0.500010 0.680340 0.381260 -0.522198
O3    O     O_R   0.499990 0.319630 0.381170 -0.578856
O4    O     O_R   0.500010 0.680370 0.618830 -0.578751
C1    C     C_R   0.499127 0.262672 0.501370 0.981784
C2    C     C_R   0.500865 0.737326 0.498629 0.981538
O5    O     O_R   0.319650 0.500020 0.618780 -0.580788
O6    O     O_R   0.680350 0.499980 0.381220 -0.580777
O7    O     O_R   0.319640 0.500000 0.381210 -0.567565
O8    O     O_R   0.680360 0.500000 0.618790 -0.567519
C3    C     C_R   0.262301 0.501830 0.497408 0.857991
C4    C     C_R   0.737699 0.498173 0.502592 0.857976
Cu1   Cu    Cu3+1 0.500000 0.500020 0.640660 1.063301
Cu2   Cu    Cu3+1 0.500000 0.499980 0.359340 1.063228
H1    H     H_    0.189873 0.640827 0.850497 0.199943
H2    H     H_    0.810125 0.359109 0.149487 0.199916
C5    C     C_R   0.119093 0.711733 0.038195 0.002816
C6    C     C_R   0.880912 0.288225 0.961779 0.002609
H3    H     H_    0.107614 0.804866 0.994026 0.204907
H4    H     H_    0.892395 0.195089 0.005937 0.204955
C7    C     C_R   0.085257 0.685237 0.174949 0.479356
C8    C     C_R   0.914753 0.314740 0.825032 0.479424
C9    C     C_R   0.102201 0.562511 0.233145 -0.108711
C10   C     C_R   0.897801 0.437471 0.766850 -0.108673
C11   C     C_R   0.145151 0.467715 0.146664 0.438125
C12   C     C_R   0.854842 0.532254 0.853342 0.438060
C13   C     C_R   0.175886 0.498195 0.010095 -0.181354
C14   C     C_R   0.824107 0.501757 0.989907 -0.181321
H5    H     H_    0.206240 0.426176 0.944129 0.206642
H6    H     H_    0.793748 0.573767 0.055881 0.206655
C15   C     C_R   0.165138 0.619215 0.956644 -0.321890
C16   C     C_R   0.834861 0.380732 0.043342 -0.321965
C17   C     C_R   0.928388 0.526616 0.381078 -0.226442
C18   C     C_R   0.071613 0.473378 0.618920 -0.226290
H7    H     H_    0.873842 0.549448 0.287885 0.189176
H8    H     H_    0.126160 0.450537 0.712110 0.189137
C19   C     C_R   0.871802 0.497881 0.506238 -0.044671
C20   C     C_R   0.128199 0.502119 0.493762 -0.044520
C21   C     C_R   0.945208 0.470259 0.627530 -0.027407
C22   C     C_R   0.054794 0.529738 0.372469 -0.027378
C23   C     C_R   0.406443 0.068575 0.426589 0.314040
C24   C     C_R   0.593597 0.931426 0.573298 0.313934
C25   C     C_R   0.407682 0.938396 0.423290 0.211310
C26   C     C_R   0.592317 0.061588 0.576696 0.211046
C27   C     C_R   0.500749 0.871518 0.497321 -0.242070
C28   C     C_R   0.499246 0.128475 0.502668 -0.242087
C29   C     C_R   0.463294 0.398541 0.077531 -0.117263
C30   C     C_R   0.536707 0.601458 0.922467 -0.117146
H9    H     H_    0.431013 0.317927 0.134735 0.231035
H10   H     H_    0.568995 0.682068 0.865261 0.231200
C31   C     C_R   0.462325 0.397626 0.930039 0.396166
C32   C     C_R   0.537687 0.602371 0.069961 0.396264
N1    N     N_R   0.500030 0.500030 0.852070 -0.252126
N2    N     N_R   0.499970 0.499970 0.147930 -0.252075
N3    N     N_R   0.418378 0.287707 0.865766 0.143005
O9    O     O_R   0.317790 0.291511 0.789678 -0.362005
O10   O     O_R   0.461559 0.180119 0.909105 -0.286515
N4    N     N_R   0.581684 0.712275 0.134231 0.143122
O11   O     O_R   0.682235 0.708408 0.210385 -0.362147
O12   O     O_R   0.538647 0.819890 0.090785 -0.286247
O13   O     O_3   0.033202 0.781360 0.245083 -0.649855
H11   H     H_    0.019076 0.755594 0.342752 0.361770
O14   O     O_3   0.966820 0.218631 0.754884 -0.649745
H12   H     H_    0.980876 0.244389 0.657197 0.361763
O15   O     O_3   0.155212 0.344039 0.188319 -0.687616
H13   H     H_    0.127043 0.331578 0.284335 0.345759
O16   O     O_3   0.844772 0.655933 0.811701 -0.687243
H14   H     H_    0.872945 0.668406 0.715688 0.345663
O17   O     O_3   0.314276 0.140380 0.362223 -0.684840
H15   H     H_    0.244666 0.087525 0.333803 0.385510
O18   O     O_3   0.685832 0.859679 0.637581 -0.684282
H16   H     H_    0.756082 0.912412 0.664071 0.384982
N5    N     N_R   0.312964 0.873653 0.349531 0.130163
O19   O     O_R   0.248752 0.790403 0.414773 -0.413351
O20   O     O_R   0.294973 0.893287 0.216163 -0.288158
N6    N     N_R   0.686935 0.126277 0.650701 0.130558
O21   O     O_R   0.750940 0.209908 0.585805 -0.413789
O22   O     O_R   0.705596 0.105616 0.783796 -0.287048

loop_
_geom_bond_atom_site_label_1
_geom_bond_atom_site_label_2
_geom_bond_distance
_ccdc_geom_bond_type
C25   N5    1.432039 S    
N3    O9    1.300150 A    
C2    C27   1.445959 S    
C13   H5    1.074920 S    
C23   C25   1.404381 A    
N5    O19   1.299985 A    
C29   H9    1.080513 S    
O5    C3    1.305859 A    
O1    C1    1.300593 A    
C12   O16   1.382779 S    
C10   C12   1.423748 A    
N4    O12   1.301155 A    
C9    C22   1.484165 S    
C4    C19   1.464314 S    
C10   C21   1.484165 S    
O4    Cu1   1.948640 S    
C26   N6    1.432122 S    
C5    H3    1.082884 S    
C8    O14   1.382948 S    
C26   C28   1.405264 A    
C23   C28   1.402622 A    
C6    H4    1.082883 S    
O13   H11   0.987724 S    
C30   H10   1.080513 S    
C18   C20   1.396880 A    
Cu1   Cu2   2.703568 S    
N5    O20   1.301164 A    
O2    C2    1.300579 A    
C24   C26   1.404244 A    
C32   N2    1.386598 A    
Cu1   N1    2.031694 S    
C30   N1    1.358559 A    
C32   N4    1.430800 S    
C17   C22   1.386555 A    
C13   C15   1.390112 A    
C18   C21   1.386554 A    
C14   C16   1.390115 A    
C11   O15   1.382776 S    
N6    O21   1.299935 A    
O4    C2    1.291697 A    
C29   C31   1.417477 A    
C31   N3    1.430769 S    
N4    O11   1.300146 A    
C17   C19   1.396880 A    
O16   H14   0.987468 S    
C31   N1    1.386577 A    
C24   C27   1.402497 A    
C3    C20   1.464307 S    
O7    Cu2   1.988206 S    
O7    C3    1.298325 A    
C30   C32   1.417486 A    
O6    C4    1.305861 A    
C25   C27   1.405199 A    
O3    Cu2   1.948639 S    
O8    C4    1.298327 A    
C29   N2    1.358568 A    
Cu2   N2    2.031694 S    
N3    O10   1.301151 A    
C11   C13   1.394971 A    
C5    C15   1.389170 A    
C8    C10   1.429052 A    
O1    Cu1   1.961678 S    
C23   O17   1.385125 S    
O6    Cu2   1.974765 S    
C6    C8    1.397988 A    
C7    O13   1.382944 S    
N6    O22   1.300997 A    
O3    C1    1.291707 A    
O8    Cu1   1.988205 S    
H1    C15   1.082349 S    
H2    C16   1.082351 S    
C1    C28   1.446006 S    
C12   C14   1.394970 A    
C7    C9    1.429051 A    
O18   H16   0.988687 S    
C19   C21   1.416739 A    
C20   C22   1.416733 A    
C14   H6    1.074915 S    
C24   O18   1.384997 S    
C17   H7    1.081074 S    
C18   H8    1.081077 S    
C9    C11   1.423753 A    
O17   H15   0.988922 S    
O2    Cu2   1.961678 S    
C5    C7    1.397993 A    
O14   H12   0.987729 S    
O5    Cu1   1.974766 S    
C6    C16   1.389174 A    
O15   H13   0.987468 S    
