data_mof_unit_39979.cif
_audit_creation_date              2012-12-10T17:51:59-0500
_audit_creation_method            fapswitch 2.2
_symmetry_space_group_name_H-M    P1
_symmetry_Int_Tables_number       1
_space_group_crystal_system       triclinic
_cell_length_a                    14.74541
_cell_length_b                    15.24217
_cell_length_c                    19.387575
_cell_angle_alpha                 73.724421
_cell_angle_beta                  104.134018
_cell_angle_gamma                 115.318845
_cell_volume                      3741.96631067

loop_
_atom_site_label
_atom_site_type_symbol
_atom_type_description
_atom_site_fract_x
_atom_site_fract_y
_atom_site_fract_z
_atom_type_partial_charge
C1    C     C_R   0.880389 0.312982 0.508662 0.814111
C2    C     C_R   0.119570 0.686521 0.493362 0.825821
C3    C     C_R   0.814965 0.206042 0.510423 -0.209096
C4    C     C_R   0.186649 0.792575 0.494013 -0.245399
C5    C     C_R   0.794100 0.034193 0.536695 -0.220831
C6    C     C_R   0.221050 0.966661 0.454566 -0.197816
C7    C     C_R   0.855661 0.134131 0.517473 0.043790
C8    C     C_R   0.150231 0.869950 0.467993 0.011525
C9    C     C_R   0.709210 0.173963 0.505702 0.593827
C10   C     C_R   0.290108 0.816612 0.522538 0.630112
C11   C     C_R   0.644530 0.072184 0.511851 -0.006031
C12   C     C_R   0.364026 0.913738 0.503452 -0.032460
C13   C     C_R   0.688801 0.001653 0.536698 -0.065401
C14   C     C_R   0.326128 0.989515 0.467237 -0.091213
C15   C     C_R   0.537327 0.040137 0.495494 -0.152922
C16   C     C_R   0.472842 0.939601 0.518204 -0.147599
C17   C     C_R   0.520436 0.869764 0.546640 0.645603
C18   C     C_R   0.494599 0.104917 0.447715 0.669216
C19   C     C_R   0.627460 0.900065 0.556921 -0.027726
C20   C     C_R   0.392549 0.086888 0.441770 0.002939
C21   C     C_R   0.708828 0.657424 0.368373 -0.116125
C22   C     C_R   0.278955 0.323286 0.613835 -0.110449
C23   C     C_R   0.002729 0.502194 0.632495 0.763688
C24   C     C_R   0.996473 0.496154 0.367379 0.759990
C25   C     C_R   0.795878 0.635854 0.395824 0.736977
C26   C     C_R   0.198448 0.354564 0.596004 0.714465
C27   C     C_R   0.710206 0.504535 0.484897 -0.120188
C28   C     C_R   0.288104 0.494879 0.512765 -0.092209
C29   C     C_R   0.629193 0.536447 0.473504 -0.051831
C30   C     C_R   0.372018 0.466367 0.527832 -0.071305
C31   C     C_R   0.629972 0.616793 0.413285 -0.035448
C32   C     C_R   0.372270 0.390632 0.589137 -0.008676
C33   C     C_R   0.547119 0.491553 0.517638 0.021257
C34   C     C_R   0.457283 0.513712 0.488306 -0.008664
C35   C     C_R   0.455849 0.581187 0.419917 0.080836
C36   C     C_R   0.550831 0.430677 0.590599 0.065101
C37   C     C_R   0.549164 0.649523 0.397785 0.110087
C38   C     C_R   0.466054 0.391661 0.628505 0.106370
C39   C     C_R   0.098411 0.533980 0.757126 0.068915
C40   C     C_R   0.903932 0.482276 0.237230 0.101261
C41   C     C_R   0.095100 0.524238 0.830770 -0.175479
C42   C     C_R   0.906075 0.474593 0.167290 -0.176168
C43   C     C_R   0.002154 0.487080 0.856889 0.035203
C44   C     C_R   0.989209 0.467191 0.150408 0.036710
C45   C     C_R   0.911894 0.460737 0.808298 -0.164437
C46   C     C_R   0.069793 0.463413 0.205192 -0.181869
C47   C     C_R   0.914303 0.468749 0.735579 -0.226174
C48   C     C_R   0.069328 0.471521 0.274879 -0.233775
C49   C     C_R   0.006236 0.502797 0.709175 -0.037468
C50   C     C_R   0.988946 0.484519 0.291975 -0.056646
C51   C     C_R   0.992228 0.466695 0.075076 0.417717
C52   C     C_R   0.998842 0.478094 0.934068 0.417999
Cu1   Cu    Cu3+1 0.081740 0.475680 0.518680 0.995224
Cu2   Cu    Cu3+1 0.918260 0.524320 0.481320 0.986740
H1    H     H_    0.289544 0.563133 0.476438 0.178152
H2    H     H_    0.705460 0.432942 0.515446 0.217813
H3    H     H_    0.165541 0.547328 0.867402 0.147689
H4    H     H_    0.842438 0.475427 0.125336 0.146705
H5    H     H_    0.838870 0.432696 0.826448 0.152546
H6    H     H_    0.134043 0.455374 0.194080 0.158777
H7    H     H_    0.843654 0.446201 0.700058 0.152939
H8    H     H_    0.133557 0.468916 0.315371 0.170143
H9    H     H_    0.830352 0.982281 0.549234 0.146325
H10   H     H_    0.192757 0.024205 0.430428 0.146968
N1    N     N_R   0.910404 0.457831 0.956395 -0.245757
N2    N     N_R   0.080631 0.485822 0.053041 -0.245029
N3    N     N_R   0.907229 0.452511 0.025401 -0.247487
N4    N     N_R   0.083868 0.491444 0.983835 -0.246431
N5    N     N_R   0.795420 0.560800 0.453240 -0.232983
N6    N     N_R   0.204580 0.439200 0.546760 -0.233648
O1    O     O_R   0.977910 0.338110 0.524620 -0.535942
O2    O     O_R   0.022090 0.661890 0.475380 -0.558935
O3    O     O_R   0.839850 0.379180 0.493080 -0.540143
O4    O     O_R   0.160150 0.620820 0.506920 -0.542586
O5    O     O_R   0.069040 0.479450 0.615630 -0.536422
O6    O     O_R   0.930960 0.520550 0.384370 -0.531156
O7    O     O_R   0.930990 0.520520 0.584090 -0.598337
O8    O     O_R   0.069010 0.479480 0.415910 -0.600977
C53   C     C_3   0.200757 0.581907 0.731381 -0.374261
C54   C     C_3   0.246791 0.505095 0.742341 -0.346424
C55   C     C_3   0.335351 0.545622 0.699824 -0.727027
H11   H     H_    0.312688 0.573986 0.641849 0.319981
H12   H     H_    0.400277 0.605877 0.723123 0.255262
H13   H     H_    0.358357 0.484568 0.702424 0.219188
H14   H     H_    0.273453 0.484018 0.800999 0.202936
H15   H     H_    0.189047 0.436838 0.724128 0.267431
H16   H     H_    0.193849 0.620043 0.673636 0.241519
H17   H     H_    0.253032 0.641033 0.761861 0.192630
C56   C     C_3   0.809459 0.486815 0.250172 -0.449145
C57   C     C_3   0.747174 0.390336 0.297481 -0.271676
C58   C     C_3   0.663677 0.403243 0.321571 -0.749058
H18   H     H_    0.692130 0.474185 0.339263 0.233956
H19   H     H_    0.599922 0.400323 0.276560 0.222836
H20   H     H_    0.637535 0.345187 0.369206 0.324444
H21   H     H_    0.712779 0.329868 0.266265 0.218785
H22   H     H_    0.795543 0.367016 0.346325 0.222305
H23   H     H_    0.831088 0.551738 0.274293 0.247493
H24   H     H_    0.760112 0.499648 0.198136 0.182906
C59   C     C_3   0.560195 0.754884 0.358104 -0.451890
C60   C     C_3   0.527461 0.807400 0.397762 -0.328585
C61   C     C_3   0.531859 0.908351 0.352114 -0.820159
H25   H     H_    0.610901 0.957325 0.342498 0.254909
H26   H     H_    0.482201 0.899644 0.299162 0.250792
H27   H     H_    0.504940 0.944107 0.380751 0.255619
H28   H     H_    0.450047 0.763390 0.411963 0.249349
H29   H     H_    0.580861 0.818116 0.448081 0.242468
H30   H     H_    0.640844 0.802419 0.353156 0.201318
H31   H     H_    0.516609 0.754542 0.303105 0.216476
C62   C     C_3   0.476681 0.363986 0.712349 -0.422319
C63   C     C_3   0.542098 0.452592 0.750340 -0.377870
C64   C     C_3   0.521023 0.430446 0.828104 -0.836325
H32   H     H_    0.441104 0.417669 0.828485 0.252006
H33   H     H_    0.535988 0.363926 0.860147 0.260148
H34   H     H_    0.571341 0.494497 0.854191 0.248776
H35   H     H_    0.624096 0.471610 0.754068 0.217230
H36   H     H_    0.526337 0.519043 0.719814 0.234157
H37   H     H_    0.402207 0.336780 0.730367 0.212542
H38   H     H_    0.504477 0.303018 0.734013 0.191961
F1    F     F_    0.115144 0.302324 0.629815 -0.695805
F2    F     F_    0.877150 0.681226 0.359934 -0.708138
C65   C     C_3   0.699372 0.715627 0.290005 -0.394802
C66   C     C_3   0.720666 0.676676 0.233118 -0.335815
C67   C     C_3   0.689583 0.725508 0.155954 -0.867640
H39   H     H_    0.606639 0.707350 0.145615 0.254497
H40   H     H_    0.730804 0.807212 0.147598 0.263228
H41   H     H_    0.708492 0.697741 0.116367 0.246677
H42   H     H_    0.802647 0.693664 0.238724 0.271420
H43   H     H_    0.677082 0.595670 0.239497 0.218530
H44   H     H_    0.620954 0.710377 0.270965 0.205253
H45   H     H_    0.750985 0.794637 0.287784 0.204720
C68   C     C_3   0.258568 0.214251 0.646827 -0.378294
C69   C     C_3   0.272347 0.164058 0.593923 -0.377915
C70   C     C_3   0.247995 0.054098 0.625331 -0.847399
H46   H     H_    0.296726 0.043967 0.678087 0.257687
H47   H     H_    0.167022 0.015125 0.633272 0.252563
H48   H     H_    0.262541 0.020572 0.587475 0.258074
H49   H     H_    0.221274 0.171995 0.542031 0.215812
H50   H     H_    0.351910 0.199822 0.582391 0.229230
H51   H     H_    0.307253 0.202740 0.698833 0.190869
H52   H     H_    0.179508 0.174131 0.659217 0.240953
C71   C     C_3   0.358735 0.575021 0.365805 -0.403035
C72   C     C_3   0.364223 0.573339 0.287251 -0.358289
C73   C     C_3   0.321017 0.643222 0.229955 -0.839972
H53   H     H_    0.243852 0.628754 0.238368 0.266011
H54   H     H_    0.368891 0.721790 0.232260 0.246904
H55   H     H_    0.317105 0.631941 0.174981 0.249212
H56   H     H_    0.442385 0.591658 0.278440 0.220191
H57   H     H_    0.318638 0.497434 0.276709 0.211682
H58   H     H_    0.295337 0.505042 0.383207 0.178364
H59   H     H_    0.337483 0.636742 0.365174 0.205382
C74   C     C_3   0.639379 0.401219 0.630711 -0.461485
C75   C     C_3   0.616496 0.295204 0.624455 -0.327471
C76   C     C_3   0.707644 0.266326 0.655712 -0.760059
H60   H     H_    0.772759 0.316732 0.626183 0.267388
H61   H     H_    0.729698 0.269433 0.714262 0.231323
H62   H     H_    0.687677 0.189388 0.650233 0.246912
H63   H     H_    0.552595 0.242003 0.654499 0.205334
H64   H     H_    0.591006 0.287255 0.567125 0.265879
H65   H     H_    0.712878 0.457514 0.616276 0.196152
H66   H     H_    0.653165 0.400477 0.689021 0.197734
C77   C     C_3   0.681409 0.827658 0.585018 -0.405164
C78   C     C_3   0.622016 0.716826 0.609156 -0.251522
C79   C     C_3   0.697220 0.665727 0.636556 -0.933342
H67   H     H_    0.744845 0.682436 0.594424 0.263172
H68   H     H_    0.746763 0.689538 0.686676 0.261615
H69   H     H_    0.656169 0.585299 0.648851 0.254545
H70   H     H_    0.578930 0.703209 0.653370 0.247176
H71   H     H_    0.569529 0.685117 0.562523 0.265012
H72   H     H_    0.721459 0.834182 0.541021 0.187660
H73   H     H_    0.738757 0.852910 0.632149 0.207269
C80   C     C_3   0.352184 0.169069 0.406995 -0.404232
C81   C     C_3   0.430726 0.274636 0.389334 -0.272583
C82   C     C_3   0.382457 0.350023 0.372047 -0.932193
H74   H     H_    0.320707 0.335817 0.325382 0.255354
H75   H     H_    0.350926 0.346206 0.419785 0.267438
H76   H     H_    0.441435 0.425004 0.357802 0.263429
H77   H     H_    0.492219 0.290936 0.436039 0.254267
H78   H     H_    0.461640 0.282553 0.340288 0.265489
H79   H     H_    0.299999 0.151136 0.356208 0.199238
H80   H     H_    0.308590 0.169840 0.446037 0.190716
F3    F     F_    0.312243 0.747935 0.577250 -0.646279
F4    F     F_    0.669525 0.241831 0.498740 -0.698966
C83   C     C_3   0.037205 0.849885 0.454519 -0.311564
C84   C     C_3   0.007563 0.938526 0.444558 -0.406951
C85   C     C_3   0.893258 0.903976 0.441857 -0.864884
H81   H     H_    0.851824 0.863154 0.397134 0.262335
H82   H     H_    0.869500 0.854802 0.494068 0.244319
H83   H     H_    0.872650 0.968870 0.432013 0.246492
H84   H     H_    0.047083 0.977729 0.490479 0.224464
H85   H     H_    0.028525 0.990744 0.392620 0.224469
H86   H     H_    0.003692 0.818622 0.404883 0.272129
H87   H     H_    0.002946 0.795417 0.502134 0.217979
C86   C     C_3   0.961811 0.158244 0.503130 -0.354053
C87   C     C_3   0.975501 0.208298 0.423564 -0.316300
C88   C     C_3   0.084022 0.238389 0.410886 -0.860794
H88   H     H_    0.138108 0.292651 0.444697 0.254826
H89   H     H_    0.103863 0.172390 0.424378 0.235481
H90   H     H_    0.091209 0.273301 0.352913 0.246544
H91   H     H_    0.922795 0.156081 0.387796 0.211855
H92   H     H_    0.957195 0.275322 0.407551 0.216038
H93   H     H_    0.020324 0.202739 0.540900 0.266350
H94   H     H_    0.977048 0.089786 0.514626 0.176473
F5    F     F_    0.464974 0.771950 0.552018 -0.670690
F6    F     F_    0.548868 0.175048 0.396489 -0.693472

loop_
_geom_bond_atom_site_label_1
_geom_bond_atom_site_label_2
_ccdc_geom_bond_type
C81   H77   S    
C73   H55   S    
N2    N4    A    
C80   C81   S    
C61   H25   S    
C22   C68   S    
C27   C29   A    
C15   C18   A    
C79   H67   S    
C65   H45   S    
C4    C8    A    
C83   H87   S    
C42   H4    S    
C53   H16   S    
C77   C78   S    
C85   H81   S    
C62   H37   S    
C67   H39   S    
C39   C41   A    
Cu1   Cu2   S    
C59   H31   S    
C21   C31   A    
C60   H28   S    
C1    O1    A    
C46   H6    S    
C22   C32   A    
C79   H68   S    
C3    C7    A    
C43   C52   S    
C23   C49   S    
C58   H19   S    
C69   H50   S    
C15   C16   A    
C29   C33   A    
C33   C36   A    
C86   H93   S    
C84   C85   S    
C5    H9    S    
C18   C20   A    
C34   C35   A    
C19   C77   S    
C6    H10   S    
C66   H42   S    
C17   F5    S    
C63   C64   S    
C60   C61   S    
C54   H15   S    
C68   H52   S    
C67   H40   S    
C11   C15   A    
C87   H92   S    
C12   C16   A    
C16   C17   A    
N1    N3    A    
C71   H59   S    
C70   H48   S    
C74   C75   S    
C9    F4    S    
C32   C38   A    
C40   C56   S    
C76   H61   S    
C5    C13   A    
C27   N5    A    
C53   C54   S    
Cu2   O7    S    
C77   H72   S    
C40   C42   A    
C87   C88   S    
C61   H26   S    
C21   C65   S    
C41   C43   A    
C80   H79   S    
Cu1   O5    S    
C42   C44   A    
C2    O2    A    
Cu1   N6    S    
C53   H17   S    
C55   H12   S    
C28   H1    S    
C44   C46   A    
C62   H38   S    
C55   H11   S    
C75   H64   S    
C66   C67   S    
C45   C47   A    
C24   C50   S    
C46   C48   A    
C30   C34   A    
C71   H58   S    
C14   C20   A    
C57   H21   S    
C79   H69   S    
C68   H51   S    
C26   F1    S    
C47   C49   A    
C23   O5    A    
C58   H18   S    
C5    C7    A    
C13   C19   A    
C27   H2    S    
C24   O6    A    
C67   H41   S    
C6    C8    A    
C69   H49   S    
C82   H74   S    
C86   H94   S    
C88   H88   S    
C56   H23   S    
C38   C62   S    
C51   N2    A    
C39   C53   S    
C2    C4    S    
C83   C84   S    
C54   H14   S    
C3    C9    A    
C72   H57   S    
C6    C14   A    
Cu2   O3    S    
C9    C11   A    
C48   H8    S    
C59   C60   S    
C33   C34   A    
C64   H33   S    
C51   N3    A    
C23   O7    A    
C76   H62   S    
C43   C45   A    
C65   C66   S    
C82   H75   S    
C10   C12   A    
C35   C71   S    
Cu2   O6    S    
C77   H73   S    
C44   C51   S    
C24   O8    A    
C39   C49   A    
C12   C14   A    
C61   H27   S    
C70   H46   S    
C26   N6    A    
C78   H71   S    
C80   H80   S    
C25   N5    A    
C4    C10   A    
C68   C69   S    
Cu1   O1    S    
C25   F2    S    
C63   H36   S    
C37   C59   S    
C55   H13   S    
C36   C38   A    
C81   C82   S    
C8    C83   S    
C78   C79   S    
C82   H76   S    
C81   H78   S    
C73   H54   S    
C21   C25   A    
C75   H63   S    
C45   H5    S    
C64   H32   S    
C35   C37   A    
C72   C73   S    
C72   H56   S    
C28   N6    A    
C65   H44   S    
C54   C55   S    
C85   H83   S    
C52   N4    A    
C47   H7    S    
C36   C74   S    
C57   H22   S    
C83   H86   S    
C59   H30   S    
C60   H29   S    
C56   H24   S    
C1    O3    A    
C74   H66   S    
C88   H90   S    
C28   C30   A    
Cu1   O8    S    
C56   C57   S    
C41   H3    S    
C29   C31   A    
C62   C63   S    
C58   H20   S    
C30   C32   A    
C11   C13   A    
C57   C58   S    
Cu2   N5    S    
C40   C50   A    
C48   C50   A    
C7    C86   S    
C17   C19   A    
C69   C70   S    
C64   H34   S    
C84   H85   S    
C66   H43   S    
C85   H82   S    
C78   H70   S    
C87   H91   S    
C31   C37   A    
C20   C80   S    
Cu2   O2    S    
C75   C76   S    
C86   C87   S    
C22   C26   A    
C70   H47   S    
C10   F3    S    
C84   H84   S    
C18   F6    S    
C2    O4    A    
C1    C3    S    
C76   H60   S    
C71   C72   S    
C63   H35   S    
C52   N1    A    
C73   H53   S    
C74   H65   S    
C88   H89   S    
Cu1   O4    S    
