data_mof_unit_36102.cif
_audit_creation_date              2012-12-10T18:08:25-0500
_audit_creation_method            fapswitch 2.2
_symmetry_space_group_name_H-M    P1
_symmetry_Int_Tables_number       1
_space_group_crystal_system       triclinic
_cell_length_a                    12.669122
_cell_length_b                    12.740094
_cell_length_c                    14.131868
_cell_angle_alpha                 93.227285
_cell_angle_beta                  101.672738
_cell_angle_gamma                 82.177375
_cell_volume                      2212.03352175

loop_
_atom_site_label
_atom_site_type_symbol
_atom_type_description
_atom_site_fract_x
_atom_site_fract_y
_atom_site_fract_z
_atom_type_partial_charge
C1    C     C_R   0.439882 0.691112 0.477283 0.945647
C2    C     C_1   0.495820 0.500961 0.227332 -0.090732
C3    C     C_R   0.730542 0.035736 0.523658 0.354283
C4    C     C_R   0.595175 0.192097 0.507565 -0.240286
C5    C     C_R   0.294743 0.843313 0.410198 0.276645
C6    C     C_R   0.267848 0.946192 0.371994 0.319863
C7    C     C_R   0.351991 0.002773 0.359517 0.217412
C8    C     C_R   0.461228 0.962430 0.396422 -0.008121
C9    C     C_R   0.486346 0.854006 0.410974 -0.076445
C10   C     C_R   0.545687 0.025902 0.430889 0.054448
C11   C     C_R   0.655043 0.978046 0.459724 -0.106754
C12   C     C_R   0.501215 0.500555 0.670570 0.914008
C13   C     C_R   0.678681 0.870775 0.430463 0.464488
C14   C     C_R   0.593459 0.809414 0.406347 -0.126996
C15   C     C_R   0.520200 0.132641 0.451447 -0.212860
C16   C     C_R   0.696706 0.140679 0.554389 0.387668
C17   C     C_R   0.405522 0.796315 0.431316 -0.278846
C18   C     C_R   0.081757 0.421257 0.317016 0.428524
C19   C     C_R   0.814545 0.577813 0.641164 0.496406
C20   C     C_R   0.911233 0.520310 0.688853 0.317951
C21   C     C_R   0.980721 0.465810 0.633155 -0.152775
C22   C     C_R   0.957710 0.480176 0.533237 0.004263
C23   C     C_R   0.560381 0.306745 0.512434 0.986559
C24   C     C_R   0.847687 0.502256 0.490270 0.018251
C25   C     C_R   0.037237 0.468222 0.474747 -0.162178
C26   C     C_R   0.002530 0.457556 0.372814 -0.078953
C27   C     C_R   0.889469 0.478171 0.333767 0.355197
C28   C     C_R   0.816868 0.466016 0.393305 0.322483
C29   C     C_R   0.147734 0.481716 0.511027 0.503379
C30   C     C_R   0.190807 0.409310 0.362050 -0.087339
C31   C     C_R   0.498292 0.500758 0.329381 0.881263
C32   C     C_1   0.503491 0.501163 0.772607 -0.045800
C33   C     C_1   0.503142 0.501424 0.857926 0.092022
C34   C     C_1   0.501073 0.501474 0.957576 0.095761
C35   C     C_1   0.498784 0.501369 0.042512 0.098448
C36   C     C_1   0.496428 0.501155 0.142088 0.073894
H1    H     H_    0.056481 0.422621 0.668267 0.223800
H2    H     H_    0.437842 0.169315 0.430124 0.229502
H3    H     H_    0.612065 0.726867 0.386142 0.180539
H4    H     H_    0.251848 0.380604 0.320064 0.209254
N1    N     N_R   0.222200 0.444680 0.454480 -0.176782
N2    N     N_R   0.776970 0.554780 0.545050 -0.195373
O1    O     O_R   0.366740 0.627160 0.478260 -0.506940
O2    O     O_R   0.544830 0.662520 0.507340 -0.583694
O3    O     O_R   0.410930 0.482320 0.611740 -0.543520
O4    O     O_R   0.589030 0.517680 0.640820 -0.558610
O5    O     O_R   0.455170 0.337480 0.492660 -0.629712
O6    O     O_R   0.633260 0.372840 0.521740 -0.517243
O7    O     O_R   0.410970 0.482320 0.359180 -0.615193
O8    O     O_R   0.589070 0.517680 0.388260 -0.605423
Zn1   Zn    Zn3+2 0.381090 0.476390 0.480580 1.057109
Zn2   Zn    Zn3+2 0.618910 0.523610 0.519420 1.074433
S1    S     S_3+6 0.769174 0.194522 0.664398 0.116241
O9    O     O_2   0.710303 0.296531 0.696432 -0.325678
O10   O     O_2   0.781584 0.115366 0.742124 -0.209849
O11   O     O_3   0.893966 0.214666 0.651714 -0.448870
H5    H     H_    0.925852 0.249351 0.713405 0.394160
Cl1   Cl    Cl    0.833303 0.503775 0.211309 -0.452383
Cl2   Cl    Cl    0.052274 0.376866 0.195328 -0.358499
S2    S     S_3+6 0.182246 0.566104 0.617561 0.098810
O12   O     O_2   0.083242 0.637239 0.636061 -0.219905
O13   O     O_2   0.227230 0.497231 0.703105 -0.325137
O14   O     O_3   0.271825 0.649438 0.612519 -0.471324
H6    H     H_    0.287582 0.682477 0.678167 0.380471
S3    S     S_3+6 0.753437 0.687456 0.702299 0.131396
O15   O     O_2   0.677500 0.761085 0.632689 -0.289553
O16   O     O_2   0.693584 0.650112 0.772945 -0.269574
O17   O     O_3   0.852242 0.754795 0.763986 -0.430548
H7    H     H_    0.813692 0.816970 0.793608 0.411363
Cl3   Cl    Cl    0.951689 0.521722 0.815585 -0.361302
S4    S     S_3+6 0.787794 0.332193 0.375369 0.071931
O18   O     O_2   0.819493 0.277414 0.469713 -0.231373
O19   O     O_2   0.670036 0.325288 0.334378 -0.331895
O20   O     O_3   0.861060 0.264760 0.299138 -0.461750
H8    H     H_    0.815136 0.273876 0.233791 0.407884
Cl4   Cl    Cl    0.809063 0.808106 0.420165 -0.448335
Cl5   Cl    Cl    0.860599 0.974170 0.579031 -0.319383
Cl6   Cl    Cl    0.187499 0.771790 0.421389 -0.365663
Cl7   Cl    Cl    0.324642 0.105141 0.274542 -0.467793
S5    S     S_3+6 0.129423 0.005157 0.342913 0.175251
O21   O     O_2   0.120584 0.123286 0.334673 -0.200469
O22   O     O_2   0.076529 0.957642 0.248343 -0.182532
O23   O     O_3   0.062644 0.981134 0.429326 -0.421563
H9    H     H_    0.985838 0.009647 0.404548 0.422947

loop_
_geom_bond_atom_site_label_1
_geom_bond_atom_site_label_2
_ccdc_geom_bond_type
C8    C9    A    
C24   N2    A    
C19   C20   A    
C18   C26   A    
C7    C8    A    
S1    O9    D    
C26   C27   A    
S2    O14   S    
C10   C15   A    
C5    C6    A    
C5    C17   A    
O3    Zn1   S    
O4    Zn2   S    
O11   H5    S    
S2    O13   D    
C34   C35   T    
C16   S1    S    
C14   H3    S    
C1    O1    A    
C35   C36   S    
O17   H7    S    
O7    Zn1   S    
C22   C25   A    
O8    Zn2   S    
C29   S2    S    
C30   N1    A    
C18   C30   A    
C19   N2    A    
O2    Zn2   S    
C21   C22   A    
C12   C32   S    
C20   Cl3   S    
C31   O7    A    
S5    O23   S    
S1    O10   D    
C25   C29   A    
C23   O5    A    
O20   H8    S    
C12   O4    A    
S4    O19   D    
C4    C23   S    
S5    O21   D    
O5    Zn1   S    
S3    O16   D    
C25   C26   A    
S2    O12   D    
C4    C16   A    
C9    C14   A    
C15   H2    S    
C1    O2    A    
C6    S5    S    
O23   H9    S    
C13   Cl4   S    
S3    O17   S    
C33   C34   S    
C30   H4    S    
C9    C17   A    
S5    O22   D    
C22   C24   A    
C28   S4    S    
C31   O8    A    
C3    Cl5   S    
C7    Cl7   S    
S1    O11   S    
C2    C36   T    
C23   O6    A    
C29   N1    A    
C24   C28   A    
C12   O3    A    
C27   Cl1   S    
S4    O20   S    
C6    C7    A    
C1    C17   S    
C32   C33   T    
C4    C15   A    
S4    O18   D    
C11   C13   A    
O1    Zn1   S    
C19   S3    S    
C3    C11   A    
C10   C11   A    
O14   H6    S    
C18   Cl2   S    
O6    Zn2   S    
C21   H1    S    
C20   C21   A    
C8    C10   A    
S3    O15   D    
C27   C28   A    
C2    C31   S    
C5    Cl6   S    
C13   C14   A    
N1    Zn1   S    
C3    C16   A    
N2    Zn2   S    
