data_mof_unit_61839.cif
_audit_creation_date              2012-12-11T16:16:33-0500
_audit_creation_method            fapswitch 2.2
_symmetry_space_group_name_H-M    P1
_symmetry_Int_Tables_number       1
_space_group_crystal_system       triclinic
_cell_length_a                    7.168925
_cell_length_b                    25.700389
_cell_length_c                    29.001107
_cell_angle_alpha                 90.000101
_cell_angle_beta                  90.000045
_cell_angle_gamma                 89.999866
_cell_volume                      5343.2846334

loop_
_atom_site_label
_atom_site_type_symbol
_atom_type_description
_atom_site_fract_x
_atom_site_fract_y
_atom_site_fract_z
_atom_type_partial_charge
O1    O     O_R   0.600980 0.796780 0.202430 -0.519277
O2    O     O_R   0.399020 0.203220 0.797570 -0.519277
O3    O     O_R   0.399020 0.203220 0.702430 -0.519278
O4    O     O_R   0.600980 0.796780 0.297570 -0.519278
O5    O     O_R   0.100980 0.703220 0.297570 -0.519276
O6    O     O_R   0.899020 0.296780 0.702430 -0.519276
O7    O     O_R   0.899020 0.296780 0.797570 -0.519277
O8    O     O_R   0.100980 0.703220 0.202430 -0.519277
O9    O     O_R   0.271240 0.802920 0.297240 -0.514164
O10   O     O_R   0.728760 0.197080 0.702760 -0.514164
O11   O     O_R   0.728760 0.197080 0.797240 -0.514160
O12   O     O_R   0.271240 0.802920 0.202760 -0.514160
O13   O     O_R   0.771240 0.697080 0.202760 -0.514161
O14   O     O_R   0.228760 0.302920 0.797240 -0.514161
O15   O     O_R   0.228760 0.302920 0.702760 -0.514157
O16   O     O_R   0.771240 0.697080 0.297240 -0.514157
C1    C     C_R   0.439542 0.815736 0.312829 0.804840
C2    C     C_R   0.560458 0.184264 0.687171 0.804840
C3    C     C_R   0.560458 0.184264 0.812829 0.804837
C4    C     C_R   0.439542 0.815736 0.187171 0.804837
C5    C     C_R   0.939542 0.684264 0.187171 0.804834
C6    C     C_R   0.060458 0.315736 0.812829 0.804834
C7    C     C_R   0.060458 0.315736 0.687171 0.804832
C8    C     C_R   0.939542 0.684264 0.312829 0.804832
O17   O     O_3   0.434470 0.717290 0.250000 -0.357455
O18   O     O_3   0.565530 0.282710 0.750000 -0.357455
O19   O     O_3   0.934470 0.782710 0.250000 -0.357462
O20   O     O_3   0.065530 0.217290 0.750000 -0.357462
V1    V     V_3+5 0.159620 0.756070 0.250000 1.760476
V2    V     V_3+5 0.840380 0.243930 0.750000 1.760476
V3    V     V_3+5 0.659620 0.743930 0.250000 1.760482
V4    V     V_3+5 0.340380 0.256070 0.750000 1.760482
C9    C     C_R   0.093378 0.646582 0.384405 0.398119
C10   C     C_R   0.906622 0.353418 0.615595 0.398119
C11   C     C_R   0.906632 0.353414 0.884408 0.398116
C12   C     C_R   0.093368 0.646586 0.115592 0.398116
C13   C     C_R   0.593365 0.853414 0.115592 0.398116
C14   C     C_R   0.406635 0.146586 0.884408 0.398116
C15   C     C_R   0.406643 0.146589 0.615590 0.398112
C16   C     C_R   0.593357 0.853411 0.384410 0.398112
C17   C     C_R   0.102490 0.609708 0.419829 -0.149729
C18   C     C_R   0.897510 0.390292 0.580171 -0.149730
C19   C     C_R   0.897519 0.390288 0.919832 -0.149736
C20   C     C_R   0.102481 0.609712 0.080168 -0.149736
C21   C     C_R   0.602478 0.890287 0.080168 -0.149738
C22   C     C_R   0.397522 0.109713 0.919832 -0.149738
C23   C     C_R   0.397530 0.109716 0.580165 -0.149746
C24   C     C_R   0.602470 0.890284 0.419834 -0.149746
H1    H     H_    0.215045 0.612241 0.444686 0.204236
H2    H     H_    0.784955 0.387759 0.555314 0.204236
H3    H     H_    0.784972 0.387752 0.944691 0.204231
H4    H     H_    0.215028 0.612248 0.055309 0.204231
H5    H     H_    0.715024 0.887751 0.055309 0.204234
H6    H     H_    0.284976 0.112249 0.944691 0.204234
H7    H     H_    0.284992 0.112254 0.555304 0.204230
H8    H     H_    0.715008 0.887746 0.444695 0.204230
C25   C     C_R   0.966927 0.570902 0.424708 -0.157416
C26   C     C_R   0.033073 0.429098 0.575292 -0.157416
C27   C     C_R   0.033072 0.429097 0.924709 -0.157412
C28   C     C_R   0.966928 0.570903 0.075291 -0.157412
C29   C     C_R   0.466927 0.929097 0.075291 -0.157416
C30   C     C_R   0.533073 0.070903 0.924709 -0.157416
C31   C     C_R   0.533071 0.070903 0.575291 -0.157415
C32   C     C_R   0.466929 0.929097 0.424708 -0.157415
C33   C     C_R   0.819974 0.568486 0.392368 0.283598
C34   C     C_R   0.180026 0.431514 0.607632 0.283598
C35   C     C_R   0.180016 0.431516 0.892367 0.283602
C36   C     C_R   0.819984 0.568484 0.107633 0.283602
C37   C     C_R   0.319984 0.931516 0.107634 0.283602
C38   C     C_R   0.680016 0.068484 0.892366 0.283602
C39   C     C_R   0.680004 0.068481 0.607636 0.283607
C40   C     C_R   0.319996 0.931519 0.392363 0.283607
C41   C     C_R   0.810111 0.605030 0.355855 0.212847
C42   C     C_R   0.189889 0.394970 0.644145 0.212847
C43   C     C_R   0.189878 0.394972 0.855853 0.212831
C44   C     C_R   0.810122 0.605028 0.144147 0.212831
C45   C     C_R   0.310119 0.894972 0.144146 0.212835
C46   C     C_R   0.689881 0.105028 0.855854 0.212835
C47   C     C_R   0.689869 0.105025 0.644149 0.212818
C48   C     C_R   0.310131 0.894975 0.355851 0.212818
C49   C     C_R   0.947643 0.644884 0.351272 -0.234063
C50   C     C_R   0.052357 0.355116 0.648728 -0.234063
C51   C     C_R   0.052357 0.355115 0.851272 -0.234061
C52   C     C_R   0.947643 0.644885 0.148728 -0.234061
C53   C     C_R   0.447641 0.855115 0.148727 -0.234060
C54   C     C_R   0.552359 0.144885 0.851273 -0.234060
C55   C     C_R   0.552357 0.144885 0.648728 -0.234058
C56   C     C_R   0.447642 0.855115 0.351272 -0.234059
N1    N     N_R   0.831282 0.518639 0.488466 -0.195989
N2    N     N_R   0.168718 0.481361 0.511534 -0.195989
N3    N     N_R   0.168719 0.481361 0.988466 -0.195991
N4    N     N_R   0.831281 0.518639 0.011534 -0.195991
N5    N     N_R   0.331279 0.981368 0.011538 -0.195990
N6    N     N_R   0.668721 0.018632 0.988462 -0.195990
N7    N     N_R   0.668721 0.018629 0.511540 -0.195993
N8    N     N_R   0.331279 0.981371 0.488460 -0.195993
N9    N     N_R   0.847254 0.485575 0.523699 -0.220058
N10   N     N_R   0.152746 0.514424 0.476301 -0.220058
N11   N     N_R   0.152748 0.514425 0.023699 -0.220056
N12   N     N_R   0.847252 0.485575 0.976301 -0.220056
N13   N     N_R   0.347251 0.014432 0.976306 -0.220066
N14   N     N_R   0.652749 0.985568 0.023694 -0.220066
N15   N     N_R   0.652751 0.985565 0.476308 -0.220071
N16   N     N_R   0.347249 0.014435 0.523692 -0.220071
C57   C     C_R   0.016572 0.466444 0.536191 0.584100
C58   C     C_R   0.983428 0.533556 0.463809 0.584100
C59   C     C_R   0.983429 0.533556 0.036191 0.584095
C60   C     C_R   0.016571 0.466443 0.963809 0.584095
C61   C     C_R   0.516571 0.033556 0.963809 0.584105
C62   C     C_R   0.483429 0.966444 0.036191 0.584105
C63   C     C_R   0.483430 0.966443 0.463809 0.584108
C64   C     C_R   0.516570 0.033557 0.536191 0.584108
Cl1   Cl    Cl    0.264600 0.695952 0.385430 -0.543545
Cl2   Cl    Cl    0.735400 0.304048 0.614570 -0.543545
Cl3   Cl    Cl    0.735425 0.304040 0.885435 -0.543553
Cl4   Cl    Cl    0.264575 0.695960 0.114565 -0.543553
Cl5   Cl    Cl    0.764569 0.804039 0.114564 -0.543552
Cl6   Cl    Cl    0.235430 0.195961 0.885436 -0.543552
Cl7   Cl    Cl    0.235453 0.195967 0.614560 -0.543561
Cl8   Cl    Cl    0.764547 0.804033 0.385440 -0.543561
Br1   Br    Br    0.637951 0.513034 0.395803 -0.317669
Br2   Br    Br    0.362049 0.486966 0.604197 -0.317669
Br3   Br    Br    0.362024 0.486972 0.895799 -0.317664
Br4   Br    Br    0.637976 0.513028 0.104201 -0.317664
Br5   Br    Br    0.137982 0.986974 0.104203 -0.317657
Br6   Br    Br    0.862018 0.013026 0.895797 -0.317657
Br7   Br    Br    0.861990 0.013019 0.604210 -0.317652
Br8   Br    Br    0.138010 0.986981 0.395790 -0.317652
Br9   Br    Br    0.609256 0.597280 0.311945 -0.337307
Br10  Br    Br    0.390744 0.402720 0.688054 -0.337307
Br11  Br    Br    0.390715 0.402727 0.811939 -0.337319
Br12  Br    Br    0.609284 0.597273 0.188061 -0.337319
Br13  Br    Br    0.109271 0.902723 0.188057 -0.337310
Br14  Br    Br    0.890729 0.097276 0.811943 -0.337311
Br15  Br    Br    0.890698 0.097269 0.688064 -0.337322
Br16  Br    Br    0.109302 0.902731 0.311935 -0.337322

loop_
_geom_bond_atom_site_label_1
_geom_bond_atom_site_label_2
_ccdc_geom_bond_type
O17   V3    S    
C37   Br5   S    
O18   V4    S    
C7    C50   S    
O12   V1    S    
O19   V1    S    
C1    C56   S    
C37   C45   A    
C10   C18   A    
C15   C55   A    
C3    C54   S    
C43   C51   A    
C44   C52   A    
C47   C55   A    
O15   V4    S    
O16   V3    S    
C30   C61   S    
O11   C3    A    
O12   C4    A    
C22   C30   A    
O8    V1    S    
O2    V4    S    
O10   C2    A    
N7    C64   A    
C23   C31   A    
C24   C32   A    
C38   C46   A    
N13   C61   A    
C34   C42   A    
O1    V3    S    
C33   C41   A    
C30   C38   A    
O3    C2    A    
N15   C63   A    
C17   H1    S    
C31   C64   S    
C16   C24   A    
C18   C26   A    
C12   C52   A    
C27   C35   A    
C19   H3    S    
C26   C34   A    
O11   V2    S    
N7    N15   A    
N1    C58   A    
C34   Br2   S    
C11   Cl3   S    
N10   C58   A    
C33   Br1   S    
C11   C19   A    
O9    V1    S    
N5    C62   A    
N9    C57   A    
C38   Br6   S    
O15   C7    A    
C25   C58   S    
C23   H7    S    
C45   C53   A    
O16   C8    A    
O7    V2    S    
C39   Br7   S    
C45   Br13  S    
C42   C50   A    
C29   C62   S    
C41   C49   A    
C43   Br11  S    
O5    V1    S    
N8    C63   A    
C41   Br9   S    
N12   C60   A    
N5    N13   A    
N16   C64   A    
C11   C51   A    
C32   C63   S    
C40   Br8   S    
C21   C29   A    
C39   C47   A    
N1    N9    A    
C8    C49   S    
O10   V2    S    
N4    C59   A    
C5    C52   S    
C4    C53   S    
C22   H6    S    
O8    C5    A    
O13   C5    A    
C36   C44   A    
C46   Br14  S    
N6    N14   A    
C31   C39   A    
C28   C59   S    
C18   H2    S    
O4    C1    A    
C36   Br4   S    
O9    C1    A    
C16   Cl8   S    
C17   C25   A    
C14   C54   A    
C42   Br10  S    
C12   C20   A    
C35   C43   A    
C13   C21   A    
C12   Cl4   S    
N11   C59   A    
N4    N12   A    
C15   C23   A    
C13   C53   A    
C24   H8    S    
O1    C4    A    
O6    V2    S    
O2    C3    A    
N3    C60   A    
O13   V3    S    
C2    C55   S    
N2    C57   A    
C25   C33   A    
C35   Br3   S    
C20   H4    S    
C19   C27   A    
C10   Cl2   S    
O7    C6    A    
C47   Br15  S    
N6    C61   A    
C9    Cl1   S    
C27   C60   S    
C48   Br16  S    
C26   C57   S    
C29   C37   A    
C6    C51   S    
O14   C6    A    
N8    N16   A    
C9    C17   A    
C40   C48   A    
C44   Br12  S    
C46   C54   A    
O5    C8    A    
C20   C28   A    
C15   Cl7   S    
O6    C7    A    
O20   V2    S    
C13   Cl5   S    
C32   C40   A    
O3    V4    S    
C14   C22   A    
O4    V3    S    
N14   C62   A    
C21   H5    S    
C14   Cl6   S    
O14   V4    S    
C28   C36   A    
C48   C56   A    
C10   C50   A    
N3    N11   A    
C9    C49   A    
N2    N10   A    
C16   C56   A    
