data_mof_unit_53937.cif
_audit_creation_date              2012-12-10T19:04:11-0500
_audit_creation_method            fapswitch 2.2
_symmetry_space_group_name_H-M    P1
_symmetry_Int_Tables_number       1
_space_group_crystal_system       triclinic
_cell_length_a                    10.639807
_cell_length_b                    10.820917
_cell_length_c                    9.542593
_cell_angle_alpha                 89.720339
_cell_angle_beta                  90.075343
_cell_angle_gamma                 90.48935
_cell_volume                      1098.60823933

loop_
_atom_site_label
_atom_site_type_symbol
_atom_type_description
_atom_site_fract_x
_atom_site_fract_y
_atom_site_fract_z
_atom_type_partial_charge
C1    C     C_R   0.496245 0.262422 0.500302 0.811045
C2    C     C_3   0.958401 0.461232 0.374338 -0.209853
C3    C     C_3   0.040663 0.384800 0.476152 -0.140253
C4    C     C_3   0.122842 0.499961 0.499800 -0.054652
C5    C     C_R   0.484765 0.062702 0.625380 0.118684
C6    C     C_R   0.479413 0.129750 0.500713 -0.158743
C7    C     C_R   0.449826 0.067133 0.376359 -0.237453
C8    C     C_R   0.446955 0.938115 0.373674 0.386042
C9    C     C_R   0.476097 0.870878 0.497714 -0.155938
C10   C     C_R   0.483473 0.935733 0.623821 0.082083
C11   C     C_3   0.575848 0.927925 0.741490 -0.408702
C12   C     C_R   0.259400 0.499652 0.499914 0.813128
C13   C     C_3   0.577242 0.068270 0.742933 -0.429086
C14   C     C_R   0.560266 0.591823 0.073320 0.344609
C15   C     C_R   0.430626 0.416354 0.074796 -0.069042
C16   C     C_R   0.430702 0.416274 0.925861 -0.072301
C17   C     C_R   0.560191 0.591898 0.925988 0.246057
C18   C     C_3   0.696750 0.623697 0.920696 -0.474991
C19   C     C_3   0.696694 0.623570 0.079659 -0.486072
C20   C     C_R   0.493936 0.737718 0.499211 0.900803
C21   C     C_R   0.740703 0.500517 0.499984 0.864010
C22   C     C_3   0.042755 0.539595 0.625142 -0.193968
C23   C     C_3   0.957930 0.424423 0.601262 -0.227917
C24   C     C_3   0.877566 0.500888 0.499538 -0.102271
C25   C     C_3   0.961362 0.614041 0.522458 0.492680
C26   C     C_3   0.043288 0.576324 0.397600 -0.183139
Cu1   Cu    Cu3+1 0.499990 0.499980 0.640670 0.964962
Cu2   Cu    Cu3+1 0.500010 0.500020 0.359330 0.991577
H1    H     H_    0.920472 0.362186 0.684387 0.158148
H2    H     H_    0.666667 0.887911 0.708422 0.256243
H3    H     H_    0.535682 0.107613 0.839612 0.206972
H4    H     H_    0.669015 0.109426 0.710884 0.203559
H5    H     H_    0.376391 0.347177 0.130945 0.142087
H6    H     H_    0.376611 0.346996 0.870300 0.145498
H7    H     H_    0.754899 0.548920 0.875565 0.223670
H8    H     H_    0.713478 0.716889 0.875379 0.238973
H9    H     H_    0.754439 0.548303 0.125225 0.208047
H10   H     H_    0.713711 0.716540 0.125339 0.240731
H11   H     H_    0.079135 0.572612 0.727565 0.177301
H12   H     H_    0.080552 0.639102 0.314871 0.191134
H13   H     H_    0.921903 0.428743 0.271785 0.158898
H14   H     H_    0.076686 0.290381 0.457079 0.145092
H15   H     H_    0.434054 0.117818 0.279794 0.187715
H16   H     H_    0.533801 0.886297 0.837506 0.219420
N1    N     N_R   0.500800 0.500930 0.147930 -0.194147
N2    N     N_R   0.500800 0.500890 0.852020 -0.193196
O1    O     O_R   0.500000 0.319640 0.618810 -0.589355
O2    O     O_R   0.500010 0.319680 0.381230 -0.595929
O3    O     O_R   0.316850 0.499950 0.618770 -0.588273
O4    O     O_R   0.316860 0.499990 0.381190 -0.578454
O5    O     O_R   0.499990 0.680320 0.618770 -0.583463
O6    O     O_R   0.500000 0.680360 0.381190 -0.523725
O7    O     O_R   0.683140 0.500010 0.618810 -0.584390
O8    O     O_R   0.683150 0.500050 0.381230 -0.587495
S1    S     S_3+6 0.912847 0.768921 0.551009 -0.035972
O9    O     O_2   0.794806 0.793935 0.469451 -0.340420
O10   O     O_2   0.889608 0.787469 0.704583 -0.341084
O11   O     O_3   0.027490 0.865935 0.497383 -0.523994
H17   H     H_    0.995233 0.949713 0.516866 0.372910
Cl1   Cl    Cl    0.411129 0.869041 0.211099 -0.627797

loop_
_geom_bond_atom_site_label_1
_geom_bond_atom_site_label_2
_ccdc_geom_bond_type
C12   O4    A    
C23   C24   S    
Cu1   O7    S    
C1    O2    A    
C6    C7    A    
C19   H10   S    
C7    H15   S    
C4    C12   S    
C4    C22   S    
C18   H7    S    
C9    C20   S    
C4    C26   S    
S1    O9    D    
C16   H6    S    
C18   H8    S    
C12   O3    A    
C25   C26   S    
C24   C25   S    
C11   H16   S    
C2    C26   S    
C8    Cl1   S    
C21   O7    A    
Cu2   O6    S    
C14   C17   A    
C26   H12   S    
C21   O8    A    
Cu2   O4    S    
Cu1   O3    S    
C22   H11   S    
C23   H1    S    
Cu1   N2    S    
C5    C10   A    
Cu1   O5    S    
C17   C18   S    
C20   O5    A    
C2    C3    S    
S1    O10   D    
C2    C24   S    
C5    C6    A    
Cu2   N1    S    
S1    O11   S    
C7    C8    A    
C10   C11   S    
C15   N1    A    
C2    H13   S    
Cu1   O1    S    
C1    C6    S    
C25   S1    S    
C11   C13   S    
C3    H14   S    
C17   N2    A    
C20   O6    A    
C18   C19   S    
C9    C10   A    
C21   C24   S    
C16   N2    A    
Cu1   Cu2   S    
C3    C23   S    
Cu2   O8    S    
C22   C23   S    
C1    O1    A    
C19   H9    S    
C14   N1    A    
O11   H17   S    
C13   H4    S    
C5    C13   S    
C14   C19   S    
C13   H3    S    
Cu2   O2    S    
C3    C4    S    
C15   C16   A    
C11   H2    S    
C15   H5    S    
C8    C9    A    
C22   C25   S    
