data_mof_unit_40493.cif
_audit_creation_date              2012-12-11T15:52:16-0500
_audit_creation_method            fapswitch 2.2
_symmetry_space_group_name_H-M    P1
_symmetry_Int_Tables_number       1
_space_group_crystal_system       triclinic
_cell_length_a                    11.119151
_cell_length_b                    11.141122
_cell_length_c                    18.782188
_cell_angle_alpha                 90.059134
_cell_angle_beta                  90.013827
_cell_angle_gamma                 120.078641
_cell_volume                      2013.41025959

loop_
_atom_site_label
_atom_site_type_symbol
_atom_type_description
_atom_site_fract_x
_atom_site_fract_y
_atom_site_fract_z
_atom_type_partial_charge
C1    C     C_R   0.519518 0.456893 0.147369 0.533450
C2    C     C_R   0.542480 0.061979 0.147532 0.531764
C3    C     C_R   0.937521 0.480070 0.147666 0.533536
C4    C     C_R   0.423672 0.543921 0.860026 0.531852
C5    C     C_R   0.079698 0.553134 0.856784 0.526477
C6    C     C_R   0.455585 0.879725 0.860046 0.532219
C7    C     C_3   0.579551 0.826076 0.524657 -0.225718
C8    C     C_3   0.173631 0.753468 0.525060 -0.225158
C9    C     C_3   0.246158 0.419636 0.524825 -0.225173
C10   C     C_3   0.161794 0.733387 0.445354 -0.274838
C11   C     C_3   0.571172 0.837894 0.444950 -0.274534
C12   C     C_3   0.266383 0.428264 0.445136 -0.274851
C13   C     C_R   0.523861 0.457506 0.354850 0.563839
C14   C     C_R   0.542428 0.066319 0.354827 0.563891
C15   C     C_R   0.933492 0.476143 0.354855 0.563131
C16   C     C_R   0.457837 0.518162 0.647192 0.568631
C17   C     C_R   0.060385 0.542247 0.647198 0.564981
C18   C     C_R   0.481888 0.939549 0.647171 0.569219
C19   C     C_R   0.463936 0.911086 0.935858 -0.000598
C20   C     C_R   0.054285 0.535586 0.932723 0.001988
C21   C     C_R   0.446035 0.533211 0.935498 0.003264
C22   C     C_R   0.010213 0.506233 0.080323 0.008203
C23   C     C_R   0.494132 0.983344 0.081412 0.005712
C24   C     C_R   0.489539 0.503754 0.080845 0.007289
C25   C     C_R   0.373604 0.946873 0.969142 0.016910
C26   C     C_R   0.026628 0.413720 0.966705 0.007136
C27   C     C_R   0.574262 0.617964 0.967694 0.010357
C28   C     C_R   0.001497 0.397920 0.038893 0.017305
C29   C     C_R   0.390120 0.984364 0.040202 0.016832
C30   C     C_R   0.595752 0.603949 0.038794 0.016674
C31   C     C_R   0.569286 0.925417 0.051365 -0.153510
C32   C     C_R   0.065794 0.637295 0.048820 -0.155906
C33   C     C_R   0.355333 0.430867 0.051430 -0.154328
C34   C     C_R   0.082708 0.650861 0.975229 -0.162673
C35   C     C_R   0.558028 0.894763 0.978768 -0.170827
C36   C     C_R   0.334598 0.442787 0.978975 -0.165486
C37   C     C_3   0.325620 0.047331 0.950320 -0.124493
C38   C     C_3   0.924152 0.265793 0.950559 -0.131805
C39   C     C_3   0.718768 0.654837 0.947133 -0.120702
C40   C     C_3   0.891463 0.248770 0.030404 -0.102180
C41   C     C_3   0.350334 0.092801 0.028498 -0.108611
C42   C     C_3   0.742268 0.637492 0.025950 -0.106320
C43   C     C_R   0.504545 0.996357 0.576048 0.007997
C44   C     C_R   0.003194 0.507905 0.576099 0.008261
C45   C     C_R   0.492190 0.495511 0.576079 0.008046
C46   C     C_R   0.980354 0.480809 0.427486 -0.008733
C47   C     C_R   0.500005 0.019198 0.427401 -0.008733
C48   C     C_R   0.519283 0.499939 0.427451 -0.008634
C49   C     C_R   0.580541 0.959971 0.531108 0.050897
C50   C     C_R   0.039395 0.620294 0.531325 0.051414
C51   C     C_R   0.379551 0.419047 0.531189 0.051125
C52   C     C_R   0.028851 0.605945 0.459596 0.030716
C53   C     C_R   0.576615 0.970524 0.459386 0.031008
C54   C     C_R   0.393927 0.423102 0.459459 0.030607
C55   C     C_R   0.420773 0.060107 0.471142 0.067377
C56   C     C_R   0.939538 0.360622 0.471053 0.067335
C57   C     C_R   0.639714 0.579637 0.471122 0.067296
C58   C     C_R   0.944471 0.374231 0.546369 0.050086
C59   C     C_R   0.429604 0.055177 0.546458 0.050374
C60   C     C_R   0.626125 0.571009 0.546439 0.050143
Cr1   Cr    Cr6+3 0.769160 0.541570 0.250690 1.040834
Cr2   Cr    Cr6+3 0.458430 0.227590 0.250690 1.040031
Cr3   Cr    Cr6+3 0.772410 0.230840 0.250690 1.039583
Cr4   Cr    Cr6+3 0.541570 0.769160 0.749310 1.045577
Cr5   Cr    Cr6+3 0.227590 0.458430 0.749310 1.046256
Cr6   Cr    Cr6+3 0.230840 0.772410 0.749310 1.044964
H1    H     H_    0.647055 0.917503 0.082104 0.137693
H2    H     H_    0.081611 0.725424 0.079864 0.135301
H3    H     H_    0.269437 0.355466 0.082819 0.135713
H4    H     H_    0.111274 0.749653 0.951418 0.139930
H5    H     H_    0.630187 0.868405 0.955174 0.135455
H6    H     H_    0.234041 0.374604 0.955974 0.137339
H7    H     H_    0.214525 0.993565 0.933868 0.143153
H8    H     H_    0.975610 0.208813 0.930293 0.149165
H9    H     H_    0.780092 0.762880 0.926757 0.147982
H10   H     H_    0.785586 0.228666 0.044112 0.161127
H11   H     H_    0.438274 0.200065 0.037460 0.155251
H12   H     H_    0.759442 0.549245 0.037633 0.156864
H13   H     H_    0.484521 0.737687 0.547686 0.115610
H14   H     H_    0.262085 0.746975 0.548113 0.115973
H15   H     H_    0.252607 0.514331 0.548036 0.116198
H16   H     H_    0.142130 0.806195 0.414954 0.212800
H17   H     H_    0.663838 0.857662 0.414486 0.212667
H18   H     H_    0.193675 0.335834 0.414455 0.212753
H19   H     H_    0.679992 0.838570 0.542849 0.221839
H20   H     H_    0.161291 0.841275 0.543333 0.221875
H21   H     H_    0.158142 0.319255 0.542879 0.222043
H22   H     H_    0.241043 0.712684 0.421851 0.107401
H23   H     H_    0.471038 0.758695 0.421402 0.107376
H24   H     H_    0.287190 0.528235 0.421829 0.107463
O1    O     O_R   0.911480 0.572650 0.170990 -0.540462
O2    O     O_R   0.427350 0.338830 0.170990 -0.541643
O3    O     O_R   0.661170 0.088520 0.170990 -0.541434
O4    O     O_R   0.572650 0.911480 0.829010 -0.522846
O5    O     O_R   0.338830 0.427350 0.829010 -0.517442
O6    O     O_R   0.088520 0.661170 0.829010 -0.526270
O7    O     O_R   0.640340 0.528970 0.175680 -0.504794
O8    O     O_R   0.471030 0.111370 0.175680 -0.505247
O9    O     O_R   0.888630 0.359660 0.175680 -0.506619
O10   O     O_R   0.528970 0.640340 0.824320 -0.513079
O11   O     O_R   0.111370 0.471030 0.824320 -0.511828
O12   O     O_R   0.359660 0.888630 0.824320 -0.503270
O13   O     O_R   0.909980 0.572450 0.331530 -0.479863
O14   O     O_R   0.427550 0.337530 0.331530 -0.480132
O15   O     O_R   0.662470 0.090020 0.331530 -0.479586
O16   O     O_R   0.572450 0.909980 0.668470 -0.481693
O17   O     O_R   0.337530 0.427550 0.668470 -0.481667
O18   O     O_R   0.090020 0.662470 0.668470 -0.482926
O19   O     O_R   0.638950 0.528780 0.324500 -0.480512
O20   O     O_R   0.471220 0.110170 0.324500 -0.480769
O21   O     O_R   0.889830 0.361050 0.324500 -0.480841
O22   O     O_R   0.528780 0.638950 0.675500 -0.486329
O23   O     O_R   0.110170 0.471220 0.675500 -0.486716
O24   O     O_R   0.361050 0.889830 0.675500 -0.485786
O25   O     O_3   0.666667 0.333333 0.250560 -0.271169
O26   O     O_3   0.333333 0.666667 0.749440 -0.315689
C61   C     C_3   0.419283 0.163094 0.898968 -0.391038
H25   H     H_    0.529664 0.198756 0.909848 0.124477
H26   H     H_    0.395097 0.126682 0.843098 0.191766
H27   H     H_    0.400877 0.251507 0.905222 0.158169
C62   C     C_3   0.803735 0.247122 0.903914 -0.404456
H28   H     H_    0.762496 0.312896 0.923749 0.115047
H29   H     H_    0.838663 0.275628 0.848029 0.177306
H30   H     H_    0.720567 0.137463 0.905004 0.171232
C63   C     C_3   0.725902 0.548130 0.898802 -0.394083
H31   H     H_    0.652525 0.441607 0.917233 0.120637
H32   H     H_    0.700612 0.559713 0.843092 0.190682
H33   H     H_    0.832531 0.564977 0.899438 0.150790
C64   C     C_3   0.930853 0.151029 0.066671 -0.406317
H34   H     H_    0.044486 0.199412 0.071778 0.120401
H35   H     H_    0.886085 0.124093 0.120850 0.181736
H36   H     H_    0.891721 0.055978 0.034204 0.112759
C65   C     C_3   0.217787 0.061879 0.067717 -0.407741
H37   H     H_    0.151134 0.949986 0.077808 0.121663
H38   H     H_    0.242864 0.115035 0.119915 0.184621
H39   H     H_    0.159706 0.098317 0.035011 0.114422
C66   C     C_3   0.847268 0.773308 0.061427 -0.409439
H40   H     H_    0.874330 0.753975 0.115214 0.183707
H41   H     H_    0.942008 0.825447 0.028166 0.114262
H42   H     H_    0.803882 0.842553 0.067627 0.120632
I1    I     I_    0.258490 0.088902 0.428510 -0.299361
I2    I     I_    0.910995 0.169879 0.428311 -0.300011
I3    I     I_    0.830752 0.742023 0.428393 -0.299786
I4    I     I_    0.877956 0.199239 0.615533 -0.277110
I5    I     I_    0.321454 0.122068 0.615798 -0.277950
I6    I     I_    0.801584 0.680321 0.615700 -0.278156

loop_
_geom_bond_atom_site_label_1
_geom_bond_atom_site_label_2
_ccdc_geom_bond_type
C40   C64   S    
C45   C60   A    
C55   I1    S    
C55   C59   A    
Cr6   O12   S    
C44   C58   A    
C9    C51   S    
Cr5   O11   S    
C10   C52   S    
C18   O24   A    
C41   C65   S    
C17   O23   A    
C48   C57   A    
C21   C36   A    
C7    H19   S    
C31   H1    S    
C6    C19   S    
C66   H41   S    
C10   H22   S    
C7    H13   S    
Cr6   O26   S    
C39   C63   S    
C23   C29   A    
C12   H24   S    
Cr1   O13   S    
Cr1   O1    S    
C61   H26   S    
C41   H11   S    
Cr4   O22   S    
C45   C51   A    
C46   C52   A    
C33   C36   A    
C12   H18   S    
C3    O1    A    
C9    H15   S    
C62   H30   S    
C13   O19   A    
C16   O17   A    
C25   C37   S    
Cr2   O8    S    
C14   O15   A    
C27   C39   S    
C6    O4    A    
Cr2   O2    S    
Cr1   O25   S    
C65   H39   S    
Cr3   O9    S    
C39   H9    S    
Cr3   O15   S    
C34   H4    S    
C11   C53   S    
C43   C59   A    
C47   C53   A    
C64   H36   S    
C56   I2    S    
C21   C27   A    
Cr1   O19   S    
C22   C28   A    
C42   C66   S    
C37   C41   S    
Cr4   O4    S    
C60   I6    S    
C39   C42   S    
Cr2   O14   S    
C25   C29   A    
C66   H42   S    
C5    O11   A    
C57   I3    S    
Cr6   O6    S    
C15   O21   A    
C7    C49   S    
C61   H27   S    
C1    O7    A    
C5    C20   S    
C26   C38   S    
C57   C60   A    
C11   H17   S    
Cr4   O26   S    
C10   H16   S    
C40   H10   S    
C32   C34   A    
C48   C54   A    
C7    C11   S    
C18   O16   A    
C58   I4    S    
C63   H33   S    
C4    O5    A    
C11   H23   S    
C50   C52   A    
Cr2   O20   S    
Cr5   O5    S    
C8    H14   S    
Cr1   O7    S    
C13   O14   A    
C63   H32   S    
C62   H28   S    
C22   C32   A    
C59   I5    S    
C42   H12   S    
C1    O2    A    
C4    O10   A    
C63   H31   S    
Cr5   O26   S    
C31   C35   A    
C17   O18   A    
C8    C50   S    
C5    O6    A    
C16   O22   A    
C47   C55   A    
C64   H34   S    
C38   H8    S    
C44   C50   A    
C14   O20   A    
C37   H7    S    
Cr6   O24   S    
C29   C41   S    
Cr5   O23   S    
C2    O3    A    
C43   C49   A    
Cr6   O18   S    
C16   C45   S    
C13   C48   S    
Cr4   O16   S    
C14   C47   S    
C33   H3    S    
C66   H40   S    
Cr3   O3    S    
C26   C28   A    
C24   C33   A    
C32   H2    S    
C51   C54   A    
C17   C44   S    
Cr3   O25   S    
Cr2   O25   S    
C19   C35   A    
C61   H25   S    
C9    H21   S    
C38   C40   S    
C4    C21   S    
C65   H37   S    
C20   C26   A    
C49   C53   A    
C64   H35   S    
C56   C58   A    
C8    H20   S    
C6    O12   A    
Cr3   O21   S    
C19   C25   A    
C9    C12   S    
C24   C30   A    
C62   H29   S    
C38   C62   S    
C35   H5    S    
C20   C34   A    
C3    O9    A    
Cr4   O10   S    
C37   C61   S    
C2    O8    A    
C1    C24   S    
C8    C10   S    
C46   C56   A    
C2    C23   S    
C65   H38   S    
C28   C40   S    
C30   C42   S    
C3    C22   S    
C15   C46   S    
C15   O13   A    
C18   C43   S    
Cr5   O17   S    
C12   C54   S    
C36   H6    S    
C23   C31   A    
C27   C30   A    
