data_mof_unit_57144.cif
_audit_creation_date              2012-12-10T17:21:16-0500
_audit_creation_method            fapswitch 2.2
_symmetry_space_group_name_H-M    P1
_symmetry_Int_Tables_number       1
_space_group_crystal_system       triclinic
_cell_length_a                    10.150165
_cell_length_b                    10.70469
_cell_length_c                    10.76928
_cell_angle_alpha                 89.682755
_cell_angle_beta                  94.73786
_cell_angle_gamma                 82.212097
_cell_volume                      1155.20934176

loop_
_atom_site_label
_atom_site_type_symbol
_atom_type_description
_atom_site_fract_x
_atom_site_fract_y
_atom_site_fract_z
_atom_type_partial_charge
C1    C     C_R   0.444710 0.509558 0.267126 0.918512
C2    C     C_2   0.924857 0.520660 0.499140 -0.032323
C3    C     C_R   0.496971 0.258955 0.491842 0.895193
C4    C     C_R   0.553855 0.482101 0.732404 0.951691
C5    C     C_R   0.497408 0.741300 0.486846 0.894901
C6    C     C_3   0.612328 0.059357 0.407344 -0.255867
C7    C     C_3   0.623338 0.913267 0.420482 -0.243880
C8    C     C_3   0.519579 0.065685 0.618204 -0.334152
C9    C     C_3   0.355964 0.090932 0.421594 -0.167432
C10   C     C_3   0.493865 0.123063 0.482441 0.019707
C11   C     C_2   0.236328 0.899778 0.411472 0.393248
C12   C     C_3   0.495815 0.878142 0.479751 -0.036521
C13   C     C_2   0.444807 0.136233 0.717509 0.444214
C14   C     C_2   0.367224 0.364980 0.895487 0.505893
C15   C     C_2   0.290174 0.587261 0.079275 0.450160
C16   C     C_2   0.874943 0.628967 0.574426 0.496184
C17   C     C_2   0.608708 0.111860 0.275157 0.460181
C18   C     C_2   0.661331 0.844480 0.302313 0.540543
C19   C     C_2   0.584770 0.849726 0.715518 0.866092
C20   C     C_2   0.293714 0.164226 0.305097 0.414815
C21   C     C_3   0.492950 0.927678 0.616637 -0.223987
C22   C     C_3   0.369012 0.947138 0.397866 -0.274425
C23   C     C_2   0.414788 0.509880 0.133920 -0.132967
C24   C     C_2   0.506727 0.442890 0.068309 -0.219277
C25   C     C_2   0.578817 0.463866 0.865674 -0.378948
C26   C     C_2   0.486224 0.427261 0.936345 0.035550
C27   C     C_2   0.070984 0.499717 0.480763 -0.097318
H1    H     H_    0.707991 0.083334 0.453313 0.135181
H2    H     H_    0.281786 0.115100 0.490699 0.214695
H3    H     H_    0.387311 0.931340 0.298507 0.201530
H4    H     H_    0.191797 0.849155 0.335439 0.070082
H5    H     H_    0.501821 0.170227 0.796654 0.029330
H6    H     H_    0.351057 0.281411 0.946542 0.092383
H7    H     H_    0.208369 0.613120 0.137028 0.050757
H8    H     H_    0.804552 0.619903 0.642275 0.141083
H9    H     H_    0.663139 0.189960 0.258196 0.057802
H10   H     H_    0.759436 0.849126 0.270850 0.062358
H11   H     H_    0.599117 0.739996 0.870149 0.351727
H12   H     H_    0.390324 0.923509 0.643981 0.248210
H13   H     H_    0.201964 0.138795 0.259419 0.062948
H14   H     H_    0.599840 0.394385 0.113017 0.166664
H15   H     H_    0.669737 0.493379 0.909550 0.151626
H16   H     H_    0.105907 0.439062 0.406456 0.152697
H17   H     H_    0.883338 0.374082 0.397070 0.158491
H18   H     H_    0.126468 0.601138 0.627685 0.251943
H19   H     H_    0.709518 0.883116 0.488974 0.204921
H20   H     H_    0.626913 0.069041 0.647799 0.162993
N1    N     N_2   0.157300 0.551950 0.551120 -0.147207
N2    N     N_2   0.842730 0.448000 0.448950 -0.238707
O1    O     O_R   0.568940 0.489540 0.307530 -0.599801
O2    O     O_2   0.323080 0.151039 0.712853 -0.521333
O3    O     O_2   0.280640 0.410261 0.816544 -0.493600
O4    O     O_2   0.280000 0.628570 0.972521 -0.476504
O5    O     O_2   0.914656 0.730617 0.561938 -0.563650
O6    O     O_2   0.543511 0.071057 0.187925 -0.538622
O7    O     O_2   0.584786 0.785053 0.241514 -0.575884
O8    O     O_2   0.705874 0.845030 0.717264 -0.611556
O9    O     O_R   0.529022 0.786095 0.807450 -0.742495
O10   O     O_2   0.341282 0.252099 0.262239 -0.591874
O11   O     O_R   0.348880 0.522880 0.340350 -0.636680
O12   O     O_R   0.610030 0.298130 0.483570 -0.658463
O13   O     O_R   0.389960 0.331470 0.516390 -0.580033
O14   O     O_R   0.651120 0.477120 0.659650 -0.656212
O15   O     O_R   0.431060 0.510460 0.692470 -0.507715
O16   O     O_R   0.610040 0.668530 0.483610 -0.632989
O17   O     O_R   0.389970 0.701870 0.516430 -0.591155
O18   O     O_2   0.179351 0.915515 0.506871 -0.502081
Zn1   Zn    Zn3+2 0.646940 0.477740 0.478080 0.948599
Zn2   Zn    Zn3+2 0.353060 0.522260 0.521920 1.060756

loop_
_geom_bond_atom_site_label_1
_geom_bond_atom_site_label_2
_ccdc_geom_bond_type
H17   N2    S    
C6    C10   S    
C23   C24   D    
C7    H19   S    
C14   O3    D    
C6    C7    S    
N2    Zn1   S    
C27   H16   S    
C2    C16   S    
C9    C10   S    
C17   O6    D    
C11   C22   S    
C21   H12   S    
C9    H2    S    
N1    Zn2   S    
O16   Zn1   S    
C7    C18   S    
C14   H6    S    
C15   C23   S    
C4    C25   S    
C8    H20   S    
C11   H4    S    
C16   H8    S    
C3    C10   S    
C22   H3    S    
O15   Zn2   S    
C19   O8    D    
C20   O10   D    
C24   H14   S    
O12   Zn1   S    
C2    C27   S    
C25   H15   S    
C17   H9    S    
O11   Zn2   S    
C15   O4    D    
C1    O11   A    
C4    O14   A    
C27   N1    D    
C2    N2    D    
C18   H10   S    
C11   O18   D    
C1    C23   S    
C3    O12   A    
C19   O9    S    
C13   O2    D    
C7    C12   S    
C20   H13   S    
C9    C20   S    
C16   O5    D    
C9    C22   S    
C3    O13   A    
O17   Zn2   S    
C8    C13   S    
C12   C22   S    
C5    C12   S    
C5    O16   A    
C14   C26   S    
C1    O1    A    
H18   N1    S    
C6    C17   S    
C4    O15   A    
O14   Zn1   S    
C18   O7    D    
C15   H7    S    
C19   C21   S    
C25   C26   D    
H11   O9    S    
C13   H5    S    
O1    Zn1   S    
C12   C21   S    
C8    C10   S    
C6    H1    S    
O13   Zn2   S    
C24   C26   S    
C5    O17   A    
C8    C21   S    
