data_mof_unit_10919.cif
_audit_creation_date              2012-12-11T15:27:37-0500
_audit_creation_method            fapswitch 2.2
_symmetry_space_group_name_H-M    P1
_symmetry_Int_Tables_number       1
_space_group_crystal_system       triclinic
_cell_length_a                    23.236162
_cell_length_b                    7.297353
_cell_length_c                    15.0813
_cell_angle_alpha                 89.965867
_cell_angle_beta                  108.233694
_cell_angle_gamma                 90.02841
_cell_volume                      2428.81929897

loop_
_atom_site_label
_atom_site_type_symbol
_atom_type_description
_atom_site_fract_x
_atom_site_fract_y
_atom_site_fract_z
_atom_type_partial_charge
O1    O     O_R   0.711000 0.648610 0.341170 -0.534790
O2    O     O_R   0.289000 0.351390 0.658830 -0.534791
O3    O     O_R   0.789000 0.148610 0.158830 -0.536216
O4    O     O_R   0.211000 0.851390 0.841170 -0.536211
O5    O     O_R   0.829650 0.322030 0.336650 -0.530094
O6    O     O_R   0.170350 0.677970 0.663350 -0.530093
O7    O     O_R   0.670350 0.822030 0.163350 -0.530516
O8    O     O_R   0.329650 0.177970 0.836650 -0.530513
C1    C     C_R   0.854263 0.485809 0.356847 0.735608
C2    C     C_R   0.145737 0.514191 0.643153 0.735569
C3    C     C_R   0.645737 0.985794 0.143156 0.736575
C4    C     C_R   0.354263 0.014206 0.856843 0.736597
O9    O     O_R   0.713950 0.319280 0.352070 -0.535389
O10   O     O_R   0.286050 0.680720 0.647930 -0.535385
O11   O     O_R   0.786050 0.819280 0.147930 -0.535945
O12   O     O_R   0.213950 0.180720 0.852070 -0.535945
O13   O     O_R   0.672470 0.142870 0.174360 -0.542401
O14   O     O_R   0.327530 0.857130 0.825640 -0.542396
O15   O     O_R   0.827530 0.642870 0.325640 -0.541937
O16   O     O_R   0.172470 0.357130 0.674360 -0.541947
C5    C     C_R   0.701869 0.487288 0.376132 0.856206
C6    C     C_R   0.298130 0.512711 0.623867 0.856140
C7    C     C_R   0.798106 0.987430 0.123855 0.857392
C8    C     C_R   0.201894 0.012570 0.876144 0.857421
O17   O     O_3   0.736530 0.478650 0.191680 -0.390167
O18   O     O_3   0.263470 0.521350 0.808320 -0.390157
O19   O     O_3   0.763470 0.978650 0.308320 -0.388757
O20   O     O_3   0.236530 0.021350 0.691680 -0.388764
V1    V     V_3+5 0.752500 0.206170 0.260820 1.509607
V2    V     V_3+5 0.247500 0.793830 0.739180 1.509612
V3    V     V_3+5 0.747500 0.706170 0.239180 1.508815
V4    V     V_3+5 0.252500 0.293830 0.760820 1.508805
C9    C     C_R   0.827515 0.994387 0.051368 -0.350661
C10   C     C_R   0.172484 0.005615 0.948632 -0.350644
C11   C     C_R   0.672520 0.493547 0.448719 -0.351915
C12   C     C_R   0.327481 0.506447 0.551282 -0.351949
C13   C     C_R   0.822728 0.993274 0.888944 0.622610
C14   C     C_R   0.177273 0.006734 0.111056 0.622632
C15   C     C_R   0.677183 0.482742 0.611016 0.623762
C16   C     C_R   0.322825 0.517242 0.388988 0.623788
C17   C     C_R   0.793294 0.982251 0.956765 0.274157
C18   C     C_R   0.206706 0.017753 0.043234 0.274150
C19   C     C_R   0.706578 0.474542 0.543093 0.277590
C20   C     C_R   0.293426 0.525464 0.456906 0.277605
C21   C     C_R   0.890579 0.010417 0.077909 0.586551
C22   C     C_R   0.109421 0.989589 0.922091 0.586540
C23   C     C_R   0.609583 0.513440 0.422430 0.587151
C24   C     C_R   0.390417 0.486526 0.577575 0.587177
C25   C     C_R   0.921446 0.996082 0.010821 -0.093938
C26   C     C_R   0.078555 0.003927 0.989180 -0.093947
C27   C     C_R   0.578560 0.495608 0.489181 -0.094291
C28   C     C_R   0.421444 0.504344 0.510829 -0.094284
C29   C     C_R   0.886296 0.008300 0.915634 -0.196054
C30   C     C_R   0.113704 0.991710 0.084367 -0.196028
C31   C     C_R   0.613717 0.500993 0.584539 -0.195335
C32   C     C_R   0.386289 0.498966 0.415469 -0.195389
C33   C     C_R   0.985855 0.981349 0.034922 -0.013765
C34   C     C_R   0.014146 0.018663 0.965080 -0.013762
C35   C     C_R   0.514072 0.483433 0.464793 -0.014196
C36   C     C_R   0.485933 0.516503 0.535220 -0.014198
C37   C     C_R   0.977622 0.075818 0.874608 0.527165
C38   C     C_R   0.022379 0.924196 0.125394 0.527151
C39   C     C_R   0.522718 0.567191 0.626637 0.528411
C40   C     C_R   0.477288 0.432730 0.373379 0.528453
C41   C     C_R   0.914365 0.051784 0.849112 -0.206290
C42   C     C_R   0.085636 0.948229 0.150889 -0.206255
C43   C     C_R   0.585845 0.540613 0.651735 -0.204869
C44   C     C_R   0.414163 0.459325 0.348276 -0.204895
H1    H     H_    0.885898 0.083791 0.779128 0.183731
H2    H     H_    0.114103 0.916224 0.220874 0.183732
H3    H     H_    0.614447 0.567515 0.722250 0.181014
H4    H     H_    0.385560 0.432425 0.277761 0.181010
C45   C     C_1   0.416749 0.006987 0.918807 -0.158876
C46   C     C_1   0.583251 0.993013 0.081192 -0.158883
C47   C     C_1   0.083252 0.506953 0.581186 -0.159595
C48   C     C_1   0.916748 0.493047 0.418813 -0.159592
C49   C     C_1   0.469140 0.002405 0.970002 -0.006660
C50   C     C_1   0.530860 0.997595 0.029997 -0.006668
C51   C     C_1   0.030861 0.502390 0.529993 -0.007630
C52   C     C_1   0.969139 0.497610 0.470006 -0.007630
F1    F     F_    0.079903 0.940287 0.832529 -0.674299
F2    F     F_    0.920096 0.059720 0.167472 -0.674296
F3    F     F_    0.419546 0.431054 0.666283 -0.673561
F4    F     F_    0.580448 0.568887 0.333720 -0.673559
O21   O     O_3   0.268776 0.042971 0.069388 -0.535083
C53   C     C_3   0.297259 0.870412 0.089159 -0.142800
H5    H     H_    0.283068 0.778151 0.027346 0.106381
H6    H     H_    0.288316 0.804253 0.150037 0.221944
H7    H     H_    0.346938 0.890507 0.107368 0.141706
O22   O     O_3   0.731224 0.957029 0.930604 -0.535057
C54   C     C_3   0.702742 0.129596 0.910881 -0.142825
H8    H     H_    0.711731 0.195921 0.850078 0.221860
H9    H     H_    0.716891 0.221720 0.972749 0.106349
H10   H     H_    0.653059 0.109478 0.892578 0.141776
O23   O     O_3   0.231569 0.554792 0.431045 -0.533705
C55   C     C_3   0.201794 0.384393 0.409542 -0.142917
H11   H     H_    0.214910 0.290203 0.470681 0.106220
H12   H     H_    0.210656 0.318821 0.348487 0.215856
H13   H     H_    0.152249 0.407834 0.390781 0.141597
O24   O     O_3   0.768437 0.445247 0.568937 -0.533762
C56   C     C_3   0.798206 0.615636 0.590540 -0.142876
H14   H     H_    0.789443 0.680827 0.651758 0.216035
H15   H     H_    0.784994 0.710127 0.529522 0.106297
H16   H     H_    0.847745 0.592270 0.609093 0.141458
F5    F     F_    0.789137 0.990168 0.797209 -0.648602
F6    F     F_    0.210863 0.009852 0.202791 -0.648618
F7    F     F_    0.710715 0.473343 0.702655 -0.652312
F8    F     F_    0.289294 0.526630 0.297348 -0.652247
O25   O     O_3   0.004182 0.181975 0.820736 -0.529411
C57   C     C_3   0.975617 0.162899 0.723610 -0.095647
H17   H     H_    0.935420 0.254069 0.699864 0.117086
H18   H     H_    0.963373 0.017940 0.703054 0.136247
H19   H     H_    0.007858 0.207781 0.687032 0.169255
O26   O     O_3   0.995820 0.818041 0.179267 -0.529409
C58   C     C_3   0.024384 0.837120 0.276393 -0.095644
H20   H     H_    0.036628 0.982079 0.296947 0.136246
H21   H     H_    0.064581 0.745950 0.300140 0.117080
H22   H     H_    0.992143 0.792240 0.312971 0.169254
O27   O     O_3   0.496698 0.670148 0.682298 -0.529004
C59   C     C_3   0.525078 0.644085 0.779036 -0.097954
H23   H     H_    0.565773 0.732927 0.804444 0.118289
H24   H     H_    0.536502 0.497632 0.797008 0.135435
H25   H     H_    0.493048 0.687045 0.816334 0.169176
O28   O     O_3   0.503311 0.329749 0.317729 -0.529005
C60   C     C_3   0.474921 0.355729 0.220988 -0.097978
H26   H     H_    0.463493 0.502167 0.202985 0.135441
H27   H     H_    0.434228 0.266871 0.195609 0.118305
H28   H     H_    0.506947 0.312728 0.183689 0.169162

loop_
_geom_bond_atom_site_label_1
_geom_bond_atom_site_label_2
_ccdc_geom_bond_type
O17   V3    S    
C25   C29   A    
O1    C5    A    
C56   H14   S    
O19   V1    S    
C9    C21   A    
O3    C7    A    
O23   C55   S    
C10   C18   A    
C37   O25   S    
O26   C58   S    
O22   C54   S    
C25   C33   A    
C33   C38   A    
C49   C50   S    
C15   F7    S    
C35   C40   A    
C26   C30   A    
C36   C39   A    
C40   C44   A    
O9    V1    S    
C38   O26   S    
O21   C53   S    
O4    C8    A    
C53   H6    S    
C58   H20   S    
C55   H13   S    
O1    V3    S    
O13   V1    S    
O2    V4    S    
O3    V1    S    
C57   H17   S    
C28   C36   A    
C1    O15   A    
C15   C31   A    
C21   F2    S    
C2    O16   A    
C16   C32   A    
C55   H12   S    
O2    C6    A    
C60   H28   S    
C10   C22   A    
C1    C48   S    
C11   C19   A    
C16   C20   A    
C43   H3    S    
C59   H25   S    
C44   H4    S    
C16   F8    S    
C13   C29   A    
C34   C37   A    
O11   C7    A    
C17   O22   S    
O15   V3    S    
C35   C36   A    
O12   C8    A    
C4    C45   S    
O10   V2    S    
C59   H24   S    
O5    V1    S    
C39   C43   A    
O7    V3    S    
C38   C42   A    
O8    V4    S    
C19   O24   S    
C54   H8    S    
C53   H5    S    
C15   C19   A    
C7    C9    S    
C40   O28   S    
C3    C46   S    
C8    C10   S    
C26   C34   A    
C14   F6    S    
O7    C3    A    
C13   F5    S    
C54   H9    S    
C22   F1    S    
C39   O27   S    
C2    C47   S    
C31   C43   A    
C14   C30   A    
C21   C25   A    
O8    C4    A    
C58   H22   S    
C55   H11   S    
O9    C5    A    
C18   O21   S    
C23   F4    S    
C57   H19   S    
C30   C42   A    
O6    V2    S    
C56   H16   S    
C60   H26   S    
C12   C20   A    
C27   C35   A    
C29   C41   A    
C59   H23   S    
O16   V4    S    
C58   H21   S    
C3    O13   A    
C48   C52   T    
O5    C1    A    
C53   H7    S    
O6    C2    A    
C23   C27   A    
O27   C59   S    
O11   V3    S    
C5    C11   S    
O12   V4    S    
C6    C12   S    
C22   C26   A    
C24   F3    S    
C9    C17   A    
O10   C6    A    
O20   V2    S    
C20   O23   S    
C32   C44   A    
O25   C57   S    
C54   H10   S    
C33   C34   A    
C42   H2    S    
C41   H1    S    
O24   C56   S    
C12   C24   A    
C27   C31   A    
C13   C17   A    
C57   H18   S    
O14   V2    S    
C51   C52   S    
C14   C18   A    
C37   C41   A    
C24   C28   A    
C56   H15   S    
C46   C50   T    
C4    O14   A    
C60   H27   S    
C45   C49   T    
C11   C23   A    
C47   C51   T    
O18   V4    S    
O4    V2    S    
C28   C32   A    
O28   C60   S    
