data_mof_unit_14657.cif
_audit_creation_date              2013-03-05T15:51:41-0500
_audit_creation_method            fapswitch 2.2
_symmetry_space_group_name_H-M    P1
_symmetry_Int_Tables_number       1
_space_group_crystal_system       triclinic
_cell_length_a                    11.542493
_cell_length_b                    11.525085
_cell_length_c                    19.572879
_cell_angle_alpha                 90.464412
_cell_angle_beta                  90.037822
_cell_angle_gamma                 59.944717
_cell_volume                      2253.5608141

loop_
_atom_site_label
_atom_site_type_symbol
_atom_site_description
_atom_site_fract_x
_atom_site_fract_y
_atom_site_fract_z
_atom_type_partial_charge
O1    O     O_R   0.267750 0.231960 0.575440 -0.493489
O2    O     O_R   0.527290 0.186640 0.570530 -0.494868
C1    C     C_R   0.640392 0.117338 0.599313 0.548275
O3    O     O_R   0.728110 0.003450 0.576380 -0.491701
O4    O     O_R   0.682980 0.789190 0.570500 -0.490576
C2    C     C_R   0.612408 0.746087 0.598694 0.543791
O5    O     O_R   0.499300 0.771880 0.575540 -0.500361
O6    O     O_R   0.285350 0.030870 0.569740 -0.485223
C3    C     C_R   0.241010 0.145286 0.598233 0.552765
O7    O     O_R   0.270960 0.227070 0.423890 -0.488771
O8    O     O_R   0.530270 0.182120 0.430040 -0.513880
C4    C     C_R   0.645708 0.113224 0.403183 0.543333
O9    O     O_R   0.731320 0.998570 0.424830 -0.483592
O10   O     O_R   0.685950 0.784660 0.430010 -0.502486
C5    C     C_R   0.618788 0.734765 0.404125 0.535923
O11   O     O_R   0.502510 0.767000 0.423980 -0.515049
O12   O     O_R   0.288320 0.026340 0.429250 -0.461880
C6    C     C_R   0.240262 0.142724 0.402540 0.559481
Cr1   Cr    Cr6+3 0.404720 0.198220 0.499960 1.079815
Cr2   Cr    Cr6+3 0.698290 0.897110 0.500380 1.083331
Cr3   Cr    Cr6+3 0.396970 0.904720 0.499610 1.092467
O13   O     O_3   0.499990 0.000020 0.499980 -0.284775
C7    C     C_1   0.670507 0.646291 0.860071 0.004438
C8    C     C_1   0.654719 0.683717 0.728447 -0.027922
C9    C     C_1   0.663499 0.666556 0.799669 -0.029706
C10   C     C_1   0.641147 0.704019 0.668051 0.008842
C11   C     C_1   0.126592 0.198817 0.859238 0.004235
C12   C     C_1   0.171526 0.170278 0.727720 -0.027501
C13   C     C_1   0.150071 0.182314 0.798916 -0.029207
C14   C     C_1   0.195356 0.160880 0.667423 0.009193
C15   C     C_1   0.678775 0.191281 0.860717 0.004427
C16   C     C_1   0.658529 0.167206 0.729042 -0.027693
C17   C     C_1   0.665807 0.180898 0.800315 -0.029155
C18   C     C_1   0.652867 0.149668 0.668687 0.008238
C19   C     C_R   0.678914 0.631404 0.199851 0.013494
C20   C     C_R   0.578297 0.625192 0.235721 0.016726
C21   C     C_R   0.569266 0.638724 0.304904 0.001414
C22   C     C_R   0.778894 0.637695 0.307706 -0.149708
C23   C     C_R   0.787317 0.624155 0.236535 -0.158934
C24   C     C_3   0.430757 0.701539 0.224949 -0.255293
C25   C     C_3   0.418986 0.719353 0.301464 -0.204096
C26   C     C_R   0.661698 0.659779 0.341079 0.016234
H1    H     H_    0.855657 0.646497 0.334993 0.187884
H2    H     H_    0.874502 0.614507 0.210491 0.145888
H3    H     H_    0.391273 0.637560 0.205090 0.162421
H4    H     H_    0.396827 0.796926 0.197071 0.135705
H5    H     H_    0.371506 0.667206 0.326211 0.221686
C27   C     C_R   0.117760 0.209076 0.197616 -0.039354
C28   C     C_R   0.124495 0.306907 0.235882 -0.030188
C29   C     C_R   0.147923 0.292324 0.304480 0.028155
C30   C     C_R   0.127671 0.093360 0.304239 0.154791
C31   C     C_R   0.108123 0.107510 0.232884 -0.152302
C32   C     C_3   0.203750 0.374644 0.224441 -0.244511
C33   C     C_3   0.231888 0.358738 0.300599 0.106547
C34   C     C_R   0.164900 0.178162 0.338811 -0.011352
H6    H     H_    0.083462 0.040891 0.205359 0.176580
H7    H     H_    0.139634 0.480069 0.207704 0.168214
H8    H     H_    0.294456 0.313488 0.192550 0.105676
H9    H     H_    0.339211 0.291989 0.312897 0.113389
C35   C     C_R   0.681736 0.192566 0.197386 -0.001352
C36   C     C_R   0.775949 0.073909 0.228248 0.046988
C37   C     C_R   0.771776 0.054335 0.296733 0.094093
C38   C     C_R   0.586083 0.279787 0.309673 -0.168850
C39   C     C_R   0.590957 0.299533 0.239306 -0.165038
C40   C     C_3   0.813858 0.933323 0.210082 -0.281321
C41   C     C_3   0.807331 0.911571 0.285696 -0.241241
C42   C     C_R   0.672407 0.153099 0.337903 0.016329
H10   H     H_    0.510210 0.360016 0.340779 0.161900
H11   H     H_    0.523160 0.396443 0.217800 0.145719
H12   H     H_    0.735582 0.926688 0.179962 0.124582
H13   H     H_    0.723225 0.895258 0.299438 0.127154
H14   H     H_    0.905916 0.839301 0.307991 0.224268
O14   O     O_R   0.821590 0.119350 0.952850 -0.505361
O15   O     O_R   0.037230 0.162540 0.957390 -0.493930
C43   C     C_R   0.081745 0.231152 0.928542 0.546187
O16   O     O_R   0.056530 0.344750 0.951370 -0.504674
O17   O     O_R   0.798000 0.560370 0.957490 -0.493616
C44   C     C_R   0.683997 0.604307 0.929445 0.545686
O18   O     O_R   0.596230 0.579400 0.952760 -0.504064
O19   O     O_R   0.639160 0.321170 0.958690 -0.493720
C45   C     C_R   0.708488 0.206687 0.930070 0.545192
O20   O     O_R   0.821370 0.124220 0.104400 -0.514993
O21   O     O_R   0.037020 0.167050 0.097880 -0.508885
C46   C     C_R   0.079117 0.237663 0.126587 0.553739
O22   O     O_R   0.056310 0.349620 0.102920 -0.512007
O23   O     O_R   0.797790 0.564880 0.097980 -0.508398
C47   C     C_R   0.686192 0.604905 0.127709 0.543635
O24   O     O_R   0.596000 0.584270 0.104310 -0.518211
O25   O     O_R   0.638950 0.325690 0.099180 -0.506124
C48   C     C_R   0.709123 0.212259 0.127572 0.545228
Cr4   Cr    Cr6+3 0.926290 0.152010 0.028150 1.030355
Cr5   Cr    Cr6+3 0.921440 0.451830 0.027490 1.028703
Cr6   Cr    Cr6+3 0.626370 0.446880 0.028730 1.028393
O26   O     O_3   0.824700 0.350240 0.028120 -0.255628
N1    N     N_R   0.171363 0.487723 0.336704 0.081750
O27   O     O_R   0.207680 0.574411 0.321148 -0.361913
O28   O     O_R   0.095830 0.509522 0.390138 -0.320215
H15   H     H_    0.916974 0.875802 0.188768 0.169791
H16   H     H_    0.377312 0.826064 0.316681 0.181832
N2    N     N_R   0.107173 0.996379 0.339951 0.076117
O29   O     O_R   0.062031 0.020331 0.402408 -0.305961
O30   O     O_R   0.109575 0.896907 0.306763 -0.361921

loop_
_geom_bond_atom_site_label_1
_geom_bond_atom_site_label_2
_geom_bond_distance
_ccdc_geom_bond_type
C47   O24   1.263202 A    
O17   Cr5   1.926647 S    
Cr6   O26   1.981681 S    
C11   C13   1.203647 T    
N1    O27   1.300468 A    
C19   C20   1.389969 A    
O4    Cr2   1.926138 S    
C2    C10   1.427212 S    
O17   C44   1.274907 A    
C24   H4    1.112586 S    
O8    Cr1   1.933012 S    
C29   C33   1.508317 S    
C37   C42   1.392530 A    
C20   C21   1.359884 A    
C8    C10   1.201753 T    
C40   H15   1.111731 S    
O18   Cr6   2.041721 S    
C22   C23   1.398476 A    
C28   C32   1.488251 S    
C5    O11   1.260668 A    
C21   C26   1.397863 A    
O24   Cr6   2.055538 S    
C19   C47   1.435821 S    
C41   H14   1.111260 S    
C41   H13   1.110906 S    
O6    C3    1.274467 A    
C25   H16   1.111001 S    
Cr3   O13   1.982037 S    
C21   C25   1.504386 S    
C11   C43   1.430507 S    
O14   C45   1.267483 A    
O22   Cr5   2.044275 S    
O12   C6    1.282920 A    
C33   H9    1.110113 S    
C24   H3    1.110946 S    
C4    C42   1.445908 S    
C38   C42   1.408916 A    
O1    Cr1   2.052136 S    
O15   C43   1.273864 A    
C37   C41   1.496764 S    
C30   C31   1.412259 A    
O10   Cr2   1.937183 S    
C20   C24   1.490103 S    
Cr1   O13   1.977635 S    
O1    C3    1.268219 A    
C8    C9    1.406028 S    
O14   Cr4   2.053935 S    
C32   H7    1.112090 S    
C44   O18   1.269228 A    
C1    C18   1.431292 S    
C32   C33   1.518296 S    
O12   Cr3   1.924117 S    
O20   Cr4   2.048219 S    
C27   C46   1.449028 S    
C35   C36   1.393020 A    
C16   C18   1.204128 T    
O15   Cr4   1.932191 S    
C19   C23   1.408258 A    
C43   O16   1.267845 A    
O21   C46   1.265872 A    
O7    Cr1   2.049849 S    
C32   H8    1.112261 S    
N2    O30   1.301200 A    
O6    Cr3   1.936893 S    
C25   H5    1.109575 S    
C39   H11   1.081075 S    
C46   O22   1.272039 A    
C33   N1    1.463107 S    
C2    O5    1.269197 A    
C3    C14   1.430416 S    
O16   Cr5   2.054227 S    
C6    C34   1.459566 S    
C24   C25   1.506929 S    
Cr2   O13   1.981565 S    
C28   C29   1.364474 A    
C1    O3    1.268589 A    
C30   N2    1.439318 S    
C38   H10   1.083079 S    
C12   C13   1.409038 S    
C15   C17   1.204093 T    
O9    Cr2   2.043202 S    
O2    Cr1   1.933526 S    
O23   C47   1.269680 A    
C5    C26   1.438634 S    
O19   C45   1.275163 A    
O20   C48   1.261096 A    
O8    C4    1.271450 A    
N1    O28   1.301754 A    
O11   Cr3   2.054774 S    
C22   C26   1.405339 A    
C23   H2    1.082867 S    
C35   C48   1.447793 S    
O21   Cr4   1.934449 S    
C29   C34   1.406043 A    
C15   C45   1.431175 S    
C35   C39   1.407747 A    
C16   C17   1.409815 S    
C12   C14   1.203625 T    
O2    C1    1.273372 A    
O19   Cr6   1.937530 S    
C22   H1    1.081260 S    
O23   Cr5   1.936211 S    
Cr4   O26   1.977643 S    
O5    Cr3   2.042292 S    
Cr5   O26   1.981832 S    
O4    C2    1.274838 A    
C31   H6    1.082949 S    
O7    C6    1.258327 A    
C27   C28   1.382865 A    
N2    O29   1.301308 A    
C30   C34   1.416814 A    
C7    C9    1.201759 T    
C7    C44   1.427235 S    
O25   Cr6   1.923829 S    
C36   C37   1.365963 A    
C38   C39   1.403535 A    
O3    Cr2   2.055627 S    
C36   C40   1.491272 S    
C27   C31   1.415169 A    
C4    O9    1.265964 A    
C40   C41   1.511281 S    
O10   C5    1.276562 A    
O25   C48   1.274539 A    
C40   H12   1.112406 S    
