data_mof_unit_58055.cif
_audit_creation_date              2012-12-10T20:31:08-0500
_audit_creation_method            fapswitch 2.2
_symmetry_space_group_name_H-M    P1
_symmetry_Int_Tables_number       1
_space_group_crystal_system       triclinic
_cell_length_a                    14.925714
_cell_length_b                    10.692552
_cell_length_c                    9.87549
_cell_angle_alpha                 90.139848
_cell_angle_beta                  88.702549
_cell_angle_gamma                 90.338786
_cell_volume                      1575.63286936

loop_
_atom_site_label
_atom_site_type_symbol
_atom_type_description
_atom_site_fract_x
_atom_site_fract_y
_atom_site_fract_z
_atom_type_partial_charge
C1    C     C_R   0.503994 0.259565 0.499493 0.870722
C2    C     C_R   0.184799 0.389379 0.512746 -0.307595
C3    C     C_R   0.230929 0.502458 0.503114 -0.124351
C4    C     C_R   0.326809 0.500095 0.501240 0.944956
C5    C     C_R   0.186607 0.616678 0.490347 0.407112
C6    C     C_R   0.544828 0.065469 0.614585 0.022765
C7    C     C_R   0.524280 0.128693 0.496534 -0.151918
C8    C     C_R   0.531055 0.064091 0.372756 -0.197124
C9    C     C_R   0.536993 0.934469 0.373251 -0.208448
C10   C     C_R   0.533660 0.870430 0.497792 -0.168112
C11   C     C_R   0.552235 0.938007 0.615678 0.022433
C12   C     C_R   0.905733 0.612297 0.470025 0.097439
C13   C     C_3   0.521717 0.930963 0.761409 0.288619
C14   C     C_3   0.509141 0.073104 0.756279 0.327625
C15   C     C_R   0.426001 0.535770 0.074030 0.070525
C16   C     C_R   0.509237 0.739691 0.499955 0.880225
C17   C     C_R   0.575209 0.469962 0.069271 -0.155337
C18   C     C_R   0.574988 0.468794 0.925566 -0.122376
C19   C     C_R   0.426540 0.537866 0.931358 0.053342
C20   C     C_3   0.334317 0.480939 0.928576 0.936705
C21   C     C_3   0.335226 0.476005 0.083087 -0.614296
C22   C     C_R   0.672670 0.500658 0.498515 0.869378
C23   C     C_R   0.950422 0.278186 0.550506 0.352003
C24   C     C_R   0.813083 0.610806 0.466259 -0.232337
C25   C     C_R   0.767404 0.500386 0.494925 -0.055246
C26   C     C_R   0.811441 0.390257 0.524067 -0.210252
C27   C     C_R   0.904461 0.388896 0.523632 -0.057988
C28   C     C_R   0.952091 0.500721 0.496286 0.010363
C29   C     C_3   0.581530 0.783138 0.904555 -0.284557
C30   C     C_3   0.530867 0.155638 0.968864 -0.253223
C31   C     C_3   0.278497 0.687295 0.892987 -0.389668
C32   C     C_3   0.254124 0.298828 0.873410 0.131121
C33   C     C_3   0.263004 0.173904 0.947783 -0.413077
C34   C     C_R   0.043392 0.274860 0.530177 0.389192
C35   C     C_3   0.205346 0.072981 0.883873 -0.982663
C36   C     C_3   0.889936 0.172241 0.730101 0.037951
C37   C     C_3   0.805833 0.096010 0.767058 -0.274853
C38   C     C_3   0.790688 0.090432 0.920354 -0.881365
C39   C     C_3   0.099246 0.122293 0.391735 0.094923
C40   C     C_3   0.011699 0.078265 0.327243 -0.271796
C41   C     C_3   0.029583 0.009146 0.194617 -1.016061
C42   C     C_3   0.246770 0.768007 0.352615 0.100266
C43   C     C_3   0.303042 0.887345 0.352987 -0.292721
C44   C     C_3   0.307807 0.949736 0.214443 -1.044209
C45   C     C_R   0.091694 0.387821 0.513112 -0.038899
C46   C     C_3   0.087043 0.854563 0.659512 0.146501
C47   C     C_3   0.997491 0.837194 0.738702 -0.404658
C48   C     C_3   0.006158 0.866928 0.888543 -0.978388
C49   C     C_R   0.045620 0.501931 0.498940 -0.117298
C50   C     C_R   0.092453 0.617474 0.490349 -0.075892
C51   C     C_R   0.042998 0.729876 0.483943 0.476301
C52   C     C_R   0.951733 0.725189 0.458986 -0.326004
H1    H     H_    0.776209 0.695922 0.446933 0.133841
H2    H     H_    0.222075 0.303141 0.521791 0.166526
H3    H     H_    0.915153 0.811755 0.448600 0.167056
H4    H     H_    0.524013 0.111469 0.276870 0.158972
H5    H     H_    0.588610 0.709502 0.826215 0.209017
H6    H     H_    0.516115 0.776484 0.960503 0.138121
H7    H     H_    0.634942 0.768305 0.979029 0.179913
H8    H     H_    0.503560 0.066306 0.010967 0.150527
H9    H     H_    0.477891 0.227967 0.968034 0.185439
H10   H     H_    0.583814 0.188639 0.037617 0.176942
H11   H     H_    0.327116 0.724327 0.816053 0.198071
H12   H     H_    0.532697 0.885374 0.277479 0.176551
H13   H     H_    0.300209 0.711359 0.996555 0.135602
H14   H     H_    0.213845 0.734938 0.879887 0.190771
H15   H     H_    0.234033 0.282466 0.767297 0.190562
H16   H     H_    0.198811 0.352830 0.923504 0.141244
H17   H     H_    0.333414 0.141522 0.944849 0.236596
H18   H     H_    0.242339 0.186238 0.055819 0.202267
H19   H     H_    0.135647 0.106971 0.875055 0.266830
H20   H     H_    0.205285 0.986905 0.946332 0.266363
H21   H     H_    0.233067 0.049907 0.781578 0.266897
H22   H     H_    0.880141 0.268462 0.772343 0.129200
H23   H     H_    0.457365 0.879110 0.778726 0.017155
H24   H     H_    0.949121 0.130558 0.778670 0.168654
H25   H     H_    0.746595 0.139752 0.720638 0.248971
H26   H     H_    0.811859 0.999507 0.726454 0.225807
H27   H     H_    0.849621 0.048839 0.969510 0.242964
H28   H     H_    0.731020 0.031729 0.944803 0.317650
H29   H     H_    0.779132 0.185801 0.961832 0.251022
H30   H     H_    0.145893 0.042741 0.391927 0.208009
H31   H     H_    0.132214 0.196345 0.328448 0.107062
H32   H     H_    0.974503 0.015444 0.398144 0.277337
H33   H     H_    0.968883 0.160164 0.305806 0.200180
H34   H     H_    0.438235 0.105374 0.760711 0.042857
H35   H     H_    0.067162 0.070343 0.122276 0.270424
H36   H     H_    0.964618 0.982415 0.150098 0.272745
H37   H     H_    0.068451 0.922821 0.212315 0.279175
H38   H     H_    0.180950 0.787721 0.306986 0.153430
H39   H     H_    0.282560 0.697180 0.289587 0.136004
H40   H     H_    0.276399 0.953995 0.429862 0.222433
H41   H     H_    0.370995 0.862649 0.383182 0.227273
H42   H     H_    0.339915 0.886593 0.138602 0.265055
H43   H     H_    0.348310 0.036942 0.220335 0.267489
H44   H     H_    0.239490 0.974075 0.181869 0.273832
H45   H     H_    0.635373 0.444121 0.121060 0.154601
H46   H     H_    0.112817 0.949555 0.680802 0.204381
H47   H     H_    0.137170 0.787459 0.696236 0.162000
H48   H     H_    0.946323 0.898584 0.694621 0.247216
H49   H     H_    0.974315 0.738582 0.731219 0.224283
H50   H     H_    0.060692 0.811426 0.933186 0.270956
H51   H     H_    0.942243 0.843518 0.942640 0.275295
H52   H     H_    0.019846 0.967767 0.902617 0.268157
H53   H     H_    0.634997 0.441813 0.869848 0.170586
H54   H     H_    0.284029 0.536018 0.133259 0.178779
H55   H     H_    0.772648 0.306134 0.544831 0.169650
H56   H     H_    0.338022 0.379717 0.125064 0.194567
N1    N     N_R   0.499390 0.499140 0.142800 -0.084845
N2    N     N_R   0.499390 0.499180 0.857150 -0.110375
O1    O     O_R   0.500010 0.316790 0.614690 -0.572525
O2    O     O_3   0.569134 0.140629 0.838092 -0.546235
O3    O     O_3   0.265488 0.557259 0.873525 -0.617991
O4    O     O_3   0.338104 0.360946 0.867930 -0.655081
O5    O     O_3   0.904031 0.170754 0.587820 -0.640283
O6    O     O_3   0.085862 0.160424 0.528325 -0.644509
O7    O     O_3   0.236156 0.726505 0.487636 -0.651389
O8    O     O_3   0.079073 0.844906 0.516817 -0.637482
O9    O     O_R   0.500000 0.316760 0.385350 -0.630383
O10   O     O_R   0.367850 0.499990 0.614680 -0.556980
O11   O     O_R   0.367840 0.499950 0.385340 -0.635023
O12   O     O_R   0.500000 0.683240 0.614650 -0.637725
O13   O     O_R   0.499990 0.683210 0.385310 -0.620075
O14   O     O_R   0.632160 0.500050 0.614660 -0.635138
O15   O     O_R   0.632150 0.500010 0.385320 -0.626786
O16   O     O_3   0.594296 0.901119 0.845271 -0.568240
Zn1   Zn    Zn3+2 0.500010 0.500020 0.653130 0.991112
Zn2   Zn    Zn3+2 0.499990 0.499980 0.346870 0.936897

loop_
_geom_bond_atom_site_label_1
_geom_bond_atom_site_label_2
_ccdc_geom_bond_type
C31   H14   S    
C41   H37   S    
C46   H47   S    
C47   H49   S    
C9    H12   S    
C40   H32   S    
C19   C20   S    
C8    H4    S    
O10   Zn1   S    
C7    C8    A    
C14   O2    S    
C26   C27   A    
C12   C28   A    
C36   C37   S    
C16   O13   A    
C20   O3    S    
C38   H27   S    
C34   O6    S    
C48   H52   S    
C51   O8    S    
C46   O8    S    
C42   H39   S    
C1    O9    A    
O12   Zn1   S    
C15   N1    A    
C16   O12   A    
C36   H24   S    
C43   H41   S    
C13   H23   S    
C8    C9    A    
C22   C25   S    
C30   H8    S    
O15   Zn2   S    
C23   C27   A    
C9    C10   A    
C21   H54   S    
C52   H3    S    
C33   H17   S    
N2    Zn1   S    
C32   H16   S    
O9    Zn2   S    
C46   H46   S    
C35   H19   S    
C29   O16   S    
C12   C52   A    
C50   C51   A    
C2    C45   A    
C41   H35   S    
C51   C52   A    
C31   H11   S    
C24   C25   A    
C14   H34   S    
O11   Zn2   S    
C2    H2    S    
C6    C11   A    
C22   O15   A    
C25   C26   A    
C48   H51   S    
C37   H25   S    
C47   H48   S    
C30   O2    S    
C42   H38   S    
C40   H33   S    
C15   C19   A    
C43   C44   S    
C37   C38   S    
C44   H44   S    
C6    C14   S    
C28   C49   A    
N1    Zn2   S    
C47   C48   S    
C45   C49   A    
C23   C34   A    
C48   H50   S    
C17   C18   A    
C34   C45   A    
C29   H6    S    
C36   H22   S    
C33   H18   S    
C32   H15   S    
C13   O16   S    
C40   C41   S    
C29   H5    S    
C35   H20   S    
C49   C50   A    
O14   Zn1   S    
C38   H29   S    
O1    Zn1   S    
C5    C50   A    
C42   C43   S    
C3    C4    S    
C39   C40   S    
C19   N2    A    
C31   H13   S    
C41   H36   S    
C46   C47   S    
C35   H21   S    
C1    C7    S    
C18   N2    A    
C39   H30   S    
C3    C5    A    
C17   N1    A    
C26   H55   S    
C42   O7    S    
C22   O14   A    
C6    C7    A    
C37   H26   S    
C12   C24   A    
C43   H40   S    
C32   C33   S    
C30   H10   S    
C2    C3    A    
C24   H1    S    
C18   H53   S    
C39   H31   S    
C44   H43   S    
C10   C16   S    
C1    O1    A    
C20   O4    S    
C11   C13   S    
O13   Zn2   S    
C38   H28   S    
C33   C35   S    
C4    O11   A    
C21   H56   S    
C44   H42   S    
C10   C11   A    
C23   O5    S    
C15   C21   S    
C20   C21   S    
C39   O6    S    
C30   H9    S    
C5    O7    S    
C27   C28   A    
C29   H7    S    
C4    O10   A    
C32   O4    S    
C13   C14   S    
C36   O5    S    
C17   H45   S    
C31   O3    S    
