data_mof_unit_46454.cif
_audit_creation_date              2012-12-10T17:40:59-0500
_audit_creation_method            fapswitch 2.2
_symmetry_space_group_name_H-M    P1
_symmetry_Int_Tables_number       1
_space_group_crystal_system       triclinic
_cell_length_a                    15.202523
_cell_length_b                    13.920619
_cell_length_c                    11.634823
_cell_angle_alpha                 89.959621
_cell_angle_beta                  85.237522
_cell_angle_gamma                 90.040987
_cell_volume                      2453.75805468

loop_
_atom_site_label
_atom_site_type_symbol
_atom_type_description
_atom_site_fract_x
_atom_site_fract_y
_atom_site_fract_z
_atom_type_partial_charge
C1    C     C_R   0.328759 0.499644 0.512041 0.874430
C2    C     C_R   0.670946 0.499712 0.487313 0.921001
C3    C     C_R   0.917123 0.483863 0.387777 -0.084947
C4    C     C_R   0.081309 0.494815 0.611954 -0.072717
C5    C     C_R   0.933040 0.519338 0.703672 0.310082
C6    C     C_R   0.065744 0.492088 0.292226 0.321106
C7    C     C_R   0.020262 0.492682 0.711418 -0.134289
C8    C     C_R   0.977142 0.467630 0.289857 -0.122362
C9    C     C_R   0.486616 0.797676 0.601230 0.443826
C10   C     C_R   0.510330 0.202846 0.397704 0.391829
C11   C     C_R   0.514084 0.797468 0.398481 0.386992
C12   C     C_R   0.490429 0.202333 0.602035 0.426910
C13   C     C_R   0.491274 0.897143 0.398485 -0.102205
C14   C     C_R   0.511773 0.102048 0.600890 -0.119805
C15   C     C_R   0.510404 0.897082 0.600711 -0.129605
C16   C     C_R   0.489963 0.102265 0.398315 -0.104564
C17   C     C_R   0.500893 0.948773 0.499560 0.043283
C18   C     C_R   0.500903 0.050875 0.499563 0.040301
C19   C     C_R   0.469443 0.948051 0.299220 -0.032368
C20   C     C_R   0.534829 0.049803 0.699382 -0.033423
C21   C     C_R   0.532785 0.947790 0.699734 -0.029008
C22   C     C_R   0.467523 0.050101 0.299536 -0.033697
C23   C     C_R   0.497060 0.499989 0.284727 0.877578
C24   C     C_R   0.503211 0.499933 0.715236 0.838452
C25   C     C_1   0.496824 0.500036 0.162888 -0.033822
C26   C     C_1   0.503247 0.499862 0.837119 -0.043568
C27   C     C_1   0.498511 0.500017 0.060046 0.097983
C28   C     C_1   0.501439 0.499926 0.939973 0.101716
C29   C     C_R   0.823933 0.492083 0.381027 0.350440
C30   C     C_R   0.174745 0.500883 0.618089 0.360601
C31   C     C_R   0.768001 0.497943 0.485174 -0.210057
C32   C     C_R   0.231218 0.497391 0.513929 -0.182356
C33   C     C_R   0.804186 0.496148 0.592059 -0.112711
C34   C     C_R   0.195206 0.484537 0.407575 -0.108833
C35   C     C_R   0.895781 0.507227 0.597736 -0.011646
C36   C     C_R   0.103395 0.493634 0.399481 -0.016590
C37   C     C_R   0.952843 0.497050 0.495689 -0.011594
C38   C     C_R   0.046190 0.496474 0.502341 -0.014345
Cu1   Cu    Cu3+1 0.500000 0.597420 0.500000 1.113345
Cu2   Cu    Cu3+1 0.500000 0.402580 0.500000 1.075007
N1    N     N_R   0.500000 0.743810 0.500000 -0.278629
N2    N     N_R   0.500000 0.256190 0.500000 -0.282215
O1    O     O_R   0.370260 0.582280 0.500020 -0.507799
O2    O     O_R   0.629740 0.417720 0.499980 -0.584692
O3    O     O_R   0.629740 0.582280 0.499980 -0.539796
O4    O     O_R   0.370260 0.417720 0.500020 -0.579763
O5    O     O_R   0.500010 0.582270 0.337200 -0.538228
O6    O     O_R   0.499990 0.417730 0.662800 -0.562730
O7    O     O_R   0.499990 0.582270 0.662800 -0.527136
O8    O     O_R   0.500010 0.417730 0.337200 -0.516954
S1    S     S_3+6 0.780297 0.505778 0.243480 0.078215
O9    O     O_2   0.839681 0.571547 0.169531 -0.193598
O10   O     O_2   0.775439 0.410315 0.184529 -0.228919
O11   O     O_3   0.679048 0.551813 0.252046 -0.474998
H1    H     H_    0.667582 0.562532 0.170497 0.394518
S2    S     S_3+6 0.218438 0.518959 0.754794 0.005275
O12   O     O_2   0.164599 0.593954 0.821703 -0.227549
O13   O     O_2   0.214464 0.426653 0.821868 -0.266793
O14   O     O_3   0.323144 0.554368 0.744962 -0.535091
H2    H     H_    0.336056 0.561742 0.826480 0.390455
C39   C     C_1   0.747930 0.466086 0.692876 0.341688
N3    N     N_1   0.702882 0.440887 0.772255 -0.215100
C40   C     C_1   0.252521 0.446427 0.312114 0.359419
N4    N     N_1   0.298897 0.415067 0.237530 -0.212033
S3    S     S_3+6 0.878377 0.579243 0.824984 0.068406
O15   O     O_2   0.840627 0.506133 0.910579 -0.240395
O16   O     O_2   0.944233 0.639875 0.881724 -0.169896
O17   O     O_3   0.797506 0.650866 0.783937 -0.526609
H3    H     H_    0.765331 0.672581 0.856810 0.394414
S4    S     S_3+6 0.120894 0.534890 0.160634 0.067244
O18   O     O_2   0.159932 0.451485 0.092178 -0.246772
O19   O     O_2   0.055329 0.584487 0.091028 -0.168354
O20   O     O_3   0.200763 0.613716 0.186898 -0.518038
H4    H     H_    0.233247 0.625492 0.110788 0.395475
C41   C     C_1   0.035024 0.439598 0.814773 0.509750
N5    N     N_1   0.043950 0.396189 0.897842 -0.108291
C42   C     C_1   0.957349 0.404327 0.196940 0.465111
N6    N     N_1   0.943799 0.352403 0.122763 -0.139469
S5    S     S_3+6 0.397198 0.771813 0.704869 0.075036
O21   O     O_2   0.426943 0.710645 0.800479 -0.278530
O22   O     O_2   0.360871 0.863796 0.757595 -0.262597
O23   O     O_3   0.315459 0.719330 0.639394 -0.461366
H5    H     H_    0.260241 0.738359 0.684817 0.402686
S6    S     S_3+6 0.586095 0.238117 0.279944 0.074284
O24   O     O_2   0.633561 0.151257 0.229071 -0.258073
O25   O     O_2   0.538941 0.284789 0.186210 -0.236859
O26   O     O_3   0.662338 0.312876 0.323977 -0.449169
H6    H     H_    0.701383 0.272028 0.367454 0.343317
S7    S     S_3+6 0.602941 0.770389 0.294249 0.075521
O27   O     O_2   0.571837 0.709863 0.198981 -0.264910
O28   O     O_2   0.640770 0.861398 0.240558 -0.250192
O29   O     O_3   0.684850 0.716334 0.357368 -0.429926
H7    H     H_    0.702553 0.762929 0.415514 0.342644
S8    S     S_3+6 0.414928 0.236075 0.720561 0.078414
O30   O     O_2   0.368743 0.148301 0.771198 -0.211810
O31   O     O_2   0.462665 0.282693 0.813962 -0.290411
O32   O     O_3   0.336769 0.309035 0.677816 -0.465713
H8    H     H_    0.346904 0.370139 0.717229 0.397254
C43   C     C_1   0.444595 0.895600 0.199141 0.345487
N7    N     N_1   0.424625 0.853896 0.119291 -0.162454
C44   C     C_1   0.566875 0.099718 0.797011 0.336959
N8    N     N_1   0.592966 0.138840 0.875117 -0.137113
C45   C     C_1   0.557662 0.895112 0.799691 0.333162
N9    N     N_1   0.577649 0.853188 0.879418 -0.167797
C46   C     C_1   0.436000 0.100118 0.201590 0.347475
N10   N     N_1   0.410335 0.139326 0.123230 -0.135814

loop_
_geom_bond_atom_site_label_1
_geom_bond_atom_site_label_2
_ccdc_geom_bond_type
O26   H6    S    
C44   N8    T    
C10   N2    A    
O20   H4    S    
C14   C18   A    
S6    O26   S    
O32   H8    S    
Cu1   N1    S    
C42   N6    T    
Cu2   O4    S    
C6    C8    A    
C35   C37   A    
S6    O25   D    
C1    O4    A    
S2    O12   D    
C6    S4    S    
C9    S5    S    
C3    C29   A    
Cu2   O6    S    
O29   H7    S    
C12   N2    A    
C1    O1    A    
C2    O2    A    
O17   H3    S    
S3    O16   D    
C31   C33   A    
S4    O18   D    
S7    O28   D    
Cu1   O3    S    
Cu2   N2    S    
O14   H2    S    
C12   S8    S    
S8    O30   D    
C4    C7    A    
C5    C7    A    
C2    O3    A    
C23   O5    A    
C13   C19   A    
S1    O9    D    
C24   O6    A    
C14   C20   A    
C19   C22   A    
S6    O24   D    
C5    S3    S    
C3    C8    A    
Cu1   Cu2   S    
S5    O22   D    
C19   C43   S    
C23   O8    A    
C7    C41   S    
C20   C44   S    
S8    O32   S    
C30   S2    S    
C1    C32   S    
S5    O21   D    
C2    C31   S    
S1    O10   D    
C32   C34   A    
C41   N5    T    
C6    C36   A    
C37   C38   A    
C11   S7    S    
C43   N7    T    
C15   C21   A    
S3    O17   S    
S4    O20   S    
C17   C18   A    
S7    O29   S    
S8    O31   D    
C33   C39   S    
Cu1   O7    S    
C12   C14   A    
S3    O15   D    
C8    C42   S    
C45   N9    T    
Cu1   O5    S    
C29   S1    S    
C24   O7    A    
C15   C17   A    
O11   H1    S    
C16   C22   A    
C9    N1    A    
C24   C26   S    
S5    O23   S    
Cu1   O1    S    
C25   C27   T    
C22   C46   S    
C46   N10   T    
C26   C28   T    
S2    O14   S    
C13   C17   A    
S1    O11   S    
C36   C38   A    
C9    C15   A    
C29   C31   A    
C10   C16   A    
C30   C32   A    
C11   C13   A    
Cu2   O8    S    
C5    C35   A    
C10   S6    S    
C34   C40   S    
C33   C35   A    
S2    O13   D    
C11   N1    A    
C34   C36   A    
C23   C25   S    
C39   N3    T    
C40   N4    T    
C21   C45   S    
Cu2   O2    S    
C20   C21   A    
C3    C37   A    
C16   C18   A    
O23   H5    S    
C27   C28   S    
S4    O19   D    
S7    O27   D    
C4    C38   A    
C4    C30   A    
