data_mof_unit_58552.cif
_audit_creation_date              2012-12-10T20:48:17-0500
_audit_creation_method            fapswitch 2.2
_symmetry_space_group_name_H-M    P1
_symmetry_Int_Tables_number       1
_space_group_crystal_system       triclinic
_cell_length_a                    10.718253
_cell_length_b                    8.929236
_cell_length_c                    8.097001
_cell_angle_alpha                 89.993196
_cell_angle_beta                  90.080178
_cell_angle_gamma                 90.012811
_cell_volume                      774.929260132

loop_
_atom_site_label
_atom_site_type_symbol
_atom_type_description
_atom_site_fract_x
_atom_site_fract_y
_atom_site_fract_z
_atom_type_partial_charge
C1    C     C_R   0.500230 0.217963 0.500007 0.939544
C2    C     C_R   0.257092 0.498635 0.500535 0.959432
C3    C     C_R   0.742946 0.497867 0.500872 1.036070
C4    C     C_R   0.499986 0.782019 0.499994 0.924660
C5    C     C_1   0.500151 0.065193 0.500007 -0.139125
C6    C     C_3   0.072818 0.504584 0.688527 0.693445
C7    C     C_3   0.073669 0.347151 0.412180 0.570308
C8    C     C_3   0.927225 0.507161 0.689407 0.603075
C9    C     C_3   0.926364 0.345978 0.416635 0.686871
C10   C     C_1   0.500059 0.934805 0.499990 -0.147007
C11   C     C_3   0.071300 0.632046 0.407740 -0.459749
C12   C     C_3   0.928493 0.631148 0.406571 -0.494718
C13   C     C_3   0.120907 0.492967 0.503534 -0.169455
C14   C     C_3   0.879226 0.493342 0.504727 -0.146935
H1    H     H_    0.105398 0.737756 0.464989 0.241063
H2    H     H_    0.105778 0.632937 0.278125 0.247894
H3    H     H_    0.893050 0.737512 0.460668 0.245770
H4    H     H_    0.895060 0.628769 0.276371 0.242981
N1    N     N_1   0.500000 0.500030 0.073640 -0.010641
N2    N     N_1   0.500000 0.500030 0.926360 -0.009335
O1    O     O_R   0.500000 0.285340 0.636850 -0.611582
O2    O     O_R   0.500000 0.285340 0.363150 -0.615111
O3    O     O_R   0.314790 0.499970 0.636880 -0.557745
O4    O     O_R   0.314790 0.499970 0.363120 -0.604055
O5    O     O_R   0.685210 0.499970 0.636880 -0.594995
O6    O     O_R   0.685210 0.499970 0.363120 -0.605100
O7    O     O_R   0.500000 0.714650 0.636900 -0.609825
O8    O     O_R   0.500000 0.714650 0.363100 -0.632338
Zn1   Zn    Zn3+2 0.500000 0.499990 0.682780 1.061359
Zn2   Zn    Zn3+2 0.500000 0.499990 0.317220 1.035051
O9    O     O_3   0.117937 0.641018 0.754803 -0.729488
H5    H     H_    0.118056 0.632719 0.877174 0.369930
O10   O     O_3   0.114666 0.352258 0.245989 -0.714666
H6    H     H_    0.106716 0.249995 0.198864 0.369160
O11   O     O_3   0.883890 0.645687 0.754070 -0.749157
H7    H     H_    0.902587 0.648798 0.874191 0.346013
O12   O     O_3   0.880571 0.346650 0.252828 -0.723405
H8    H     H_    0.886675 0.243060 0.208859 0.371843
O13   O     O_3   0.121212 0.386792 0.787532 -0.718763
H9    H     H_    0.082133 0.290670 0.756943 0.373335
O14   O     O_3   0.122787 0.216801 0.486997 -0.829602
H10   H     H_    0.212852 0.210477 0.459570 0.341441
O15   O     O_3   0.880694 0.386670 0.785877 -0.799384
H11   H     H_    0.825355 0.424132 0.874872 0.384446
O16   O     O_3   0.876509 0.217354 0.495192 -0.756271
H12   H     H_    0.923387 0.194922 0.597216 0.384763

loop_
_geom_bond_atom_site_label_1
_geom_bond_atom_site_label_2
_ccdc_geom_bond_type
C12   H3    S    
C6    C8    S    
O15   H11   S    
C1    O1    A    
O12   H8    S    
O7    Zn1   S    
C7    O10   S    
O14   H10   S    
O9    H5    S    
C8    O15   S    
C3    O5    A    
C9    C14   S    
N1    N2    T    
C9    O12   S    
C6    O9    S    
C1    O2    A    
O16   H12   S    
C6    C13   S    
C9    O16   S    
C11   C13   S    
C3    C14   S    
O1    Zn1   S    
C1    C5    S    
O3    Zn1   S    
O8    Zn2   S    
C4    O8    A    
C12   C14   S    
O6    Zn2   S    
N2    Zn1   S    
C7    O14   S    
C2    O4    A    
O4    Zn2   S    
C4    C10   S    
O13   H9    S    
C7    C13   S    
C4    O7    A    
O10   H6    S    
O5    Zn1   S    
C11   H2    S    
C12   H4    S    
C2    O3    A    
C7    C9    S    
C2    C13   S    
C6    O13   S    
C8    C14   S    
O2    Zn2   S    
C5    C10   T    
N1    Zn2   S    
C11   H1    S    
C3    O6    A    
O11   H7    S    
C11   C12   S    
C8    O11   S    
