data_mof_unit_16704.cif
_audit_creation_date              2012-12-11T15:41:26-0500
_audit_creation_method            fapswitch 2.2
_symmetry_space_group_name_H-M    P1
_symmetry_Int_Tables_number       1
_space_group_crystal_system       triclinic
_cell_length_a                    19.12821
_cell_length_b                    11.025522
_cell_length_c                    18.750803
_cell_angle_alpha                 89.969783
_cell_angle_beta                  90.164654
_cell_angle_gamma                 90.088965
_cell_volume                      3954.4945929

loop_
_atom_site_label
_atom_site_type_symbol
_atom_type_description
_atom_site_fract_x
_atom_site_fract_y
_atom_site_fract_z
_atom_type_partial_charge
C1    C     C_R   0.709567 0.999599 0.861354 0.565370
C2    C     C_R   0.284060 0.508637 0.046637 0.044706
C3    C     C_R   0.760703 0.860765 0.354150 0.538069
C4    C     C_2   0.499231 0.169795 0.922009 -0.103755
C5    C     C_2   0.504147 0.171614 0.079807 -0.099391
C6    C     C_2   0.998888 0.669713 0.921809 -0.099440
C7    C     C_2   0.003739 0.671351 0.079614 -0.105345
C8    C     C_2   0.501057 0.070143 0.040582 -0.169971
C9    C     C_2   0.509118 0.070510 0.962402 -0.168829
C10   C     C_2   0.999726 0.570094 0.040252 -0.165869
C11   C     C_2   0.008606 0.570421 0.962218 -0.167195
C12   C     C_R   0.776239 0.468232 0.063934 -0.003187
C13   C     C_R   0.197099 0.951889 0.962865 0.087330
C14   C     C_R   0.217444 0.484853 0.937493 0.018078
C15   C     C_R   0.275148 0.967806 0.064289 0.007793
C16   C     C_R   0.722331 0.974929 0.936745 0.002625
C17   C     C_3   0.934304 0.236364 0.368136 0.056947
C18   C     C_3   0.983766 0.288276 0.312017 -0.297838
C19   C     C_3   0.110901 0.165651 0.651049 0.019557
C20   C     C_3   0.045224 0.195234 0.692922 -0.303536
C21   C     C_3   0.424756 0.709928 0.363820 0.055448
C22   C     C_3   0.471925 0.764347 0.306462 -0.301502
C23   C     C_3   0.615263 0.672298 0.650381 0.018487
C24   C     C_R   0.796217 0.987329 0.042910 0.065500
C25   C     C_3   0.557476 0.730107 0.694074 -0.281856
C26   C     C_3   0.570069 0.611124 0.873856 -0.008556
C27   C     C_3   0.492074 0.599675 0.861585 -0.352600
C28   C     C_3   0.452467 0.563230 0.116498 0.027437
C29   C     C_3   0.486789 0.680211 0.089216 -0.430186
C30   C     C_3   0.036705 0.109158 0.918176 -0.009955
C31   C     C_3   0.972436 0.059677 0.880141 -0.336116
C32   C     C_3   0.912804 0.125961 0.139150 -0.009349
C33   C     C_3   0.986146 0.078076 0.152802 -0.345334
C34   C     C_R   0.822106 0.421994 0.946737 -0.169809
C35   C     C_R   0.176492 0.400005 0.049948 -0.164937
C36   C     C_R   0.321068 0.925166 0.946659 -0.175363
C37   C     C_R   0.678716 0.906435 0.050432 -0.170513
C38   C     C_R   0.831930 0.435023 0.019905 -0.157816
C39   C     C_R   0.166945 0.420979 0.976935 -0.159885
C40   C     C_R   0.331356 0.940745 0.019500 -0.171318
C41   C     C_R   0.289354 0.997122 0.138519 0.565982
C42   C     C_R   0.669936 0.920955 0.977609 -0.167464
C43   C     C_3   0.668210 0.595818 0.035266 -0.208425
C44   C     C_3   0.340525 0.596959 0.968393 -0.216135
C45   C     C_3   0.156166 0.071978 0.037127 -0.234830
C46   C     C_3   0.807102 0.140371 0.978323 -0.194262
C47   C     C_3   0.657987 0.580369 0.956074 0.133415
C48   C     C_3   0.350573 0.578643 0.049129 0.153623
C49   C     C_3   0.146828 0.054688 0.957480 0.137234
C50   C     C_3   0.823906 0.113123 0.055153 0.132923
C51   C     C_R   0.754803 0.432629 0.916771 -0.030040
C52   C     C_R   0.208368 0.502409 0.860823 0.569983
C53   C     C_R   0.239794 0.433192 0.084675 0.010253
C54   C     C_R   0.253258 0.928596 0.917819 -0.017808
C55   C     C_R   0.743623 0.931757 0.083079 -0.026739
C56   C     C_R   0.512603 0.170203 0.418438 0.001125
C57   C     C_R   0.527484 0.169300 0.565375 0.012262
C58   C     C_R   0.014666 0.673324 0.418421 0.004222
C59   C     C_R   0.055877 0.676500 0.561423 0.009240
C60   C     C_R   0.526647 0.278276 0.455157 0.005742
C61   C     C_R   0.532011 0.276962 0.527598 0.007634
C62   C     C_R   0.025173 0.782867 0.454488 0.018041
C63   C     C_R   0.789696 0.497313 0.138492 0.562413
C64   C     C_R   0.043542 0.784052 0.524855 0.000544
C65   C     C_R   0.532535 0.059278 0.527696 -0.105234
C66   C     C_R   0.523359 0.059273 0.453698 -0.120276
C67   C     C_R   0.060238 0.567975 0.522219 -0.099430
C68   C     C_R   0.038020 0.565712 0.450743 -0.110160
C69   C     C_R   0.529898 0.177712 0.850744 0.555121
C70   C     C_R   0.470895 0.177981 0.149837 0.553143
C71   C     C_R   0.029869 0.677711 0.850710 0.564084
C72   C     C_R   0.970768 0.677965 0.149759 0.548225
C73   C     C_3   0.486756 0.395440 0.458276 -0.255850
C74   C     C_R   0.710195 0.483430 0.033504 -0.023071
C75   C     C_3   0.492369 0.391470 0.538167 -0.251167
C76   C     C_3   0.975422 0.886003 0.464487 -0.254786
C77   C     C_3   0.995037 0.886517 0.542057 -0.255741
C78   C     C_R   0.757390 0.417192 0.424253 -0.041992
C79   C     C_R   0.246957 0.414076 0.577569 -0.037004
C80   C     C_R   0.256143 0.915158 0.423178 -0.045361
C81   C     C_R   0.745395 0.919550 0.575714 -0.031298
C82   C     C_R   0.816107 0.397711 0.466577 0.063584
C83   C     C_R   0.194747 0.354469 0.540476 0.035631
C84   C     C_R   0.314211 0.886952 0.464258 0.063805
C85   C     C_R   0.273147 0.532769 0.976286 -0.028834
C86   C     C_R   0.693700 0.857680 0.538741 0.046583
C87   C     C_R   0.813607 0.398405 0.539896 0.014189
C88   C     C_R   0.195094 0.348190 0.467121 0.026307
C89   C     C_R   0.312218 0.884945 0.537724 0.019117
C90   C     C_R   0.694141 0.851927 0.465379 0.034165
C91   C     C_R   0.688971 0.431038 0.531678 -0.159078
C92   C     C_R   0.302211 0.462996 0.464871 -0.186065
C93   C     C_R   0.189111 0.931948 0.531073 -0.173073
C94   C     C_R   0.799719 0.971372 0.462640 -0.186398
C95   C     C_R   0.693100 0.435583 0.457258 -0.173761
C96   C     C_R   0.207682 0.971079 0.035233 -0.016371
C97   C     C_R   0.302126 0.466388 0.539511 -0.187195
C98   C     C_R   0.192447 0.935643 0.456657 -0.175754
C99   C     C_R   0.798803 0.977325 0.537234 -0.178851
C100  C     C_3   0.863957 0.291885 0.463265 0.203012
C101  C     C_3   0.174460 0.226024 0.551467 0.184246
C102  C     C_3   0.353731 0.772231 0.457730 0.199384
C103  C     C_3   0.675932 0.727027 0.547823 0.178233
C104  C     C_3   0.868552 0.301506 0.543818 0.162949
C105  C     C_3   0.174814 0.217308 0.470866 0.170526
C106  C     C_3   0.356861 0.773353 0.538218 0.162252
C107  C     C_R   0.783823 0.012684 0.970788 -0.018849
C108  C     C_3   0.674613 0.720699 0.467422 0.172777
C109  C     C_R   0.748703 0.406855 0.573803 -0.036786
C110  C     C_R   0.249746 0.400127 0.427814 -0.022129
C111  C     C_R   0.248455 0.903319 0.572590 -0.042353
C112  C     C_R   0.748368 0.904977 0.426079 -0.021077
C113  C     C_R   0.739562 0.368155 0.850620 0.537683
C114  C     C_R   0.259755 0.368620 0.149727 0.546592
C115  C     C_R   0.239347 0.867500 0.850751 0.545048
C116  C     C_R   0.760469 0.867587 0.149036 0.531565
C117  C     C_R   0.728107 0.955204 0.647804 0.552087
C118  C     C_R   0.699192 0.465359 0.960772 0.074525
C119  C     C_R   0.271508 0.953035 0.351205 0.550789
C120  C     C_R   0.228588 0.453811 0.648544 0.537787
C121  C     C_R   0.771773 0.453344 0.351570 0.549175
C122  C     C_R   0.536472 0.176578 0.641209 0.563294
C123  C     C_R   0.472069 0.176562 0.353602 0.553127
C124  C     C_R   0.064837 0.681184 0.638072 0.575340
C125  C     C_R   0.971687 0.676756 0.354345 0.554388
C126  C     C_R   0.738940 0.360487 0.645663 0.550043
C127  C     C_R   0.261093 0.359156 0.354886 0.539108
C128  C     C_R   0.238700 0.859442 0.645173 0.536404
Cl1   Cl    Cl    0.948340 0.362141 0.577194 -0.558382
Cl2   Cl    Cl    0.091593 0.189641 0.432333 -0.626284
Cl3   Cl    Cl    0.440769 0.802031 0.574532 -0.586712
Cl4   Cl    Cl    0.590542 0.695152 0.429594 -0.606833
Cr1   Cr    Cr6+3 0.769260 0.163750 0.750730 1.008280
Cr2   Cr    Cr6+3 0.385810 0.322400 0.252290 0.995174
Cr3   Cr    Cr6+3 0.114190 0.822400 0.747710 0.997476
Cr4   Cr    Cr6+3 0.885810 0.822400 0.252290 0.983540
Cr5   Cr    Cr6+3 0.230740 0.163750 0.249270 1.026424
Cr6   Cr    Cr6+3 0.269260 0.663750 0.750730 1.009501
Cr7   Cr    Cr6+3 0.730740 0.663750 0.249270 1.026377
Cr8   Cr    Cr6+3 0.612640 0.009910 0.748780 0.990331
Cr9   Cr    Cr6+3 0.387360 0.009910 0.251220 0.987864
Cr10  Cr    Cr6+3 0.112640 0.509910 0.748780 1.006568
Cr11  Cr    Cr6+3 0.887360 0.509910 0.251220 0.982244
Cr12  Cr    Cr6+3 0.614190 0.322400 0.747710 0.988829
H1    H     H_    0.491274 0.983691 0.066277 0.130072
H2    H     H_    0.441683 0.375262 0.565295 0.140508
H3    H     H_    0.992547 0.968401 0.435458 0.173833
H4    H     H_    0.950877 0.859035 0.577044 0.160935
H5    H     H_    0.638510 0.439971 0.556024 0.164834
H6    H     H_    0.344871 0.503860 0.436192 0.117345
H7    H     H_    0.139366 0.945720 0.555815 0.160472
H8    H     H_    0.843275 0.010120 0.433946 0.116654
H9    H     H_    0.646935 0.454627 0.425829 0.177617
H10   H     H_    0.345103 0.508075 0.567671 0.142493
H11   H     H_    0.146365 0.957186 0.425674 0.188952
H12   H     H_    0.523752 0.985890 0.937425 0.135269
H13   H     H_    0.840381 0.023837 0.564911 0.130107
H14   H     H_    0.834688 0.209440 0.446644 0.026032
H15   H     H_    0.216674 0.170517 0.576654 0.044487
H16   H     H_    0.318862 0.699518 0.437009 0.030643
H17   H     H_    0.719412 0.671959 0.570951 0.046859
H18   H     H_    0.851847 0.218198 0.571348 0.108089
H19   H     H_    0.217463 0.160164 0.449675 0.110513
H20   H     H_    0.329520 0.696751 0.562988 0.111540
H21   H     H_    0.716755 0.663565 0.445133 0.110470
H22   H     H_    0.520454 0.256806 0.055951 0.136903
H23   H     H_    0.988960 0.483864 0.065759 0.133932
H24   H     H_    0.479221 0.252960 0.945178 0.135843
H25   H     H_    0.020777 0.756212 0.055859 0.128053
H26   H     H_    0.978579 0.752733 0.944903 0.128760
H27   H     H_    0.866110 0.393265 0.914677 0.142242
H28   H     H_    0.136441 0.348385 0.077211 0.132685
H29   H     H_    0.365652 0.902640 0.913702 0.138696
H30   H     H_    0.636485 0.864042 0.079747 0.141679
H31   H     H_    0.882971 0.418547 0.042120 0.142822
H32   H     H_    0.121702 0.381703 0.951191 0.116033
H33   H     H_    0.383284 0.932490 0.040841 0.127168
H34   H     H_    0.023926 0.485949 0.937474 0.133683
H35   H     H_    0.622199 0.888812 0.953374 0.126524
H36   H     H_    0.181413 0.158899 0.051264 0.123750
H37   H     H_    0.762274 0.203389 0.972614 0.111184
H38   H     H_    0.701058 0.674913 0.049060 0.126765
H39   H     H_    0.334013 0.692217 0.952087 0.124513
H40   H     H_    0.620444 0.583663 0.067836 0.158664
H41   H     H_    0.375920 0.541426 0.935339 0.162305
H42   H     H_    0.109533 0.047532 0.068937 0.150641
H43   H     H_    0.853174 0.162185 0.945124 0.165404
H44   H     H_    0.685223 0.652525 0.924584 0.095825
H45   H     H_    0.920632 0.857076 0.455584 0.159941
H46   H     H_    0.343271 0.663214 0.080965 0.105119
H47   H     H_    0.168270 0.129776 0.923995 0.099390
H48   H     H_    0.792771 0.169389 0.093080 0.106584
H49   H     H_    0.540177 0.974344 0.555290 0.227861
H50   H     H_    0.517952 0.973771 0.425961 0.209681
H51   H     H_    0.074409 0.484121 0.548245 0.222538
H52   H     H_    0.033898 0.479967 0.423633 0.200013
H53   H     H_    0.884221 0.214507 0.340345 0.094037
H54   H     H_    0.955645 0.150002 0.388928 0.160220
H55   H     H_    0.025361 0.344501 0.336273 0.198505
H56   H     H_    0.022121 0.971171 0.558427 0.173237
H57   H     H_    0.009440 0.213563 0.282831 0.083036
H58   H     H_    0.954592 0.344287 0.273046 0.148673
H59   H     H_    0.156768 0.198437 0.682327 0.133791
H60   H     H_    0.114166 0.066044 0.646598 0.134113
H61   H     H_    0.039956 0.294928 0.699163 0.208830
H62   H     H_    0.998516 0.158294 0.665066 0.175593
H63   H     H_    0.048564 0.153424 0.746637 0.053331
H64   H     H_    0.374077 0.688142 0.337126 0.092594
H65   H     H_    0.447892 0.623891 0.383133 0.157045
H66   H     H_    0.514433 0.819641 0.330169 0.206974
H67   H     H_    0.432307 0.384712 0.440389 0.166776
H68   H     H_    0.495275 0.690645 0.274000 0.070232
H69   H     H_    0.441215 0.823280 0.270250 0.156745
H70   H     H_    0.666238 0.695783 0.675977 0.120543
H71   H     H_    0.609138 0.572420 0.652697 0.133273
H72   H     H_    0.547932 0.824744 0.676644 0.237641
H73   H     H_    0.508494 0.676894 0.688374 0.153946
H74   H     H_    0.573247 0.733829 0.750629 0.052869
H75   H     H_    0.598008 0.564854 0.829672 0.157091
H76   H     H_    0.583040 0.709728 0.874029 0.120426
H77   H     H_    0.464824 0.659675 0.899896 0.133698
H78   H     H_    0.523762 0.467015 0.560622 0.186144
H79   H     H_    0.477770 0.628806 0.807001 0.085140
H80   H     H_    0.475552 0.503862 0.868718 0.186432
H81   H     H_    0.495048 0.499310 0.130662 0.173137
H82   H     H_    0.422653 0.581088 0.166338 0.118447
H83   H     H_    0.448894 0.756112 0.088194 0.119410
H84   H     H_    0.530222 0.706730 0.125429 0.094413
H85   H     H_    0.507501 0.666717 0.034660 0.203107
H86   H     H_    0.063317 0.172092 0.880403 0.108248
H87   H     H_    0.020001 0.160596 0.966235 0.154899
H88   H     H_    0.941566 0.001789 0.916972 0.178860
H89   H     H_    0.516262 0.471148 0.433722 0.186964
H90   H     H_    0.939697 0.135935 0.860719 0.086290
H91   H     H_    0.988400 0.004868 0.833333 0.173844
H92   H     H_    0.876016 0.075341 0.173987 0.148404
H93   H     H_    0.910759 0.223423 0.154026 0.141042
H94   H     H_    0.025223 0.148788 0.138971 0.109076
H95   H     H_    0.992362 0.052518 0.209673 0.099970
H96   H     H_    0.995766 0.995958 0.120043 0.200279
O1    O     O_R   0.784290 0.290360 0.830540 -0.534820
O2    O     O_R   0.456020 0.282110 0.333230 -0.533194
O3    O     O_R   0.043980 0.782110 0.666770 -0.531495
O4    O     O_R   0.956020 0.782110 0.333230 -0.526753
O5    O     O_R   0.679070 0.374030 0.674430 -0.531728
O6    O     O_R   0.320930 0.374030 0.325570 -0.523156
O7    O     O_R   0.179070 0.874030 0.674430 -0.546965
O8    O     O_R   0.820930 0.874030 0.325570 -0.520294
O9    O     O_3   0.665360 0.165350 0.749070 -0.265049
O10   O     O_3   0.334640 0.165350 0.250930 -0.264381
O11   O     O_3   0.165360 0.665350 0.749070 -0.296200
O12   O     O_R   0.215710 0.290360 0.169460 -0.545364
O13   O     O_3   0.834640 0.665350 0.250930 -0.260949
O14   O     O_R   0.762610 0.041070 0.825230 -0.497872
O15   O     O_R   0.237390 0.041070 0.174770 -0.498819
O16   O     O_R   0.262610 0.541070 0.825230 -0.498583
O17   O     O_R   0.737390 0.541070 0.174770 -0.499424
O18   O     O_R   0.667390 0.924160 0.829970 -0.544758
O19   O     O_R   0.332610 0.924160 0.170030 -0.544495
O20   O     O_R   0.167390 0.424160 0.829970 -0.540785
O21   O     O_R   0.832610 0.424160 0.170030 -0.551012
O22   O     O_R   0.553980 0.081420 0.821780 -0.514296
O23   O     O_R   0.284290 0.790360 0.830540 -0.534488
O24   O     O_R   0.446020 0.081420 0.178220 -0.523042
O25   O     O_R   0.053980 0.581420 0.821780 -0.515309
O26   O     O_R   0.946020 0.581420 0.178220 -0.522920
O27   O     O_R   0.543210 0.283170 0.826740 -0.503148
O28   O     O_R   0.456790 0.283170 0.173260 -0.506672
O29   O     O_R   0.043210 0.783170 0.826740 -0.489089
O30   O     O_R   0.956790 0.783170 0.173260 -0.517984
O31   O     O_R   0.678350 0.375000 0.822720 -0.496896
O32   O     O_R   0.321650 0.375000 0.177280 -0.474714
O33   O     O_R   0.178350 0.875000 0.822720 -0.473552
O34   O     O_R   0.715710 0.790360 0.169460 -0.538646
O35   O     O_R   0.821650 0.875000 0.177280 -0.502216
O36   O     O_R   0.785060 0.289300 0.670580 -0.504242
O37   O     O_R   0.214940 0.289300 0.329420 -0.485094
O38   O     O_R   0.285060 0.789300 0.670580 -0.493126
O39   O     O_R   0.714940 0.789300 0.329420 -0.484329
O40   O     O_R   0.763330 0.040090 0.676940 -0.502095
O41   O     O_R   0.236670 0.040090 0.323060 -0.486354
O42   O     O_R   0.263330 0.540090 0.676940 -0.503246
O43   O     O_R   0.736670 0.540090 0.323060 -0.487165
O44   O     O_R   0.668160 0.923110 0.670000 -0.517784
O45   O     O_R   0.554690 0.080440 0.673480 -0.504679
O46   O     O_R   0.331840 0.923110 0.330000 -0.495990
O47   O     O_R   0.168160 0.423110 0.670000 -0.513803
O48   O     O_R   0.831840 0.423110 0.330000 -0.499556
O49   O     O_3   0.926122 0.319178 0.425500 -0.465902
O50   O     O_3   0.106908 0.217967 0.582196 -0.464963
O51   O     O_3   0.418282 0.790978 0.422271 -0.466228
O52   O     O_3   0.609183 0.711452 0.578805 -0.468011
O53   O     O_3   0.587223 0.556882 0.939564 -0.548411
O54   O     O_3   0.409813 0.506396 0.064337 -0.528439
O55   O     O_3   0.079861 0.011219 0.938432 -0.530813
O56   O     O_R   0.445310 0.080440 0.326520 -0.497026
O57   O     O_3   0.897022 0.112533 0.066051 -0.565764
O58   O     O_R   0.054690 0.580440 0.673480 -0.467085
O59   O     O_R   0.945310 0.580440 0.326520 -0.489968
O60   O     O_R   0.543980 0.282110 0.666770 -0.528676

loop_
_geom_bond_atom_site_label_1
_geom_bond_atom_site_label_2
_ccdc_geom_bond_type
C120  O47   A    
C78   C82   A    
C35   C53   A    
C64   C77   S    
C19   C20   S    
Cr10  O25   S    
C23   H71   S    
Cr8   O18   S    
C46   H37   S    
Cr7   O39   S    
C13   C54   A    
C104  H18   S    
C123  O56   A    
C94   H8    S    
C82   C87   A    
C81   C117  S    
C100  C104  S    
C51   C118  A    
Cr3   O3    S    
C37   C42   A    
C62   C64   A    
C14   C52   S    
C8    H1    S    
C9    H12   S    
C22   H68   S    
C89   C106  S    
C26   O53   S    
C17   H53   S    
Cr8   O45   S    
C81   C86   A    
C83   C88   A    
Cr11  O48   S    
Cr1   O36   S    
C21   C22   S    
Cr10  O47   S    
C35   H28   S    
C73   C75   S    
C25   H74   S    
C101  O50   S    
C66   H50   S    
C30   O55   S    
C6    C71   S    
C31   H90   S    
C103  H17   S    
C56   C123  S    
C86   C90   A    
C102  H16   S    
C15   C96   A    
C91   H5    S    
C81   C99   A    
C4    H24   S    
C95   H9    S    
C5    C70   S    
Cr12  O60   S    
C3    O39   A    
C3    C112  S    
C71   O29   A    
C79   C120  S    
C72   O26   A    
C24   C107  A    
C97   H10   S    
C70   O28   A    
Cr5   O15   S    
C119  O46   A    
Cr6   O11   S    
C104  Cl1   S    
Cr12  O27   S    
C3    O8    A    
Cr2   O10   S    
C48   O54   S    
C1    O14   A    
C1    O18   A    
C32   H92   S    
C59   C124  S    
C126  O36   A    
Cr10  O11   S    
C79   C97   A    
C2    C53   A    
C69   O27   A    
C5    C8    D    
C57   C61   A    
C27   H79   S    
C56   C66   A    
C22   H66   S    
C49   O55   S    
C18   H57   S    
C43   C47   S    
Cr2   O6    S    
C34   H27   S    
C44   C48   S    
C102  O51   S    
Cr12  O9    S    
C84   C102  S    
C28   O54   S    
Cr5   O10   S    
C38   H31   S    
C119  O41   A    
C70   O24   A    
Cr5   O37   S    
C34   C51   A    
C125  O4    A    
C32   H93   S    
Cr2   O32   S    
C52   O20   A    
Cr3   O29   S    
C33   H94   S    
C59   C67   A    
C19   O50   S    
C16   C107  A    
C44   H41   S    
C57   C122  S    
C80   C119  S    
Cr8   O22   S    
Cr12  O5    S    
Cr6   O38   S    
C20   H61   S    
Cr8   O44   S    
C128  O38   A    
C92   C97   A    
C75   H2    S    
C24   C50   S    
C74   C118  A    
C27   H77   S    
C13   C96   A    
Cr3   O7    S    
Cr4   O13   S    
C7    C72   S    
Cr9   O56   S    
C31   H91   S    
Cr3   O33   S    
C121  O48   A    
C30   H87   S    
C17   C18   S    
Cr7   O34   S    
C127  O6    A    
C5    H22   S    
C44   H39   S    
C99   H13   S    
Cr4   O35   S    
C44   C85   S    
Cr1   O9    S    
Cr5   O12   S    
C124  O58   A    
C6    H26   S    
C83   C101  S    
C26   H75   S    
C128  O7    A    
C73   H89   S    
C73   H67   S    
C113  O31   A    
Cr3   O11   S    
C114  O32   A    
C28   H81   S    
C105  Cl2   S    
C41   O15   A    
C117  O44   A    
C29   H85   S    
C33   H96   S    
C88   C105  S    
C92   C110  A    
C94   C112  A    
C47   O53   S    
C77   H56   S    
C108  Cl4   S    
C36   C54   A    
C10   C11   S    
C91   C95   A    
C40   H33   S    
C37   C55   A    
C109  C126  S    
C36   H29   S    
Cr11  O13   S    
C22   H69   S    
C111  C128  S    
C121  O43   A    
C20   H63   S    
C4    C9    D    
C58   C62   A    
C7    C10   D    
C12   C74   A    
C25   H73   S    
C80   C84   A    
Cr11  O59   S    
C26   C27   S    
C21   H64   S    
C28   C29   S    
C122  O45   A    
C117  O40   A    
C63   O17   A    
C30   C31   S    
C60   C73   S    
Cr4   O8    S    
C2    C85   A    
C41   O19   A    
C78   C121  S    
Cr2   O2    S    
C45   H36   S    
C37   H30   S    
C47   C118  S    
C75   H78   S    
C105  H19   S    
C106  H20   S    
C46   H43   S    
C50   H48   S    
C48   H46   S    
C88   C110  A    
C120  O42   A    
Cr5   O41   S    
C126  O5    A    
Cr9   O10   S    
C62   C76   S    
Cr6   O16   S    
C65   H49   S    
Cr2   O28   S    
C106  Cl3   S    
C67   C68   A    
C15   C41   S    
C2    C48   S    
C56   C60   A    
C60   C61   A    
C116  O35   A    
C35   C39   A    
C100  O49   S    
C45   C49   S    
C42   H35   S    
C114  O12   A    
C54   C115  S    
Cr6   O42   S    
Cr9   O19   S    
C17   H54   S    
C68   H52   S    
C1    C16   S    
C127  O37   A    
C124  O3    A    
C77   H4    S    
C93   C111  A    
C58   C68   A    
C7    H25   S    
C92   H6    S    
Cr11  O21   S    
C93   H7    S    
C6    C11   D    
C53   C114  S    
C46   C50   S    
C98   H11   S    
C80   C98   A    
C57   C65   A    
Cr1   O14   S    
C69   O22   A    
C87   C109  A    
Cr11  O26   S    
C32   C33   S    
C52   O16   A    
C79   C83   A    
C30   H86   S    
C103  O52   S    
Cr7   O17   S    
C19   H60   S    
C21   H65   S    
C122  O60   A    
C15   C40   A    
C90   C108  S    
C87   C104  S    
C100  H14   S    
C101  H15   S    
C55   C116  S    
C23   H70   S    
C108  H21   S    
C90   C112  A    
C61   C75   S    
C24   C55   A    
C27   H80   S    
C51   C113  S    
Cr1   O40   S    
Cr7   O13   S    
C50   O57   S    
C125  O59   A    
C45   H42   S    
C43   H40   S    
C115  O33   A    
C76   H45   S    
Cr1   O1    S    
C76   H3    S    
C8    C9    S    
C103  C108  S    
C21   O51   S    
C78   C95   A    
C4    C69   S    
C110  C127  S    
C43   C74   S    
C71   O25   A    
C31   H88   S    
C72   O30   A    
C67   H51   S    
C86   C103  S    
C63   O21   A    
C19   H59   S    
C101  C105  S    
C14   C39   A    
Cr4   O4    S    
C26   H76   S    
C36   C40   A    
Cr12  O31   S    
C76   C77   S    
C18   H58   S    
C23   O52   S    
C28   H82   S    
C12   C63   S    
C10   H23   S    
C33   H95   S    
Cr10  O58   S    
C46   C107  S    
C11   H34   S    
Cr10  O20   S    
C20   H62   S    
C116  O34   A    
C115  O23   A    
C13   C49   S    
C113  O1    A    
Cr9   O24   S    
C84   C89   A    
C29   H83   S    
C16   C42   A    
Cr9   O46   S    
C34   C38   A    
C82   C100  S    
C25   H72   S    
Cr8   O9    S    
C14   C85   A    
C39   H32   S    
C32   O57   S    
C49   H47   S    
C89   C111  A    
C43   H38   S    
C29   H84   S    
Cr7   O43   S    
C91   C109  A    
C17   O49   S    
C94   C99   A    
C102  C106  S    
C23   C25   S    
C12   C38   A    
C59   C64   A    
Cr6   O23   S    
C58   C125  S    
C65   C66   A    
C18   H55   S    
Cr4   O30   S    
C47   H44   S    
C45   C96   S    
C93   C98   A    
C123  O2    A    
