data_mof_unit_11014.cif
_audit_creation_date              2012-12-10T20:42:38-0500
_audit_creation_method            fapswitch 2.2
_symmetry_space_group_name_H-M    P1
_symmetry_Int_Tables_number       1
_space_group_crystal_system       triclinic
_cell_length_a                    8.893253
_cell_length_b                    10.607896
_cell_length_c                    9.93707
_cell_angle_alpha                 89.421491
_cell_angle_beta                  89.923397
_cell_angle_gamma                 92.594102
_cell_volume                      936.440381712

loop_
_atom_site_label
_atom_site_type_symbol
_atom_type_description
_atom_site_fract_x
_atom_site_fract_y
_atom_site_fract_z
_atom_type_partial_charge
C1    C     C_R   0.512705 0.260702 0.500603 0.884638
C2    C     C_R   0.370896 0.473112 0.928735 0.210944
C3    C     C_3   0.267379 0.362480 0.911291 -0.582441
C4    C     C_R   0.219029 0.500894 0.500168 0.962852
C5    C     C_3   0.269038 0.346552 0.065750 0.359099
C6    C     C_R   0.508915 0.740420 0.499538 0.886110
C7    C     C_R   0.781098 0.501030 0.499996 0.925471
C8    C     C_1   0.065571 0.502043 0.500595 -0.117377
C9    C     C_1   0.934602 0.501941 0.500203 -0.138009
C10   C     C_R   0.579155 0.065884 0.620066 0.095719
C11   C     C_R   0.555640 0.132245 0.500688 -0.099346
C12   C     C_R   0.569787 0.938952 0.377405 -0.185393
C13   C     C_R   0.574790 0.070010 0.378214 -0.197817
C14   C     C_2   0.117027 0.360579 0.132732 0.851737
C15   C     C_3   0.254632 0.125361 0.072282 0.164642
C16   C     C_3   0.328435 0.008337 0.123832 -0.816653
C17   C     C_2   0.340125 0.875614 0.761604 0.951005
C18   C     C_2   0.631779 0.124216 0.857689 0.963836
C19   C     C_2   0.746949 0.624953 0.130827 0.920487
C20   C     C_R   0.546217 0.872631 0.499033 -0.074375
C21   C     C_R   0.568759 0.937082 0.619332 0.080118
C22   C     C_3   0.501188 0.927373 0.757784 -0.309013
C23   C     C_3   0.516100 0.071898 0.759476 -0.320615
C24   C     C_R   0.371306 0.466458 0.069914 0.101541
C25   C     C_R   0.619609 0.551970 0.068997 -0.034043
C26   C     C_R   0.620729 0.546066 0.925884 -0.084094
H1    H     H_    0.577476 0.120632 0.283009 0.211837
H2    H     H_    0.139536 0.123686 0.116251 0.161187
H3    H     H_    0.320080 0.004445 0.235060 0.260415
H4    H     H_    0.268511 0.922763 0.083532 0.238632
H5    H     H_    0.447846 0.009116 0.091051 0.255697
H6    H     H_    0.189895 0.750240 0.845832 0.351403
H7    H     H_    0.681971 0.251808 0.001541 0.347038
H8    H     H_    0.967326 0.679560 0.121792 0.347383
H9    H     H_    0.323031 0.289579 0.853574 0.228909
H10   H     H_    0.569271 0.891303 0.281685 0.208317
H11   H     H_    0.575417 0.879216 0.830177 0.177880
H12   H     H_    0.407427 0.118777 0.761921 0.161956
H13   H     H_    0.717163 0.583148 0.869201 0.182339
H14   H     H_    0.159723 0.390666 0.866087 0.232025
H15   H     H_    0.893307 0.376166 0.112161 0.351235
H16   H     H_    0.244394 0.116412 0.961560 0.144907
N1    N     N_R   0.499010 0.499140 0.142800 -0.129804
N2    N     N_R   0.499010 0.499180 0.857150 -0.081646
O1    O     O_R   0.500020 0.316790 0.614690 -0.623213
O2    O     O_R   0.988474 0.379369 0.055714 -0.796987
O3    O     O_3   0.341480 0.236087 0.108752 -0.564531
O4    O     O_2   0.245814 0.917227 0.685548 -0.624161
O5    O     O_R   0.300070 0.778430 0.852474 -0.813288
O6    O     O_2   0.756013 0.079504 0.865476 -0.614000
O7    O     O_R   0.596743 0.225296 0.938899 -0.776572
O8    O     O_2   0.725619 0.695355 0.224276 -0.612892
O9    O     O_R   0.890238 0.623601 0.072894 -0.803804
O10   O     O_R   0.500000 0.316760 0.385350 -0.580882
O11   O     O_R   0.285350 0.500020 0.614650 -0.620768
O12   O     O_R   0.285340 0.499980 0.385310 -0.585751
O13   O     O_R   0.500000 0.683240 0.614650 -0.619934
O14   O     O_R   0.499980 0.683210 0.385310 -0.586863
O15   O     O_R   0.714660 0.500020 0.614690 -0.625038
O16   O     O_R   0.714650 0.499980 0.385350 -0.603140
O17   O     O_2   0.104468 0.342374 0.253706 -0.610748
Zn1   Zn    Zn3+2 0.500010 0.500020 0.653130 0.988959
Zn2   Zn    Zn3+2 0.499990 0.499980 0.346870 1.024882

loop_
_geom_bond_atom_site_label_1
_geom_bond_atom_site_label_2
_ccdc_geom_bond_type
C3    H14   S    
H15   O2    S    
C15   O3    S    
C10   C23   S    
H7    O7    S    
C23   H12   S    
C6    C20   S    
O1    Zn1   S    
C19   O9    S    
C17   C22   S    
C1    C11   S    
C17   O4    D    
C3    H9    S    
C1    O10   A    
C12   C20   A    
C2    C3    S    
C15   H2    S    
O12   Zn2   S    
N1    Zn2   S    
O13   Zn1   S    
C4    O11   A    
C25   C26   A    
C21   C22   S    
C4    O12   A    
C16   H5    S    
C11   C13   A    
C6    O13   A    
C1    O1    A    
C5    C14   S    
C5    C24   S    
O16   Zn2   S    
C7    O15   A    
C25   N1    A    
C5    O3    S    
C18   O7    S    
C10   C21   A    
C2    C24   A    
C19   C25   S    
H6    O5    S    
C26   H13   S    
C12   H10   S    
C10   C11   A    
C26   N2    A    
C18   C23   S    
O11   Zn1   S    
C3    C5    S    
C7    O16   A    
O14   Zn2   S    
C12   C13   A    
C18   O6    D    
H8    O9    S    
C20   C21   A    
O10   Zn2   S    
C17   O5    S    
C4    C8    S    
C7    C9    S    
C24   N1    A    
C6    O14   A    
C22   C23   S    
C13   H1    S    
O15   Zn1   S    
N2    Zn1   S    
C16   H3    S    
C14   O17   D    
C22   H11   S    
C16   H4    S    
C19   O8    D    
C15   C16   S    
C15   H16   S    
C2    N2    A    
C8    C9    T    
C14   O2    S    
