data_mof_unit_13017.cif
_audit_creation_date              2013-03-05T15:59:21-0500
_audit_creation_method            fapswitch 2.2
_symmetry_space_group_name_H-M    P1
_symmetry_Int_Tables_number       1
_space_group_crystal_system       triclinic
_cell_length_a                    10.504877
_cell_length_b                    12.659766
_cell_length_c                    13.097095
_cell_angle_alpha                 82.008002
_cell_angle_beta                  90.988108
_cell_angle_gamma                 101.972276
_cell_volume                      1687.21650181

loop_
_atom_site_label
_atom_site_type_symbol
_atom_site_description
_atom_site_fract_x
_atom_site_fract_y
_atom_site_fract_z
_atom_type_partial_charge
O1    O     O_R   0.467970 0.366730 0.627150 -0.649774
O2    O     O_R   0.510820 0.544830 0.662520 -0.617974
C1    C     C_R   0.478983 0.438861 0.691063 0.888494
O3    O     O_R   0.664630 0.410960 0.482340 -0.612043
O4    O     O_R   0.707470 0.589060 0.517710 -0.601705
C2    C     C_R   0.741866 0.500309 0.499847 0.931399
Zn1   Zn    Zn3+2 0.471390 0.381080 0.476380 0.965818
Zn2   Zn    Zn3+2 0.528610 0.618920 0.523620 0.959038
O5    O     O_R   0.489180 0.455170 0.337480 -0.614450
O6    O     O_R   0.532030 0.633270 0.372850 -0.584660
O7    O     O_R   0.292530 0.410940 0.482290 -0.604555
O8    O     O_R   0.335370 0.589040 0.517660 -0.665389
C3    C     C_R   0.512457 0.561187 0.308194 0.939213
C4    C     C_R   0.258232 0.499771 0.500053 0.914939
C5    C     C_3   0.933700 0.401818 0.478962 -0.217971
C6    C     C_3   0.023456 0.419969 0.573159 -0.299627
H1    H     H_    0.046529 0.356581 0.633925 0.171894
H2    H     H_    0.877078 0.322637 0.460415 0.223234
C7    C     C_3   0.123347 0.500244 0.500589 -0.142592
C8    C     C_3   0.035264 0.482846 0.408810 0.369553
C9    C     C_3   0.976732 0.580502 0.426007 -0.295373
C10   C     C_3   0.066559 0.598702 0.520167 -0.245736
C11   C     C_3   0.965141 0.517757 0.590484 0.498615
C12   C     C_3   0.876975 0.500234 0.498690 -0.069085
H3    H     H_    0.953799 0.643965 0.365255 0.177942
H4    H     H_    0.123150 0.677829 0.538895 0.172161
C13   C     C_R   0.409892 0.708018 0.059134 0.341349
H5    H     H_    0.325524 0.707201 0.860297 0.156528
C14   C     C_R   0.498473 0.596736 0.197866 -0.148654
C15   C     C_R   0.482424 0.297112 0.840465 -0.309634
C16   C     C_R   0.482486 0.264958 0.947095 0.513404
C17   C     C_R   0.466756 0.338961 0.012947 -0.180322
C18   C     C_R   0.444980 0.443844 0.973603 0.044679
C19   C     C_R   0.422024 0.466871 0.867757 0.077785
C20   C     C_R   0.447748 0.527430 0.035516 0.081878
C21   C     C_R   0.404092 0.624131 0.996441 0.021241
C22   C     C_R   0.360443 0.635974 0.894572 -0.193674
C23   C     C_R   0.368439 0.558214 0.831559 -0.177149
C24   C     C_R   0.500388 0.518984 0.133467 -0.328112
C25   C     C_R   0.461390 0.695259 0.159516 0.455382
C26   C     C_R   0.456257 0.399088 0.800710 -0.149998
H6    H     H_    0.543897 0.450801 0.162323 0.187279
H7    H     H_    0.505568 0.243663 0.788884 0.153460
H8    H     H_    0.468718 0.311295 0.094641 0.167555
H9    H     H_    0.332246 0.570741 0.753920 0.159603
C27   C     C_R   0.304872 0.086209 0.357141 -0.261537
H10   H     H_    0.282940 0.252343 0.342097 0.190769
H11   H     H_    0.271979 0.879933 0.326611 0.177505
H12   H     H_    0.229332 0.063743 0.302059 0.176455
N1    N     N_R   0.432930 0.222190 0.444670 -0.149805
C28   C     C_R   0.648644 0.795637 0.634281 0.039539
C29   C     C_R   0.667516 0.894200 0.672584 -0.267449
C30   C     C_R   0.605266 0.974783 0.625964 -0.114000
C31   C     C_R   0.528227 0.958953 0.537243 0.038685
C32   C     C_R   0.504005 0.853921 0.506937 0.189501
C33   C     C_R   0.468854 0.040231 0.481024 -0.036206
C34   C     C_R   0.371953 0.009821 0.407439 0.094576
C35   C     C_R   0.344316 0.903794 0.383702 -0.229530
C36   C     C_R   0.412598 0.828085 0.430602 -0.130661
C37   C     C_R   0.502683 0.151088 0.493262 0.499158
C38   C     C_R   0.335381 0.192535 0.378822 -0.044916
N2    N     N_R   0.566370 0.776980 0.554790 -0.138784
H13   H     H_    0.694439 0.731447 0.671147 0.167323
H14   H     H_    0.613860 0.045410 0.664780 0.192296
H15   H     H_    0.727230 0.907088 0.739739 0.167911
H16   H     H_    0.391167 0.749184 0.406567 0.245534
O9    O     O_3   0.503558 0.164037 0.989289 -0.736788
H17   H     H_    0.512840 0.121512 0.932700 0.340211
O10   O     O_3   0.613100 0.189877 0.545123 -0.794317
H18   H     H_    0.591317 0.242406 0.587235 0.364905
N3    N     N_R   0.079883 0.464763 0.309246 0.209056
O11   O     O_R   0.032627 0.374428 0.272778 -0.386998
O12   O     O_R   0.167462 0.539066 0.256485 -0.422454
O13   O     O_3   0.921906 0.536163 0.685522 -0.761004
H19   H     H_    0.000141 0.545070 0.729457 0.329455
O14   O     O_3   0.472655 0.775576 0.222383 -0.764711
H20   H     H_    0.445810 0.840862 0.185166 0.387898
O15   O     O_3   0.366145 0.802263 0.025152 -0.775281
H21   H     H_    0.282954 0.782050 0.989047 0.339696

loop_
_geom_bond_atom_site_label_1
_geom_bond_atom_site_label_2
_geom_bond_distance
_ccdc_geom_bond_type
C5    H2    1.110407 S    
C32   C36   1.398580 A    
C7    C8    1.516677 S    
C13   O15   1.380424 S    
C30   C31   1.417861 A    
Zn1   O7    1.996746 S    
C19   C26   1.408979 A    
C27   H12   1.083839 S    
C37   O10   1.370099 S    
C3    C14   1.466748 S    
C21   C22   1.401641 A    
C36   H16   1.067342 S    
O4    C2    1.300822 A    
C30   H14   1.075815 S    
C5    C6    1.553275 S    
C32   N2    1.360741 A    
C33   C34   1.421255 A    
O5    C3    1.316129 A    
C23   H9    1.081907 S    
C18   C20   1.415326 A    
C20   C21   1.421805 A    
C6    H1    1.110207 S    
C11   C12   1.517530 S    
C15   C26   1.403099 A    
C19   C23   1.409691 A    
C9    C10   1.553394 S    
C28   N2    1.356214 A    
O3    Zn1   1.988491 S    
C24   H6    1.078800 S    
C5    C8    1.533757 S    
C31   C33   1.424662 A    
O13   H19   0.991234 S    
C27   C38   1.385429 A    
C28   C29   1.384163 A    
C7    C10   1.542041 S    
C28   H13   1.081672 S    
O14   H20   0.990030 S    
O3    C2    1.294330 A    
N3    O12   1.300344 A    
O15   H21   0.989668 S    
C35   C36   1.384489 A    
O9    H17   0.991908 S    
O1    C1    1.308945 A    
C20   C24   1.387405 A    
C22   C23   1.385586 A    
C16   C17   1.393810 A    
C13   C25   1.414165 A    
Zn2   O8    1.988493 S    
C2    C12   1.419844 S    
C14   C24   1.385766 A    
C18   C19   1.403630 A    
C17   H8    1.079791 S    
C8    N3    1.456409 S    
C5    C12   1.541760 S    
O8    C4    1.293471 A    
C6    C11   1.535208 S    
C27   C34   1.398318 A    
C15   H7    1.083691 S    
C11   O13   1.397843 S    
C29   C30   1.389589 A    
Zn1   O5    1.920589 S    
C9    H3    1.110208 S    
C31   C32   1.411828 A    
C1    C26   1.460707 S    
O1    Zn1   1.957936 S    
C4    C7    1.418351 S    
O2    Zn2   1.920588 S    
Zn1   N1    2.066695 S    
O6    C3    1.312692 A    
H10   C38   1.082012 S    
O4    Zn2   1.996743 S    
H11   C35   1.084327 S    
C13   C21   1.421138 A    
N1    C37   1.360310 A    
C17   C18   1.418643 A    
O2    C1    1.315315 A    
N3    O11   1.300235 A    
C34   C35   1.390645 A    
C15   C16   1.399302 A    
H5    C22   1.080814 S    
C6    C7    1.536440 S    
C14   C25   1.407254 A    
O7    C4    1.300907 A    
O10   H18   0.984005 S    
C16   O9    1.379681 S    
C25   O14   1.380339 S    
C33   C37   1.405437 A    
C8    C9    1.534546 S    
Zn2   O6    1.957939 S    
C10   H4    1.110531 S    
C9    C12   1.536423 S    
N1    C38   1.354523 A    
C10   C11   1.533541 S    
C29   H15   1.082642 S    
Zn2   N2    2.054331 S    
