data_mof_unit_30742.cif
_audit_creation_date              2012-12-10T17:14:36-0500
_audit_creation_method            fapswitch 2.2
_symmetry_space_group_name_H-M    P1
_symmetry_Int_Tables_number       1
_space_group_crystal_system       triclinic
_cell_length_a                    25.870815
_cell_length_b                    25.972596
_cell_length_c                    22.164457
_cell_angle_alpha                 90.116205
_cell_angle_beta                  125.738466
_cell_angle_gamma                 89.841454
_cell_volume                      12088.4853412

loop_
_atom_site_label
_atom_site_type_symbol
_atom_type_description
_atom_site_fract_x
_atom_site_fract_y
_atom_site_fract_z
_atom_type_partial_charge
C1    C     C_R   0.650234 0.749948 0.300586 0.812962
C2    C     C_R   0.797223 0.473613 0.558878 -0.213596
C3    C     C_R   0.056487 0.733681 0.559715 0.335840
C4    C     C_R   0.504373 0.740815 0.562948 0.335322
C5    C     C_R   0.498357 0.278762 0.552997 0.384728
C6    C     C_R   0.004643 0.240682 0.563465 0.331307
C7    C     C_R   0.001223 0.724372 0.555023 0.413949
C8    C     C_R   0.444518 0.751795 0.496947 -0.228042
C9    C     C_R   0.445519 0.249683 0.499054 -0.222655
C10   C     C_R   0.944779 0.251519 0.497401 -0.227932
C11   C     C_R   0.941976 0.740679 0.491347 -0.260968
C12   C     C_R   0.858568 0.946254 0.521802 -0.118734
C13   C     C_R   0.288024 0.026911 0.497463 -0.205008
C14   C     C_R   0.858615 0.053519 0.522101 -0.132882
C15   C     C_R   0.355583 0.446030 0.514232 -0.114367
C16   C     C_R   0.355290 0.553201 0.513001 -0.131375
C17   C     C_R   0.908915 0.973081 0.530043 -0.130494
C18   C     C_R   0.908979 0.026548 0.530290 -0.153364
C19   C     C_R   0.404007 0.472658 0.517918 -0.126165
C20   C     C_R   0.403880 0.526087 0.517341 -0.157587
C21   C     C_R   0.806133 0.027236 0.511926 0.036872
C22   C     C_R   0.806175 0.972705 0.511999 0.023919
C23   C     C_R   0.304591 0.527122 0.507454 0.042197
C24   C     C_R   0.288488 0.973853 0.496619 -0.227212
C25   C     C_R   0.304720 0.472606 0.508052 0.018696
C26   C     C_R   0.755649 0.946202 0.506321 -0.256073
C27   C     C_R   0.754436 0.053908 0.503508 -0.244975
C28   C     C_R   0.256470 0.446278 0.507467 -0.262332
C29   C     C_R   0.255428 0.553941 0.504711 -0.252361
C30   C     C_R   0.709098 0.973358 0.507528 0.351288
C31   C     C_R   0.705265 0.027005 0.498808 0.325371
C32   C     C_R   0.214320 0.473681 0.516676 0.366737
C33   C     C_R   0.210455 0.527262 0.508983 0.320069
C34   C     C_R   0.609667 0.750379 0.499478 0.899071
C35   C     C_3   0.491476 0.207451 0.025942 -0.278103
C36   C     C_R   0.610869 0.251244 0.501833 0.827326
C37   C     C_R   0.109817 0.250193 0.499760 0.923319
C38   C     C_R   0.109432 0.749437 0.499143 0.871069
C39   C     C_R   0.751482 0.890115 0.501527 0.886184
C40   C     C_R   0.751050 0.109933 0.500762 0.871337
C41   C     C_R   0.251451 0.390165 0.501590 0.872436
C42   C     C_R   0.251706 0.609958 0.501362 0.854822
C43   C     C_R   0.750693 0.609884 0.497982 0.856005
C44   C     C_R   0.748640 0.390454 0.500875 0.789312
C45   C     C_R   0.248623 0.109901 0.503246 0.864409
C46   C     C_3   0.539886 0.789528 0.024683 -0.320746
C47   C     C_R   0.249858 0.890146 0.501446 0.886091
C48   C     C_R   0.667133 0.549492 0.358256 0.507379
C49   C     C_R   0.629943 0.456039 0.384587 0.531343
C50   C     C_R   0.155789 0.050212 0.521362 0.485728
C51   C     C_R   0.182561 0.944410 0.556062 0.500993
C52   C     C_R   0.610537 0.526046 0.301691 -0.293300
C53   C     C_R   0.590612 0.481012 0.315970 -0.328164
C54   C     C_R   0.128728 0.022497 0.550560 -0.313229
C55   C     C_R   0.140455 0.970783 0.565845 -0.330518
C56   C     C_R   0.692508 0.475357 0.438767 -0.079714
C57   C     C_3   0.013844 0.700373 0.024242 -0.275179
C58   C     C_R   0.704053 0.526938 0.430340 -0.104320
C59   C     C_R   0.210999 0.971487 0.526214 -0.050414
C60   C     C_R   0.203446 0.026223 0.516735 -0.075081
C61   C     C_3   0.637632 0.763676 0.686631 0.148580
C62   C     C_3   0.709197 0.773212 0.729893 -0.317902
C63   C     C_3   0.735659 0.799907 0.803854 -1.028245
C64   C     C_3   0.660163 0.276293 0.661091 0.085061
C65   C     C_3   0.689023 0.292136 0.741483 -0.378970
C66   C     C_3   0.757112 0.272387 0.794788 -0.938134
C67   C     C_3   0.137626 0.265337 0.686631 0.149076
C68   C     C_3   0.001844 0.298077 0.024701 -0.330905
C69   C     C_3   0.210012 0.271428 0.734413 -0.324255
C70   C     C_3   0.234477 0.300721 0.806139 -1.013863
C71   C     C_3   0.149108 0.699328 0.665262 0.181795
C72   C     C_3   0.164170 0.695941 0.743013 -0.369649
C73   C     C_3   0.201870 0.647250 0.783313 -0.996041
C74   C     C_3   0.504944 0.676137 0.632509 0.074329
C75   C     C_3   0.505767 0.664760 0.700688 -0.317906
C76   C     C_3   0.500047 0.607197 0.709217 -0.981258
C77   C     C_3   0.523595 0.299617 0.668543 0.115625
C78   C     C_3   0.484244 0.315094 0.696864 -0.333104
C79   C     C_3   0.945275 0.723513 0.975078 -0.260539
C80   C     C_3   0.518953 0.302170 0.779117 -1.002659
C81   C     C_3   0.007287 0.175994 0.634367 0.074714
C82   C     C_3   0.011074 0.164500 0.704456 -0.322212
C83   C     C_3   0.008423 0.106782 0.715001 -0.988326
C84   C     C_3   0.010271 0.645873 0.607644 0.060606
C85   C     C_3   0.946532 0.618846 0.574917 -0.276564
C86   C     C_3   0.953200 0.560513 0.573732 -1.012224
C87   C     C_3   0.663867 0.958377 0.570479 0.122316
C88   C     C_3   0.706791 0.920568 0.633788 -0.326103
C89   C     C_3   0.706937 0.931662 0.701495 -1.013377
C90   C     C_3   0.940618 0.264801 0.974774 -0.248395
C91   C     C_3   0.600157 0.047217 0.413511 0.104441
C92   C     C_3   0.539956 0.054141 0.410325 -0.303890
C93   C     C_3   0.480123 0.043524 0.332486 -0.990546
C94   C     C_3   0.184792 0.458318 0.595697 0.131802
C95   C     C_3   0.228919 0.417668 0.653403 -0.324792
C96   C     C_3   0.241120 0.428293 0.728469 -1.017806
C97   C     C_3   0.109687 0.560639 0.440636 0.118934
C98   C     C_3   0.063089 0.592959 0.446255 -0.337253
C99   C     C_3   0.001711 0.604083 0.369956 -0.986487
C100  C     C_3   0.737010 0.580034 0.336330 0.052446
C101  C     C_3   0.438402 0.247926 0.976161 -0.258664
C102  C     C_3   0.762884 0.628642 0.324070 -0.307964
C103  C     C_3   0.818969 0.615813 0.321010 -0.995679
C104  C     C_3   0.577098 0.437308 0.436634 0.077007
C105  C     C_3   0.615688 0.417840 0.516912 -0.320842
C106  C     C_3   0.583131 0.431063 0.554343 -0.896435
C107  C     C_3   0.070036 0.104726 0.444201 0.115066
C108  C     C_3   0.055948 0.108042 0.366883 -0.302624
C109  C     C_3   0.984604 0.113054 0.306382 -0.963848
C110  C     C_3   0.203381 0.880978 0.642446 0.035290
C111  C     C_3   0.245576 0.833741 0.678840 -0.270357
C112  C     C_R   0.650471 0.250250 0.300485 0.805301
C113  C     C_3   0.465658 0.793127 0.973586 -0.251951
C114  C     C_3   0.253276 0.819702 0.750572 -0.981995
C115  C     C_3   0.421357 0.362087 0.995512 0.085559
C116  C     C_3   0.413878 0.411711 0.026838 -0.313460
C117  C     C_3   0.358077 0.443884 0.965684 -0.978161
C118  C     C_3   0.361039 0.760286 0.991430 0.086847
C119  C     C_3   0.321110 0.759644 0.021840 -0.312269
C120  C     C_3   0.250012 0.760904 0.958926 -0.983926
C121  C     C_3   0.878763 0.809417 0.002591 0.078776
C122  C     C_3   0.851306 0.836424 0.039422 -0.304574
C123  C     C_3   0.782058 0.852235 0.982428 -0.976294
C124  C     C_1   0.889144 0.750177 0.778841 -0.155339
C125  C     C_3   0.896962 0.160732 0.997671 0.085186
C126  C     C_3   0.843631 0.181307 0.001751 -0.338647
C127  C     C_3   0.779527 0.157558 0.941530 -0.967734
C128  C     C_3   0.629711 0.274520 0.992633 0.082198
C129  C     C_3   0.696174 0.263384 0.013186 -0.303104
C130  C     C_3   0.703328 0.283513 0.953724 -1.011380
C131  C     C_3   0.551629 0.621942 0.003662 0.099165
C132  C     C_3   0.520340 0.578919 0.018901 -0.341457
C133  C     C_3   0.497775 0.535116 0.962866 -0.977850
C134  C     C_3   0.109917 0.832861 0.005239 0.087267
C135  C     C_1   0.889787 0.249688 0.778637 -0.157011
C136  C     C_3   0.176758 0.853612 0.038824 -0.315128
C137  C     C_3   0.178249 0.887544 0.983746 -0.981324
C138  C     C_3   0.128400 0.206254 0.997480 0.105917
C139  C     C_3   0.142740 0.148553 0.004413 -0.345814
C140  C     C_3   0.151550 0.130406 0.945417 -0.976212
C141  C     C_1   0.388274 0.249527 0.778468 -0.147483
C142  C     C_1   0.390471 0.748674 0.778585 -0.149113
C143  C     C_1   0.611695 0.251184 0.221072 -0.124402
C144  C     C_1   0.610099 0.749957 0.221226 -0.126971
C145  C     C_1   0.110518 0.749680 0.221314 -0.125619
C146  C     C_1   0.110761 0.249814 0.221269 -0.125367
C147  C     C_3   0.029676 0.727800 0.975356 0.100211
C148  C     C_R   0.150315 0.249936 0.300601 0.813547
C149  C     C_3   0.023366 0.282223 0.975506 0.080693
C150  C     C_3   0.513668 0.211001 0.974971 0.105503
C151  C     C_3   0.536156 0.744734 0.976609 0.088990
C152  C     C_3   0.962355 0.750756 0.926674 0.062890
C153  C     C_3   0.963493 0.249346 0.926316 0.065261
C154  C     C_3   0.461770 0.250779 0.925910 0.064746
C155  C     C_3   0.463303 0.747959 0.926219 0.063729
C156  C     C_3   0.560027 0.254401 0.021950 0.453529
C157  C     C_3   0.532758 0.705300 0.025212 0.498823
C158  C     C_3   0.052765 0.775728 0.024758 0.448464
C159  C     C_R   0.150260 0.749970 0.300574 0.803025
C160  C     C_3   0.058673 0.235229 0.024196 0.498149
C161  C     C_3   0.538142 0.251698 0.073121 0.040435
C162  C     C_3   0.535791 0.749465 0.073357 0.046492
C163  C     C_3   0.036702 0.749074 0.073591 0.051534
C164  C     C_3   0.037207 0.250167 0.073458 0.043604
C165  C     C_R   0.849664 0.749992 0.699483 0.827719
C166  C     C_R   0.849788 0.249932 0.699369 0.803071
C167  C     C_R   0.349378 0.249777 0.699355 0.827416
C168  C     C_R   0.350378 0.749290 0.699345 0.800940
C169  C     C_3   0.985285 0.799945 0.976268 -0.418913
C170  C     C_R   0.752309 0.553897 0.494162 -0.058746
C171  C     C_3   0.998936 0.201163 0.975141 -0.405143
C172  C     C_3   0.508345 0.295374 0.972771 -0.426067
C173  C     C_3   0.459055 0.707569 0.974816 -0.412475
C174  C     C_3   0.485864 0.291506 0.023748 0.515812
C175  C     C_3   0.462737 0.752797 0.022742 0.507450
C176  C     C_3   0.969398 0.771957 0.025098 0.509128
C177  C     C_3   0.977066 0.217473 0.024105 0.520571
C178  C     C_1   0.922166 0.750515 0.845599 -0.022747
C179  C     C_1   0.923214 0.249544 0.845345 -0.020815
C180  C     C_1   0.421133 0.249825 0.845087 -0.029518
C181  C     C_R   0.744476 0.446978 0.500206 -0.062312
C182  C     C_1   0.423691 0.748158 0.845274 -0.023170
C183  C     C_1   0.578889 0.251805 0.154277 0.038319
C184  C     C_1   0.576249 0.749766 0.154461 0.037225
C185  C     C_1   0.077172 0.749323 0.154611 0.044474
C186  C     C_1   0.077555 0.249858 0.154523 0.037980
C187  C     C_R   0.485970 0.775675 0.364286 -0.145948
C188  C     C_R   0.497569 0.199031 0.385469 -0.160017
C189  C     C_R   0.986150 0.274966 0.364613 -0.165062
C190  C     C_R   0.982734 0.748097 0.355917 -0.142114
C191  C     C_R   0.426573 0.787180 0.299188 -0.175507
C192  C     C_R   0.245457 0.053681 0.505387 -0.046756
C193  C     C_R   0.442858 0.173590 0.328852 -0.180301
C194  C     C_R   0.926907 0.287212 0.299850 -0.180253
C195  C     C_R   0.922820 0.752794 0.288742 -0.178201
C196  C     C_R   0.372253 0.787496 0.298637 0.161411
C197  C     C_R   0.389403 0.170738 0.329885 0.173751
C198  C     C_R   0.872770 0.288277 0.299640 0.164838
C199  C     C_R   0.868354 0.755153 0.287625 0.150697
C200  C     C_R   0.378076 0.775969 0.363961 -0.132872
C201  C     C_R   0.390680 0.195015 0.387087 -0.132192
C202  C     C_R   0.878504 0.276228 0.364739 -0.131790
C203  C     C_R   0.249466 0.945938 0.508719 -0.033513
C204  C     C_R   0.874511 0.752012 0.354475 -0.135352
C205  C     C_R   0.437828 0.763263 0.430346 -0.011086
C206  C     C_R   0.445067 0.222420 0.443703 -0.021144
C207  C     C_R   0.938130 0.262972 0.430857 -0.009011
C208  C     C_R   0.935046 0.748035 0.423620 -0.008119
C209  C     C_R   0.492501 0.763143 0.430530 0.019217
C210  C     C_R   0.499559 0.223832 0.443658 0.045696
C211  C     C_R   0.992731 0.262588 0.430932 0.012109
C212  C     C_R   0.990178 0.747253 0.424501 0.029676
C213  C     C_R   0.888679 0.747455 0.497079 0.844878
C214  C     C_R   0.799158 0.526817 0.557797 -0.233383
C215  C     C_R   0.889679 0.250392 0.499336 0.863328
C216  C     C_R   0.389994 0.250076 0.500054 0.877146
C217  C     C_R   0.389510 0.750590 0.499033 0.858323
C218  C     C_R   0.552520 0.751943 0.497416 -0.224042
C219  C     C_R   0.554458 0.250281 0.501315 -0.233121
C220  C     C_R   0.052779 0.251620 0.497875 -0.246768
C221  C     C_R   0.050977 0.744796 0.494048 -0.252817
C222  C     C_R   0.559014 0.742743 0.563939 0.343915
C223  C     C_R   0.554614 0.276875 0.557417 0.338787
C224  C     C_R   0.059372 0.242808 0.564573 0.342987
H1    H     H_    0.837724 0.546779 0.606591 0.173320
H2    H     H_    0.442446 0.155821 0.284378 0.135815
H3    H     H_    0.928841 0.628340 0.608792 0.263852
H4    H     H_    0.911282 0.631967 0.516832 0.215793
H5    H     H_    0.971211 0.550013 0.540475 0.265125
H6    H     H_    0.905984 0.542196 0.547955 0.278174
H7    H     H_    0.986443 0.545522 0.631188 0.269893
H8    H     H_    0.614582 0.954612 0.554519 0.152616
H9    H     H_    0.679162 0.998439 0.591280 0.167326
H10   H     H_    0.689676 0.880611 0.614625 0.259635
H11   H     H_    0.756355 0.923816 0.650460 0.225972
H12   H     H_    0.722303 0.971877 0.720812 0.271026
H13   H     H_    0.923519 0.296579 0.250057 0.132535
H14   H     H_    0.740819 0.905224 0.747328 0.278315
H15   H     H_    0.658649 0.925643 0.687738 0.269519
H16   H     H_    0.597955 0.008516 0.390076 0.159309
H17   H     H_    0.601207 0.076981 0.378216 0.123714
H18   H     H_    0.541247 0.027160 0.450055 0.225072
H19   H     H_    0.538237 0.094040 0.427161 0.228647
H20   H     H_    0.478984 0.068311 0.290973 0.257101
H21   H     H_    0.437242 0.051681 0.331012 0.266131
H22   H     H_    0.478918 0.002505 0.317427 0.271561
H23   H     H_    0.138577 0.457444 0.588560 0.156337
H24   H     H_    0.918937 0.753626 0.237376 0.137827
H25   H     H_    0.205528 0.497105 0.618216 0.163527
H26   H     H_    0.207016 0.378959 0.633680 0.258472
H27   H     H_    0.275352 0.417959 0.661024 0.226066
H28   H     H_    0.262688 0.466972 0.749320 0.271135
H29   H     H_    0.274703 0.399069 0.769410 0.280554
H30   H     H_    0.195869 0.426259 0.723446 0.268770
H31   H     H_    0.087520 0.522634 0.415479 0.156666
H32   H     H_    0.119629 0.581173 0.404317 0.116089
H33   H     H_    0.051353 0.572162 0.480608 0.215808
H34   H     H_    0.085878 0.630095 0.474122 0.229688
H35   H     H_    0.335313 0.777629 0.361942 0.139637
H36   H     H_    0.012164 0.626298 0.335479 0.261767
H37   H     H_    0.969161 0.627229 0.376608 0.274800
H38   H     H_    0.977525 0.567543 0.341185 0.270835
H39   H     H_    0.719440 0.553373 0.288593 0.145671
H40   H     H_    0.777002 0.561230 0.388293 0.135452
H41   H     H_    0.724534 0.647228 0.271047 0.231732
H42   H     H_    0.778879 0.656233 0.370276 0.195484
H43   H     H_    0.859185 0.599826 0.375098 0.267570
H44   H     H_    0.835480 0.651097 0.309143 0.266303
H45   H     H_    0.804481 0.587396 0.276246 0.271678
H46   H     H_    0.348376 0.192764 0.386045 0.121304
H47   H     H_    0.527519 0.422826 0.406798 0.170312
H48   H     H_    0.574129 0.480290 0.436281 0.114593
H49   H     H_    0.621376 0.375387 0.517657 0.260997
H50   H     H_    0.663754 0.435585 0.549032 0.199493
H51   H     H_    0.536210 0.411539 0.525259 0.277415
H52   H     H_    0.576210 0.473339 0.553720 0.242647
H53   H     H_    0.613212 0.417750 0.612979 0.284971
H54   H     H_    0.052419 0.140259 0.454551 0.170046
H55   H     H_    0.041055 0.072939 0.443727 0.107195
H56   H     H_    0.079859 0.142110 0.363572 0.282192
H57   H     H_    0.835852 0.278331 0.362912 0.139112
H58   H     H_    0.074282 0.072920 0.356457 0.210039
H59   H     H_    0.958946 0.078894 0.306545 0.266964
H60   H     H_    0.975998 0.115749 0.251187 0.276544
H61   H     H_    0.965576 0.148390 0.315352 0.275390
H62   H     H_    0.155580 0.871892 0.628629 0.167290
H63   H     H_    0.225516 0.913209 0.683473 0.141492
H64   H     H_    0.224088 0.800791 0.639598 0.235898
H65   H     H_    0.293161 0.842048 0.691815 0.215389
H66   H     H_    0.205950 0.814703 0.739808 0.286957
H67   H     H_    0.279760 0.850420 0.792837 0.255772
H68   H     H_    0.830855 0.749821 0.350214 0.164281
H69   H     H_    0.280241 0.783088 0.773075 0.261793
H70   H     H_    0.376967 0.339079 0.969867 0.139542
H71   H     H_    0.428333 0.372659 0.952016 0.138412
H72   H     H_    0.405742 0.402106 0.069528 0.232538
H73   H     H_    0.458325 0.434717 0.053770 0.225183
H74   H     H_    0.365734 0.454655 0.922965 0.266228
H75   H     H_    0.353908 0.479659 0.990075 0.270859
H76   H     H_    0.312910 0.421929 0.938771 0.272280
H77   H     H_    0.346386 0.726912 0.953024 0.143750
H78   H     H_    0.351041 0.796701 0.959903 0.138569
H79   H     H_    0.862495 0.904799 0.525525 0.141589
H80   H     H_    0.331975 0.724130 0.055229 0.232215
H81   H     H_    0.333376 0.793533 0.058612 0.219295
H82   H     H_    0.237574 0.797029 0.926390 0.268310
H83   H     H_    0.222120 0.758990 0.982359 0.268458
H84   H     H_    0.236779 0.727408 0.921361 0.268948
H85   H     H_    0.849149 0.774961 0.972273 0.141643
H86   H     H_    0.876995 0.836628 0.962628 0.140967
H87   H     H_    0.854062 0.810157 0.080777 0.221444
H88   H     H_    0.879999 0.871314 0.069109 0.230270
H89   H     H_    0.777937 0.878141 0.939980 0.271506
H90   H     H_    0.862352 0.094976 0.525545 0.136636
H91   H     H_    0.764313 0.872984 0.010843 0.269652
H92   H     H_    0.751966 0.817666 0.954658 0.266152
H93   H     H_    0.901282 0.118524 0.007591 0.162116
H94   H     H_    0.883848 0.166328 0.940337 0.130935
H95   H     H_    0.854720 0.172345 0.057199 0.234788
H96   H     H_    0.840432 0.223757 0.994801 0.210568
H97   H     H_    0.766484 0.167590 0.885542 0.267201
H98   H     H_    0.742080 0.172611 0.946687 0.273788
H99   H     H_    0.781552 0.115010 0.947527 0.266149
H100  H     H_    0.622248 0.316953 0.988200 0.149065
H101  H     H_    0.360369 0.404672 0.519390 0.158277
H102  H     H_    0.594269 0.256555 0.937551 0.136796
H103  H     H_    0.732196 0.282196 0.066988 0.228870
H104  H     H_    0.705001 0.221176 0.019538 0.225349
H105  H     H_    0.670100 0.263102 0.900254 0.269714
H106  H     H_    0.752755 0.276892 0.971537 0.269889
H107  H     H_    0.693355 0.325506 0.945313 0.266180
H108  H     H_    0.594375 0.605996 0.009836 0.160605
H109  H     H_    0.518925 0.635294 0.944843 0.138594
H110  H     H_    0.555169 0.563527 0.075842 0.231458
H111  H     H_    0.478934 0.594528 0.015999 0.222283
H112  H     H_    0.836244 0.453324 0.606905 0.171200
H113  H     H_    0.359601 0.594593 0.516606 0.143274
H114  H     H_    0.461577 0.549382 0.905682 0.266187
H115  H     H_    0.475944 0.504436 0.975947 0.271660
H116  H     H_    0.538578 0.518361 0.965450 0.264952
H117  H     H_    0.077704 0.866002 0.992668 0.143567
H118  H     H_    0.093128 0.812058 0.952847 0.130573
H119  H     H_    0.192953 0.876436 0.089461 0.223244
H120  H     H_    0.210278 0.820914 0.055388 0.227085
H121  H     H_    0.163117 0.865220 0.933121 0.267712
H122  H     H_    0.227480 0.901673 0.009787 0.267319
H123  H     H_    0.146147 0.921224 0.967758 0.266057
H124  H     H_    0.948646 0.952254 0.537659 0.133327
H125  H     H_    0.169187 0.227522 0.005477 0.165400
H126  H     H_    0.086141 0.215160 0.939897 0.139742
H127  H     H_    0.186872 0.140228 0.060446 0.238087
H128  H     H_    0.102909 0.126804 0.998046 0.218744
H129  H     H_    0.107628 0.137770 0.888940 0.267979
H130  H     H_    0.161571 0.088417 0.951657 0.270220
H131  H     H_    0.192138 0.150825 0.951758 0.266562
H132  H     H_    0.109920 0.698995 0.991363 0.200151
H133  H     H_    0.059998 0.727886 0.908698 0.176102
H134  H     H_    0.088973 0.334660 0.993508 0.195366
H135  H     H_    0.948740 0.047273 0.538090 0.125380
H136  H     H_    0.014901 0.346227 0.917993 0.193364
H137  H     H_    0.570261 0.150208 0.991985 0.200086
H138  H     H_    0.536700 0.179311 0.909393 0.176793
H139  H     H_    0.623109 0.738916 0.996573 0.192190
H140  H     H_    0.569516 0.772440 0.919898 0.192915
H141  H     H_    0.442601 0.451708 0.522994 0.149209
H142  H     H_    0.442362 0.546688 0.521917 0.133058
H143  H     H_    0.581055 0.543716 0.247279 0.186283
H144  H     H_    0.544004 0.465547 0.273880 0.188195
H145  H     H_    0.096865 0.041352 0.560400 0.161577
H146  H     H_    0.116093 0.951417 0.585656 0.155844
H147  H     H_    0.900335 0.702500 0.953598 0.145999
H148  H     H_    0.319607 0.047395 0.488715 0.147839
H149  H     H_    0.891487 0.276628 0.953358 0.146481
H150  H     H_    0.387920 0.245631 0.956341 0.148853
H151  H     H_    0.437111 0.829059 0.951296 0.148502
H152  H     H_    0.485622 0.171279 0.047944 0.167965
H153  H     H_    0.573577 0.822348 0.045417 0.173315
H154  H     H_    0.026677 0.660101 0.044534 0.169146
H155  H     H_    0.004094 0.337565 0.045354 0.168966
H156  H     H_    0.972285 0.840167 0.955820 0.144567
H157  H     H_    0.996671 0.161746 0.954317 0.148355
H158  H     H_    0.513900 0.331388 0.950206 0.144008
H159  H     H_    0.319406 0.954286 0.485836 0.144706
H160  H     H_    0.425544 0.674615 0.953377 0.147078
H161  H     H_    0.627855 0.745257 0.724224 0.186037
H162  H     H_    0.612903 0.801802 0.668234 0.129947
H163  H     H_    0.734618 0.735998 0.740856 0.231081
H164  H     H_    0.718227 0.797738 0.695995 0.251506
H165  H     H_    0.708976 0.835978 0.795132 0.276325
H166  H     H_    0.786540 0.809484 0.831054 0.267932
H167  H     H_    0.732061 0.773987 0.841030 0.266156
H168  H     H_    0.696043 0.283548 0.649720 0.172083
H169  H     H_    0.650340 0.234059 0.656287 0.137533
H170  H     H_    0.526565 0.777425 0.362048 0.142309
H171  H     H_    0.689044 0.334796 0.745750 0.237681
H172  H     H_    0.660168 0.275647 0.758979 0.198426
H173  H     H_    0.759130 0.230090 0.788861 0.266759
H174  H     H_    0.774478 0.281012 0.852861 0.258925
H175  H     H_    0.788755 0.291786 0.783408 0.262813
H176  H     H_    0.123995 0.249297 0.721930 0.188554
H177  H     H_    0.115762 0.304330 0.666447 0.127978
H178  H     H_    0.233051 0.232863 0.748752 0.233544
H179  H     H_    0.223536 0.292715 0.702223 0.252173
H180  H     H_    0.210742 0.338837 0.793586 0.274521
H181  H     H_    0.538001 0.199212 0.382772 0.134401
H182  H     H_    0.286629 0.306694 0.837368 0.263734
H183  H     H_    0.225186 0.278387 0.841563 0.268363
H184  H     H_    0.195355 0.703020 0.672927 0.193862
H185  H     H_    0.127127 0.663019 0.633785 0.102249
H186  H     H_    0.192629 0.729962 0.776258 0.223044
H187  H     H_    0.119582 0.696330 0.739395 0.259179
H188  H     H_    0.174023 0.612500 0.751849 0.266078
H189  H     H_    0.212105 0.645913 0.839405 0.270126
H190  H     H_    0.247777 0.647040 0.789689 0.270637
H191  H     H_    0.815393 0.310224 0.190586 0.167983
H192  H     H_    0.026612 0.276346 0.362112 0.144248
H193  H     H_    0.796777 0.335645 0.245068 0.176553
H194  H     H_    0.809415 0.762155 0.174210 0.176869
H195  H     H_    0.781786 0.725079 0.211427 0.180971
H196  H     H_    0.313931 0.805695 0.187944 0.170962
H197  H     H_    0.295563 0.834019 0.241242 0.175016
H198  H     H_    0.338864 0.129184 0.233152 0.178293
H199  H     H_    0.327175 0.112511 0.297357 0.169780
H200  H     H_    0.546091 0.656223 0.638908 0.165197
H201  H     H_    0.459728 0.660897 0.582295 0.121121
H202  H     H_    0.550996 0.679187 0.751338 0.224226
H203  H     H_    0.022395 0.743449 0.352482 0.157469
H204  H     H_    0.465472 0.685201 0.695401 0.224648
H205  H     H_    0.453873 0.592440 0.660647 0.265984
H206  H     H_    0.502300 0.600327 0.760141 0.267813
H207  H     H_    0.539619 0.585838 0.714160 0.267657
H208  H     H_    0.568990 0.321199 0.701334 0.178541
H209  H     H_    0.533484 0.257351 0.677484 0.117100
H210  H     H_    0.474702 0.357204 0.689023 0.219546
H211  H     H_    0.437835 0.294687 0.664152 0.223686
H212  H     H_    0.526175 0.259918 0.787844 0.269314
H213  H     H_    0.490230 0.315540 0.798591 0.266078
H214  H     H_    0.423150 0.796383 0.249323 0.136869
H215  H     H_    0.565884 0.321777 0.812693 0.263528
H216  H     H_    0.048219 0.156933 0.639217 0.165507
H217  H     H_    0.961858 0.159955 0.585422 0.118437
H218  H     H_    0.056320 0.180198 0.753701 0.221048
H219  H     H_    0.970729 0.183703 0.700521 0.225040
H220  H     H_    0.962564 0.090653 0.667690 0.268812
H221  H     H_    0.012196 0.099860 0.766853 0.267781
H222  H     H_    0.048409 0.086712 0.719260 0.269540
H223  H     H_    0.045200 0.630572 0.664496 0.164328
H224  H     H_    0.027806 0.634497 0.573904 0.092512
N1    N     N_3   0.811500 0.301677 0.233845 -0.444872
N2    N     N_3   0.806072 0.759301 0.218885 -0.455737
N3    N     N_3   0.310661 0.799337 0.232187 -0.445074
N4    N     N_3   0.332955 0.144084 0.272641 -0.454846
N5    N     N_3   0.061974 0.702959 0.946910 -0.441970
N6    N     N_3   0.048690 0.317170 0.947489 -0.463805
N7    N     N_3   0.527863 0.166315 0.947128 -0.440983
N8    N     N_3   0.575683 0.739209 0.949966 -0.464899
O1    O     O_3   0.749980 0.749980 0.500000 -0.489451
O2    O     O_R   0.612630 0.280390 0.456900 -0.625828
O3    O     O_R   0.112630 0.219610 0.456900 -0.660135
O4    O     O_R   0.112630 0.780390 0.456900 -0.629013
O5    O     O_R   0.698160 0.780350 0.335610 -0.644903
O6    O     O_R   0.698160 0.219650 0.335610 -0.635789
O7    O     O_R   0.198160 0.280350 0.335610 -0.629794
O8    O     O_R   0.198160 0.719650 0.335610 -0.635060
O9    O     O_R   0.801810 0.780340 0.664400 -0.664053
O10   O     O_R   0.801810 0.219660 0.664400 -0.649722
O11   O     O_R   0.301810 0.280340 0.664400 -0.667277
O12   O     O_3   0.749980 0.250020 0.500000 -0.494778
O13   O     O_R   0.301810 0.719660 0.664400 -0.659368
O14   O     O_R   0.637430 0.719620 0.335600 -0.610011
O15   O     O_R   0.637430 0.280380 0.335600 -0.620006
O16   O     O_R   0.137430 0.219620 0.335600 -0.661740
O17   O     O_R   0.137430 0.780380 0.335600 -0.642199
O18   O     O_R   0.862530 0.719620 0.664390 -0.627872
O19   O     O_R   0.862530 0.280380 0.664390 -0.629599
O20   O     O_R   0.362530 0.219620 0.664390 -0.632958
O21   O     O_R   0.362530 0.780380 0.664390 -0.630190
O22   O     O_R   0.844250 0.780360 0.456900 -0.658422
O23   O     O_3   0.249980 0.249980 0.500000 -0.486868
O24   O     O_R   0.844250 0.219640 0.456900 -0.664027
O25   O     O_R   0.344250 0.280360 0.456900 -0.631056
O26   O     O_R   0.344250 0.719640 0.456900 -0.662704
O27   O     O_R   0.655730 0.780340 0.543100 -0.645185
O28   O     O_R   0.655730 0.219660 0.543100 -0.662635
O29   O     O_R   0.155730 0.280340 0.543100 -0.635910
O30   O     O_R   0.155730 0.719660 0.543100 -0.672274
O31   O     O_R   0.758810 0.865800 0.456900 -0.648795
O32   O     O_R   0.758810 0.134200 0.456900 -0.659534
O33   O     O_R   0.258810 0.365800 0.456900 -0.651783
O34   O     O_3   0.249980 0.750020 0.500000 -0.490608
O35   O     O_R   0.258810 0.634200 0.456900 -0.659646
O36   O     O_R   0.698070 0.634180 0.456900 -0.594788
O37   O     O_R   0.698070 0.365820 0.456900 -0.587149
O38   O     O_R   0.198070 0.134180 0.456900 -0.616504
O39   O     O_R   0.198070 0.865820 0.456900 -0.609874
O40   O     O_R   0.741180 0.865790 0.543100 -0.636868
O41   O     O_R   0.741180 0.134210 0.543100 -0.600946
O42   O     O_R   0.241180 0.365790 0.543100 -0.632786
O43   O     O_R   0.241180 0.634210 0.543100 -0.602086
O44   O     O_R   0.801890 0.634180 0.543100 -0.683755
O45   O     O_R   0.887340 0.719630 0.543100 -0.614079
O46   O     O_R   0.801890 0.365820 0.543100 -0.651987
O47   O     O_R   0.301890 0.134180 0.543100 -0.648960
O48   O     O_R   0.301890 0.865820 0.543100 -0.648001
O49   O     O_3   0.618571 0.729605 0.627133 -0.656234
O50   O     O_3   0.605737 0.306868 0.611107 -0.653530
O51   O     O_3   0.119129 0.230432 0.628136 -0.648462
O52   O     O_3   0.112819 0.744257 0.628867 -0.640348
O53   O     O_3   0.509514 0.729890 0.627360 -0.642441
O54   O     O_3   0.490702 0.314768 0.593526 -0.642216
O55   O     O_3   0.009623 0.229847 0.627789 -0.642095
O56   O     O_R   0.887340 0.280370 0.543100 -0.603948
O57   O     O_3   0.005403 0.700145 0.613406 -0.609030
O58   O     O_3   0.662246 0.946527 0.506778 -0.635205
O59   O     O_3   0.653917 0.053602 0.487890 -0.637941
O60   O     O_3   0.172319 0.447365 0.525392 -0.627156
O61   O     O_3   0.166009 0.554007 0.512819 -0.634994
O62   O     O_3   0.686630 0.593367 0.341383 -0.624111
O63   O     O_3   0.602864 0.417150 0.399958 -0.598138
O64   O     O_3   0.136874 0.100940 0.500605 -0.625357
O65   O     O_3   0.197604 0.892745 0.576319 -0.649847
O66   O     O_3   0.473853 0.333987 0.053729 -0.632253
O67   O     O_R   0.387340 0.219630 0.543100 -0.659144
O68   O     O_3   0.426250 0.757211 0.051135 -0.638743
O69   O     O_3   0.941994 0.794634 0.058167 -0.639496
O70   O     O_3   0.955453 0.183527 0.054545 -0.640625
O71   O     O_3   0.624692 0.254971 0.048457 -0.634310
O72   O     O_3   0.572212 0.661434 0.057098 -0.648320
O73   O     O_3   0.112327 0.799806 0.057160 -0.639314
O74   O     O_3   0.122309 0.221821 0.054281 -0.638895
O75   O     O_R   0.387340 0.780370 0.543100 -0.609198
O76   O     O_R   0.612630 0.719610 0.456900 -0.651520
Zn1   Zn    Zn3+2 0.824150 0.706610 0.561580 0.957436
Zn2   Zn    Zn3+2 0.737390 0.206640 0.561580 0.960519
Zn3   Zn    Zn3+2 0.237390 0.293360 0.561580 0.953478
Zn4   Zn    Zn3+2 0.237390 0.706640 0.561580 0.949295
Zn5   Zn    Zn3+2 0.675820 0.706600 0.438420 1.005763
Zn6   Zn    Zn3+2 0.675820 0.293400 0.438420 0.999670
Zn7   Zn    Zn3+2 0.175820 0.206600 0.438420 0.966121
Zn8   Zn    Zn3+2 0.175820 0.793400 0.438420 0.993238
Zn9   Zn    Zn3+2 0.824150 0.293390 0.561580 0.972413
Zn10  Zn    Zn3+2 0.324150 0.206610 0.561580 0.968419
Zn11  Zn    Zn3+2 0.324150 0.793390 0.561580 0.985541
Zn12  Zn    Zn3+2 0.762580 0.793370 0.438420 0.958841
Zn13  Zn    Zn3+2 0.762580 0.206630 0.438420 0.957566
Zn14  Zn    Zn3+2 0.262580 0.293370 0.438420 0.973550
Zn15  Zn    Zn3+2 0.262580 0.706630 0.438420 0.951748
Zn16  Zn    Zn3+2 0.737390 0.793360 0.561580 0.948060

loop_
_geom_bond_atom_site_label_1
_geom_bond_atom_site_label_2
_ccdc_geom_bond_type
C168  O13   A    
C144  C184  T    
C126  C127  S    
C29   C42   S    
H199  N4    S    
C19   C20   A    
C136  H119  S    
C75   H202  S    
C148  O16   A    
C155  C182  S    
C191  H214  S    
C129  H103  S    
C81   O55   S    
C211  C220  A    
O2    Zn6   S    
C132  H111  S    
C20   H142  S    
C86   H7    S    
O42   Zn3   S    
C89   H12   S    
C164  C186  S    
C83   H220  S    
C147  N5    S    
C160  O74   S    
O34   Zn11  S    
C29   C33   A    
O24   Zn13  S    
C118  H78   S    
C127  H98   S    
C190  C212  A    
C110  C111  S    
C68   C149  S    
C78   H210  S    
C188  C210  A    
C151  N8    S    
C130  H107  S    
C204  C208  A    
O67   Zn10  S    
C121  H86   S    
C68   C90   S    
C201  C206  A    
C55   H146  S    
C151  C155  S    
C94   H23   S    
O23   Zn7   S    
C216  O25   A    
C113  C175  S    
C98   H34   S    
C90   C177  S    
C59   C60   A    
C21   C22   A    
C115  H70   S    
C165  O9    A    
C205  C209  A    
C134  H117  S    
C113  C155  S    
C51   O65   S    
C104  C105  S    
C43   C170  S    
C6    C224  A    
C18   H135  S    
C68   C164  S    
C131  O72   S    
O5    Zn12  S    
C27   C31   A    
C74   O53   S    
C28   C32   A    
C102  H42   S    
C140  H131  S    
C80   H215  S    
C81   H216  S    
C80   H213  S    
C110  O65   S    
C128  H100  S    
H140  N8    S    
C75   C76   S    
C67   H177  S    
C125  H94   S    
C133  H114  S    
C110  H62   S    
C43   O36   A    
C208  C212  A    
C177  O70   S    
C45   O47   A    
C74   H200  S    
C85   H4    S    
C90   C153  S    
C165  O18   A    
C93   H21   S    
C82   H218  S    
C97   H32   S    
C4    O53   S    
C142  C182  T    
O14   Zn5   S    
C2    C214  A    
O34   Zn8   S    
C57   C147  S    
C199  C204  A    
O9    Zn16  S    
C47   O39   A    
C204  H68   S    
C105  H50   S    
C160  C164  S    
O32   Zn13  S    
C14   C21   A    
C195  H24   S    
C133  H116  S    
C45   O38   A    
C74   H201  S    
C57   H154  S    
C113  H151  S    
C86   H5    S    
O41   Zn2   S    
C94   O60   S    
C106  H51   S    
C72   C73   S    
C93   H20   S    
C111  H65   S    
O43   Zn4   S    
O48   Zn11  S    
C139  C140  S    
C61   H161  S    
C1    O5    A    
O39   Zn8   S    
C117  H75   S    
C40   O41   A    
C87   H9    S    
C174  O66   S    
C190  H203  S    
C104  H47   S    
C96   H30   S    
C36   O28   A    
C32   C33   A    
C161  C174  S    
C130  H105  S    
C36   O2    A    
O18   Zn1   S    
C49   C53   A    
O44   Zn1   S    
C169  C176  S    
C156  C172  S    
O56   Zn9   S    
C51   C55   A    
C64   H169  S    
C8    C205  A    
C14   H90   S    
C33   O61   S    
C142  C168  S    
C63   H166  S    
C48   C52   A    
O23   Zn3   S    
C3    O52   S    
C99   H37   S    
C114  H69   S    
C98   C99   S    
C56   C181  A    
O23   Zn14  S    
O33   Zn14  S    
C37   C220  S    
C44   C181  S    
H138  N7    S    
C137  H122  S    
C152  C169  S    
C141  C180  T    
C167  O20   A    
C128  C129  S    
C97   C98   S    
C35   H152  S    
C85   C86   S    
C108  C109  S    
C17   H124  S    
C35   C161  S    
C61   H162  S    
C23   C29   A    
C53   H144  S    
C100  O62   S    
H134  N6    S    
H139  N8    S    
C109  H59   S    
C78   C80   S    
C7    O57   S    
C115  C116  S    
C12   C22   A    
C71   O52   S    
O21   Zn11  S    
C47   O48   A    
C199  N2    S    
C149  C153  S    
C8    C217  S    
C191  C196  A    
O12   Zn6   S    
C62   H163  S    
C135  C166  S    
C197  N4    S    
C77   O54   S    
C187  C209  A    
C57   C163  S    
C175  O68   S    
C198  C202  A    
C111  H64   S    
O38   Zn7   S    
C35   C150  S    
C127  H99   S    
C119  H80   S    
H132  N5    S    
C171  H157  S    
C34   O27   A    
C112  O6    A    
C207  C211  A    
C69   C70   S    
C141  C167  S    
C189  C194  A    
C36   C219  S    
C215  O56   A    
C172  C174  S    
C84   H224  S    
C195  C199  A    
C173  C175  S    
O40   Zn16  S    
C114  H66   S    
C13   H148  S    
C2    H112  S    
C173  H160  S    
C115  H71   S    
O27   Zn16  S    
C222  O49   S    
C91   H17   S    
C72   H186  S    
O6    Zn13  S    
C138  C139  S    
C91   C92   S    
C31   O59   S    
C162  C175  S    
O28   Zn2   S    
O4    Zn8   S    
C210  C219  A    
C145  C185  T    
C2    C181  A    
C67   O51   S    
C91   H16   S    
O8    Zn15  S    
C5    C9    A    
C62   H164  S    
O23   Zn10  S    
C206  C210  A    
C140  H130  S    
C70   H182  S    
C27   C40   S    
C60   C192  A    
C17   C18   A    
C49   O63   S    
C159  O8    A    
C38   O30   A    
C88   C89   S    
O37   Zn6   S    
C158  C163  S    
C138  O74   S    
C190  C195  A    
C76   H205  S    
C116  H73   S    
C26   C30   A    
C16   C23   A    
C103  H43   S    
C188  H181  S    
C123  H91   S    
O31   Zn12  S    
C129  H104  S    
O7    Zn14  S    
C71   H185  S    
C54   H145  S    
C80   H212  S    
C122  H87   S    
C52   C53   A    
C129  C130  S    
C88   H11   S    
C54   C55   A    
C119  H81   S    
C138  H125  S    
C65   H172  S    
H136  N6    S    
C79   C176  S    
O36   Zn5   S    
C136  C137  S    
C159  O17   A    
C156  C161  S    
C24   H159  S    
C46   H153  S    
C104  O63   S    
C82   H219  S    
C52   H143  S    
C217  O26   A    
C202  C207  A    
C105  H49   S    
C71   C72   S    
C1    C144  S    
C194  C198  A    
C101  C154  S    
C157  C162  S    
C81   H217  S    
C39   O40   A    
C120  H83   S    
C56   C58   A    
C127  H97   S    
C102  C103  S    
C15   H101  S    
C149  C160  S    
C124  C165  S    
O3    Zn7   S    
C32   O60   S    
O26   Zn15  S    
C171  C177  S    
C107  H54   S    
C73   H190  S    
O12   Zn13  S    
C79   C152  S    
C63   H167  S    
C5    O54   S    
C87   C88   S    
C153  C179  S    
C24   C203  A    
C39   O31   A    
C200  C205  A    
C154  C180  S    
C213  O22   A    
C134  H118  S    
O75   Zn11  S    
C37   O3    A    
H196  N3    S    
C77   C78   S    
C25   C28   A    
C15   C19   A    
C50   C54   A    
C13   C192  A    
C151  C157  S    
C112  C143  S    
C3    C7    A    
C9    C206  A    
C30   C31   A    
C69   H179  S    
C92   H19   S    
C26   C39   S    
C70   H180  S    
O76   Zn5   S    
C87   H8    S    
C121  O69   S    
C28   C41   S    
C214  H1    S    
C14   C18   A    
C125  H93   S    
O1    Zn1   S    
C30   O58   S    
C76   H207  S    
C110  H63   S    
C95   C96   S    
C102  H41   S    
C12   C17   A    
C123  H89   S    
C85   H3    S    
C43   O44   A    
C46   C113  S    
C4    C8    A    
C41   O42   A    
C97   H31   S    
C21   C27   A    
O13   Zn4   S    
C167  O11   A    
C3    C221  A    
C166  O10   A    
C172  H158  S    
H197  N3    S    
C169  H156  S    
C146  C148  S    
C133  H115  S    
O19   Zn9   S    
C91   O59   S    
C86   H6    S    
C106  H52   S    
C84   C85   S    
C95   H27   S    
C1    O14   A    
C134  O73   S    
C136  H120  S    
C166  O19   A    
O25   Zn14  S    
C118  H77   S    
C143  C183  T    
C161  C183  S    
C213  O45   A    
C104  H48   S    
C162  C184  S    
C62   C63   S    
C45   C192  S    
C130  H106  S    
C100  H39   S    
C122  H88   S    
C47   C203  S    
C106  H53   S    
C103  H44   S    
C121  C122  S    
C11   C213  S    
C198  N1    S    
C101  H150  S    
C63   H165  S    
C98   H33   S    
O1    Zn16  S    
C125  C126  S    
C128  H102  S    
C96   H28   S    
C131  C132  S    
C38   C221  S    
C200  H35   S    
C112  O15   A    
C137  H121  S    
H191  N1    S    
C116  H72   S    
C148  O7    A    
C146  C186  T    
C224  O51   S    
O35   Zn15  S    
C35   C101  S    
C6    C10   A    
C119  C120  S    
C34   C218  S    
C48   C58   A    
C107  O64   S    
C170  C214  A    
C40   O32   A    
C88   H10   S    
C105  C106  S    
C97   O61   S    
C64   C65   S    
C50   C60   A    
C38   O4    A    
C126  H96   S    
C131  H108  S    
C10   C215  S    
C126  H95   S    
C12   H79   S    
C4    C222  A    
C117  H74   S    
C68   H155  S    
C92   C93   S    
C160  C171  S    
C111  C114  S    
C19   H141  S    
C94   C95   S    
O12   Zn9   S    
C15   C25   A    
C93   H22   S    
C219  C223  A    
C90   H149  S    
C59   C203  A    
C84   O57   S    
C82   C83   S    
C22   C26   A    
C139  H127  S    
C72   H187  S    
C120  H82   S    
C66   H175  S    
C77   H209  S    
C202  H57   S    
C157  C173  S    
C216  O67   A    
C42   O35   A    
C89   H15   S    
C71   H184  S    
C196  C200  A    
C107  H55   S    
C81   C82   S    
C95   H26   S    
C7    C11   A    
C117  H76   S    
C114  H67   S    
O10   Zn2   S    
C64   O50   S    
C209  C218  A    
C118  O68   S    
C223  O50   S    
C58   C170  A    
H198  N4    S    
C96   H29   S    
C77   H208  S    
C128  O71   S    
H133  N5    S    
C150  N7    S    
C116  C117  S    
C158  O73   S    
O20   Zn10  S    
C189  H192  S    
C217  O75   A    
C118  C119  S    
C187  H170  S    
C92   H18   S    
C70   H183  S    
C99   H38   S    
C132  C133  S    
O22   Zn12  S    
C197  C201  A    
C124  C178  T    
C16   C20   A    
C125  O70   S    
C109  H61   S    
C155  C173  S    
C76   H206  S    
C145  C159  S    
C150  C156  S    
C44   O37   A    
H194  N2    S    
C101  C174  S    
C61   C62   S    
C41   O33   A    
C57   C79   S    
O47   Zn10  S    
C163  C176  S    
C48   O62   S    
C16   H113  S    
C83   H221  S    
C6    O55   S    
C218  C222  A    
C212  C221  A    
C9    C216  S    
O34   Zn4   S    
C74   C75   S    
C138  H126  S    
H193  N1    S    
C65   H171  S    
O16   Zn7   S    
C61   O49   S    
C189  C211  A    
O1    Zn5   S    
C75   H204  S    
C156  O71   S    
C109  H60   S    
C89   H14   S    
O17   Zn8   S    
C134  C136  S    
H195  N2    S    
O29   Zn3   S    
C78   H211  S    
C13   C24   A    
O30   Zn4   S    
C67   C69   S    
C139  H128  S    
C10   C207  A    
C64   H168  S    
C79   H147  S    
C83   H222  S    
C103  H45   S    
H137  N7    S    
C168  O21   A    
C107  C108  S    
C215  O24   A    
C153  C171  S    
C100  C102  S    
C120  H84   S    
O15   Zn6   S    
C154  C172  S    
C66   H173  S    
C50   O64   S    
O34   Zn15  S    
C37   O29   A    
O1    Zn12  S    
C66   H174  S    
C193  H2    S    
C121  H85   S    
C5    C223  A    
C150  C154  S    
C51   C59   A    
C11   C208  A    
C94   H25   S    
C73   H189  S    
C42   O43   A    
C220  C224  A    
C108  H58   S    
C84   H223  S    
C187  C191  A    
C100  H40   S    
C188  C193  A    
C158  C169  S    
C132  H110  S    
C196  N3    S    
C49   C56   A    
C115  O66   S    
C44   O46   A    
C149  N6    S    
C163  C185  S    
C147  C152  S    
C135  C179  T    
C69   H178  S    
C147  C158  S    
C137  H123  S    
C140  H129  S    
C99   H36   S    
C193  C197  A    
C67   H176  S    
C87   O58   S    
C176  O69   S    
C46   C151  S    
O11   Zn3   S    
C201  H46   S    
C23   C25   A    
C194  H13   S    
C152  C178  S    
C131  H109  S    
C65   C66   S    
C46   C162  S    
C123  H92   S    
C73   H188  S    
O46   Zn9   S    
O45   Zn1   S    
C122  C123  S    
C108  H56   S    
C157  O72   S    
C34   O76   A    
C164  C177  S    
O12   Zn2   S    
