data_mof_unit_7174.cif
_audit_creation_date              2012-12-10T18:12:34-0500
_audit_creation_method            fapswitch 2.2
_symmetry_space_group_name_H-M    P1
_symmetry_Int_Tables_number       1
_space_group_crystal_system       triclinic
_cell_length_a                    12.759415
_cell_length_b                    13.141992
_cell_length_c                    15.734387
_cell_angle_alpha                 92.547168
_cell_angle_beta                  102.609246
_cell_angle_gamma                 81.899995
_cell_volume                      2548.83019856

loop_
_atom_site_label
_atom_site_type_symbol
_atom_type_description
_atom_site_fract_x
_atom_site_fract_y
_atom_site_fract_z
_atom_type_partial_charge
C1    C     C_R   0.439383 0.690821 0.484062 0.898559
C2    C     C_3   0.500841 0.502842 0.916589 0.003125
C3    C     C_3   0.441245 0.425732 0.013318 -0.314690
C4    C     C_3   0.496553 0.499328 0.083153 0.002804
C5    C     C_3   0.545408 0.410917 0.976643 0.392319
C6    C     C_3   0.599682 0.482857 0.046410 0.279836
C7    C     C_1   0.503367 0.502945 0.826195 0.103813
C8    C     C_1   0.495410 0.498889 0.173759 0.106859
C9    C     C_R   0.727054 0.055967 0.483000 -0.180422
C10   C     C_R   0.598919 0.199313 0.511736 -0.056534
C11   C     C_R   0.300183 0.845204 0.478925 0.397742
C12   C     C_R   0.501194 0.500698 0.661560 0.883569
C13   C     C_R   0.290283 0.940055 0.524620 0.137459
C14   C     C_R   0.383934 0.989665 0.551239 0.159312
C15   C     C_R   0.472715 0.961825 0.508840 -0.028739
C16   C     C_R   0.481293 0.866236 0.465367 -0.083498
C17   C     C_R   0.550375 0.027196 0.505445 0.066739
C18   C     C_R   0.647791 0.989568 0.478042 0.094993
C19   C     C_R   0.657746 0.891983 0.437142 0.141053
C20   C     C_R   0.567501 0.837086 0.420941 0.215988
C21   C     C_R   0.525304 0.132737 0.516335 -0.205445
C22   C     C_R   0.702860 0.160269 0.500726 -0.193660
C23   C     C_R   0.560894 0.308986 0.509708 0.859242
C24   C     C_R   0.403405 0.801372 0.468799 -0.170891
C25   C     C_R   0.089725 0.338831 0.386637 -0.262159
C26   C     C_R   0.790374 0.641913 0.591957 0.022637
C27   C     C_R   0.876458 0.693992 0.589006 0.151863
C28   C     C_R   0.950893 0.650863 0.540029 -0.217324
C29   C     C_R   0.949303 0.549547 0.505114 0.013736
C30   C     C_R   0.852065 0.507803 0.500524 0.202891
C31   C     C_R   0.035204 0.489775 0.471170 0.002336
C32   C     C_R   0.010880 0.400098 0.421120 0.043789
C33   C     C_R   0.908164 0.369687 0.407270 -0.220148
C34   C     C_R   0.498857 0.499168 0.338467 0.866897
C35   C     C_R   0.830693 0.421660 0.448033 -0.178791
C36   C     C_R   0.146004 0.507902 0.490767 0.219214
C37   C     C_R   0.194241 0.362766 0.402547 0.529991
C38   C     C_3   0.451779 0.591199 0.023103 0.391605
C39   C     C_3   0.554886 0.574867 0.986827 0.281594
C40   C     C_1   0.503542 0.502181 0.750920 -0.160180
C41   C     C_1   0.496058 0.498786 0.249119 -0.153190
C42   C     C_3   0.395500 0.519688 0.952215 -0.318924
H1    H     H_    0.444091 0.164751 0.520962 0.198863
H2    H     H_    0.889002 0.302329 0.367711 0.156677
H3    H     H_    0.070414 0.271479 0.347067 0.181016
H4    H     H_    0.727556 0.676165 0.624835 0.155187
H5    H     H_    0.003038 0.701331 0.525689 0.163426
H6    H     H_    0.754140 0.393534 0.437006 0.201164
H7    H     H_    0.396050 0.363603 0.025641 0.189454
H8    H     H_    0.311923 0.536461 0.912404 0.186094
H9    H     H_    0.762103 0.210984 0.498478 0.154566
H10   H     H_    0.804880 0.030362 0.467131 0.152737
N1    N     N_R   0.222180 0.444680 0.455580 -0.157920
N2    N     N_R   0.776980 0.554790 0.543960 -0.157268
O1    O     O_R   0.366730 0.627160 0.478790 -0.565512
O2    O     O_R   0.544830 0.662520 0.507160 -0.624031
O3    O     O_R   0.410960 0.482330 0.609040 -0.631744
O4    O     O_R   0.589060 0.517690 0.637410 -0.599004
O5    O     O_R   0.455170 0.337480 0.492840 -0.617841
O6    O     O_R   0.633270 0.372840 0.521210 -0.635072
O7    O     O_R   0.410940 0.482310 0.362590 -0.625980
O8    O     O_R   0.589040 0.517670 0.390960 -0.632788
Zn1   Zn    Zn3+2 0.381080 0.476390 0.481050 0.964656
Zn2   Zn    Zn3+2 0.618920 0.523610 0.518950 0.932111
O9    O     O_3   0.612964 0.652169 0.971321 -0.738705
H11   H     H_    0.637273 0.684746 0.028974 0.358852
O10   O     O_3   0.214156 0.791640 0.446319 -0.767593
H12   H     H_    0.144879 0.834411 0.449211 0.336528
C43   C     C_3   0.394507 0.057783 0.632240 -0.883601
H13   H     H_    0.479798 0.069987 0.659154 0.251246
H14   H     H_    0.343394 0.133291 0.618374 0.242128
H15   H     H_    0.368542 0.019807 0.684390 0.255092
C44   C     C_3   0.184392 0.982531 0.549817 -0.925395
H16   H     H_    0.120254 0.000242 0.490282 0.235238
H17   H     H_    0.160061 0.925299 0.589039 0.239407
H18   H     H_    0.188285 0.055079 0.588176 0.262788
C45   C     C_3   0.556270 0.759030 0.346758 -0.788684
H19   H     H_    0.568633 0.793740 0.287214 0.244133
H20   H     H_    0.617814 0.690881 0.363534 0.260933
H21   H     H_    0.474643 0.734249 0.329409 0.223070
O11   O     O_3   0.267173 0.299846 0.364662 -0.767370
H22   H     H_    0.326643 0.338233 0.361413 0.379615
C46   C     C_3   0.181471 0.591334 0.554736 -0.791853
H23   H     H_    0.266667 0.589507 0.578597 0.285627
H24   H     H_    0.160819 0.665570 0.522338 0.253679
H25   H     H_    0.148335 0.589042 0.614128 0.208997
O12   O     O_3   0.403662 0.685698 0.050231 -0.736494
H26   H     H_    0.382493 0.728686 0.997459 0.346701
C47   C     C_3   0.884838 0.796680 0.633973 -0.921876
H27   H     H_    0.810072 0.850521 0.609651 0.251130
H28   H     H_    0.894417 0.787466 0.705161 0.256561
H29   H     H_    0.955411 0.830792 0.622681 0.241087
O13   O     O_3   0.704890 0.463112 0.096861 -0.740721
H30   H     H_    0.753087 0.456367 0.054751 0.361776
O14   O     O_3   0.595534 0.317077 0.950040 -0.735701
H31   H     H_    0.614695 0.273453 0.002427 0.347127
C48   C     C_3   0.757932 0.853663 0.401441 -0.904834
H32   H     H_    0.761250 0.772947 0.377920 0.258763
H33   H     H_    0.761385 0.902856 0.346817 0.247645
H34   H     H_    0.832026 0.856093 0.453221 0.240542

loop_
_geom_bond_atom_site_label_1
_geom_bond_atom_site_label_2
_ccdc_geom_bond_type
O12   H26   S    
C3    C42   S    
O13   H30   S    
C39   O9    S    
C44   H16   S    
O14   H31   S    
C4    C8    S    
C48   H32   S    
C19   C48   S    
C28   H5    S    
C45   H19   S    
C10   C22   A    
C23   O5    A    
C30   N2    A    
C26   C27   A    
C20   C45   S    
C28   C29   A    
O11   H22   S    
C1    O2    A    
C38   C42   S    
C31   C36   A    
C5    C6    S    
C9    C22   A    
C36   C46   S    
C15   C16   A    
C11   C24   A    
C34   O8    A    
C43   H14   S    
C18   C19   A    
O7    Zn1   S    
N1    Zn1   S    
O8    Zn2   S    
C36   N1    A    
C2    C7    S    
C48   H33   S    
C21   H1    S    
C2    C39   S    
C19   C20   A    
O1    Zn1   S    
C7    C40   T    
O2    Zn2   S    
C47   H28   S    
C12   O4    A    
C25   C32   A    
C16   C24   A    
C13   C14   A    
C44   H17   S    
C37   O11   S    
C9    H10   S    
C35   H6    S    
C26   N2    A    
C5    O14   S    
C11   O10   S    
O3    Zn1   S    
C45   H20   S    
C10   C21   A    
O4    Zn2   S    
C23   O6    A    
O10   H12   S    
C3    H7    S    
C8    C41   T    
C4    C6    S    
C34   O7    A    
C17   C21   A    
C12   C40   S    
C43   H15   S    
C34   C41   S    
C29   C30   A    
C46   H23   S    
C16   C20   A    
C6    O13   S    
C17   C18   A    
C47   H29   S    
C42   H8    S    
C12   O3    A    
C30   C35   A    
C46   H24   S    
C4    C38   S    
C14   C43   S    
C2    C5    S    
C3    C4    S    
C25   H3    S    
C48   H34   S    
C45   H21   S    
C15   C17   A    
C6    C39   S    
C33   H2    S    
C31   C32   A    
C13   C44   S    
C3    C5    S    
C10   C23   S    
O5    Zn1   S    
C38   O12   S    
O6    Zn2   S    
C32   C33   A    
C1    O1    A    
C37   N1    A    
C29   C31   A    
C11   C13   A    
C38   C39   S    
N2    Zn2   S    
C2    C42   S    
C33   C35   A    
C27   C47   S    
C43   H13   S    
C26   H4    S    
C9    C18   A    
C46   H25   S    
C44   H18   S    
C1    C24   S    
O9    H11   S    
C27   C28   A    
C14   C15   A    
C47   H27   S    
C25   C37   A    
C22   H9    S    
