data_mof_unit_29705.cif
_audit_creation_date              2012-12-10T19:10:05-0500
_audit_creation_method            fapswitch 2.2
_symmetry_space_group_name_H-M    P1
_symmetry_Int_Tables_number       1
_space_group_crystal_system       triclinic
_cell_length_a                    10.83078
_cell_length_b                    10.826224
_cell_length_c                    9.530285
_cell_angle_alpha                 89.903643
_cell_angle_beta                  89.918643
_cell_angle_gamma                 90.302837
_cell_volume                      1117.46905984

loop_
_atom_site_label
_atom_site_type_symbol
_atom_type_description
_atom_site_fract_x
_atom_site_fract_y
_atom_site_fract_z
_atom_type_partial_charge
C1    C     C_R   0.501229 0.262296 0.499986 0.797838
C2    C     C_R   0.242339 0.730768 0.039218 -0.218971
C3    C     C_R   0.933946 0.546687 0.387514 -0.198574
C4    C     C_R   0.871658 0.492443 0.500808 -0.094213
C5    C     C_R   0.938367 0.441404 0.614331 0.001115
C6    C     C_R   0.066419 0.449512 0.612945 -0.244277
C7    C     C_R   0.128425 0.503760 0.499446 -0.082582
C8    C     C_R   0.061755 0.553245 0.385572 0.070825
C9    C     C_R   0.892359 0.419326 0.870677 -0.125831
C10   C     C_R   0.834078 0.358650 0.982492 -0.052725
C11   C     C_R   0.764398 0.251947 0.958144 -0.131637
C12   C     C_R   0.262324 0.502499 0.499873 0.800768
C13   C     C_R   0.753047 0.205647 0.822012 -0.130048
C14   C     C_R   0.809185 0.267268 0.709450 -0.094486
C15   C     C_R   0.878581 0.375286 0.733003 0.104109
C16   C     C_R   0.509548 0.063239 0.625272 0.108599
C17   C     C_R   0.511181 0.129212 0.499500 -0.090983
C18   C     C_R   0.528077 0.064783 0.372971 -0.221793
C19   C     C_R   0.527543 0.936055 0.372809 -0.227258
C20   C     C_R   0.511122 0.870880 0.499257 -0.090639
C21   C     C_R   0.510037 0.936171 0.625255 0.120351
C22   C     C_3   0.421343 0.928821 0.745143 -0.475415
C23   C     C_R   0.501186 0.737706 0.499786 0.795799
C24   C     C_3   0.421025 0.068947 0.745344 -0.471538
C25   C     C_R   0.537832 0.602202 0.073240 0.279610
C26   C     C_R   0.449655 0.404797 0.074695 -0.058831
C27   C     C_R   0.449590 0.404857 0.925787 -0.071675
C28   C     C_R   0.536729 0.602641 0.925902 0.253391
C29   C     C_3   0.659031 0.665671 0.917958 -0.501220
C30   C     C_3   0.661792 0.662742 0.077276 -0.519352
C31   C     C_R   0.737680 0.496058 0.500234 0.790156
C32   C     C_R   0.234217 0.790925 0.168540 -0.110523
C33   C     C_R   0.174175 0.733595 0.281340 -0.220075
C34   C     C_R   0.122248 0.615363 0.265140 0.014492
C35   C     C_R   0.132107 0.554712 0.135365 0.623200
C36   C     C_R   0.191576 0.612780 0.022658 -0.223574
Cu1   Cu    Cu3+1 0.499990 0.499980 0.640670 0.942598
Cu2   Cu    Cu3+1 0.500010 0.500020 0.359330 0.952952
H1    H     H_    0.288869 0.775023 0.952139 0.147991
H2    H     H_    0.719762 0.204769 0.044826 0.121352
H3    H     H_    0.701140 0.121689 0.804033 0.128340
H4    H     H_    0.798908 0.230852 0.604292 0.106131
H5    H     H_    0.536066 0.113127 0.273732 0.155823
H6    H     H_    0.534345 0.888331 0.273455 0.156037
H7    H     H_    0.331060 0.887366 0.714902 0.195797
H8    H     H_    0.464268 0.888868 0.840683 0.185415
H9    H     H_    0.330530 0.109297 0.715543 0.200989
H10   H     H_    0.464000 0.108849 0.841011 0.185007
H11   H     H_    0.410409 0.326879 0.130413 0.151655
H12   H     H_    0.274675 0.881833 0.181443 0.145600
H13   H     H_    0.409883 0.327373 0.870397 0.141653
H14   H     H_    0.730940 0.608048 0.868158 0.223953
H15   H     H_    0.651889 0.760620 0.874418 0.189462
H16   H     H_    0.734256 0.601015 0.119624 0.206556
H17   H     H_    0.658840 0.756164 0.124978 0.188996
H18   H     H_    0.168849 0.780680 0.381351 0.134650
H19   H     H_    0.199613 0.565825 0.922871 0.157423
H20   H     H_    0.882943 0.587552 0.301656 0.138858
H21   H     H_    0.118109 0.409153 0.698855 0.163921
H22   H     H_    0.945756 0.502261 0.890748 0.142738
H23   H     H_    0.842960 0.394217 0.088076 0.166741
N1    N     N_R   0.500790 0.500930 0.147930 -0.189845
N2    N     N_R   0.500790 0.500890 0.852020 -0.183912
O1    O     O_R   0.500000 0.319640 0.618810 -0.581693
O2    O     O_R   0.500010 0.319680 0.381230 -0.594217
O3    O     O_R   0.319640 0.499990 0.618790 -0.595263
O4    O     O_R   0.319650 0.500030 0.381210 -0.558524
O5    O     O_R   0.499990 0.680320 0.618770 -0.582499
O6    O     O_R   0.500000 0.680360 0.381190 -0.581250
O7    O     O_R   0.680350 0.499970 0.618790 -0.572310
O8    O     O_R   0.680360 0.500010 0.381210 -0.588777
F1    F     F_    0.088120 0.438018 0.119836 -0.706376

loop_
_geom_bond_atom_site_label_1
_geom_bond_atom_site_label_2
_ccdc_geom_bond_type
C23   O5    A    
Cu1   O5    S    
C1    O2    A    
C29   H15   S    
C3    H20   S    
C16   C21   A    
C11   C13   A    
C9    C10   A    
C23   O6    A    
C1    C17   S    
C19   C20   A    
C17   C18   A    
C20   C23   S    
C19   H6    S    
C14   H4    S    
C9    H22   S    
Cu1   O7    S    
C32   C33   A    
Cu1   O1    S    
C33   H18   S    
C13   H3    S    
C33   C34   A    
C26   N1    A    
Cu2   O6    S    
C7    C8    A    
C16   C24   S    
Cu2   O4    S    
C8    C34   S    
C13   C14   A    
Cu1   O3    S    
C25   C28   A    
C30   H16   S    
C32   H12   S    
C26   C27   A    
C29   C30   S    
C27   N2    A    
C5    C6    A    
C6    H21   S    
C31   O8    A    
C28   C29   S    
Cu1   N2    S    
Cu1   Cu2   S    
C27   H13   S    
C35   F1    S    
C34   C35   A    
C6    C7    A    
C25   N1    A    
C9    C15   A    
C11   H2    S    
C12   O4    A    
C22   C24   S    
C7    C12   S    
C5    C15   S    
C10   H23   S    
C16   C17   A    
C10   C11   A    
C2    H1    S    
C2    C36   A    
C3    C4    A    
C4    C31   S    
C28   N2    A    
C24   H9    S    
C22   H7    S    
C20   C21   A    
C36   H19   S    
C2    C32   A    
C3    C8    A    
C30   H17   S    
C26   H11   S    
C18   H5    S    
C25   C30   S    
Cu2   O8    S    
C18   C19   A    
C22   H8    S    
C21   C22   S    
Cu2   O2    S    
C12   O3    A    
C1    O1    A    
C29   H14   S    
C31   O7    A    
C14   C15   A    
C4    C5    A    
Cu2   N1    S    
C35   C36   A    
C24   H10   S    
