data_mof_unit_68294.cif
_audit_creation_date              2012-10-26T18:48:20-0400
_audit_creation_method            fapswitch 2.2
_symmetry_space_group_name_H-M    P1
_symmetry_Int_Tables_number       1
_space_group_crystal_system       triclinic
_cell_length_a                    10.614785
_cell_length_b                    8.81289
_cell_length_c                    7.440362
_cell_angle_alpha                 103.042332
_cell_angle_beta                  94.363173
_cell_angle_gamma                 92.653074
_cell_volume                      674.658815259

loop_
_atom_site_label
_atom_site_type_symbol
_atom_type_description
_atom_site_fract_x
_atom_site_fract_y
_atom_site_fract_z
_atom_type_partial_charge
C1    C     C_R   0.495215 0.200411 0.453845 0.545253
C2    C     C_3   0.123313 0.499508 0.504066 -0.003018
C3    C     C_3   0.969569 0.622544 0.624950 -0.031166
C4    C     C_3   0.030431 0.377456 0.375050 -0.031166
C5    C     C_2   0.484193 0.033958 0.428785 -0.058326
C6    C     C_2   0.515807 0.966042 0.571215 -0.058326
C7    C     C_1   0.933437 0.756071 0.764000 0.267546
C8    C     C_1   0.066563 0.243929 0.236000 0.267546
C9    C     C_1   0.431785 0.948248 0.245058 0.272760
C10   C     C_1   0.568215 0.051752 0.754942 0.272760
C11   C     C_R   0.504785 0.799588 0.546155 0.545253
C12   C     C_R   0.259615 0.498987 0.501786 0.569704
C13   C     C_R   0.740385 0.501013 0.498214 0.569704
C14   C     C_3   0.048260 0.491362 0.671135 -0.135008
C15   C     C_3   0.951740 0.508638 0.328865 -0.135008
C16   C     C_3   0.953977 0.368250 0.540023 0.073736
C17   C     C_3   0.046023 0.631749 0.459977 0.073736
C18   C     C_3   0.876687 0.500492 0.495934 -0.003018
Cu1   Cu    Cu3+1 0.514140 0.517380 0.684380 1.037854
Cu2   Cu    Cu3+1 0.485860 0.482620 0.315620 1.037854
H1    H     H_    0.089530 0.484990 0.810772 0.154347
H2    H     H_    0.910470 0.515010 0.189228 0.154347
H3    H     H_    0.399927 0.379899 0.948238 0.246705
H4    H     H_    0.600073 0.620100 0.051762 0.246705
I1    I     I_    0.877724 0.160226 0.603640 -0.284435
I2    I     I_    0.122276 0.839773 0.396360 -0.284435
N1    N     N_2   0.464560 0.456420 0.038510 -0.240332
N2    N     N_2   0.535440 0.543580 0.961490 -0.240332
N3    N     N_1   0.904577 0.860769 0.874011 -0.206877
N4    N     N_1   0.095423 0.139231 0.125989 -0.206877
N5    N     N_1   0.390100 0.881254 0.098839 -0.217707
N6    N     N_1   0.609900 0.118746 0.901161 -0.217708
O1    O     O_R   0.509190 0.286130 0.619780 -0.507857
O2    O     O_R   0.490810 0.713870 0.380220 -0.507857
O3    O     O_R   0.485310 0.256770 0.308360 -0.483631
O4    O     O_R   0.514690 0.743230 0.691640 -0.483631
O5    O     O_R   0.328790 0.514640 0.655680 -0.505720
O6    O     O_R   0.671210 0.485360 0.344320 -0.505720
O7    O     O_R   0.304910 0.485280 0.344260 -0.493828
O8    O     O_R   0.695090 0.514720 0.655740 -0.493828

loop_
_geom_bond_atom_site_label_1
_geom_bond_atom_site_label_2
_ccdc_geom_bond_type
C6    C10   S    
C15   C18   S    
C2    C4    S    
C4    C16   S    
C7    N3    T    
Cu2   N1    S    
H3    N1    S    
Cu2   O6    S    
Cu1   Cu2   S    
C4    C8    S    
C2    C12   S    
C8    N4    T    
C12   O7    A    
C1    O1    A    
C2    C17   S    
C5    C9    S    
Cu1   N2    S    
C13   O6    A    
C3    C14   S    
C13   C18   S    
C4    C15   S    
C1    C5    S    
C17   I2    S    
C14   H1    S    
C11   O4    A    
C15   H2    S    
C3    C17   S    
C3    C7    S    
Cu1   O4    S    
C6    C11   S    
C5    C6    D    
C2    C14   S    
C14   C16   S    
Cu1   O8    S    
C9    N5    T    
Cu2   O2    S    
C10   N6    T    
C12   O5    A    
C1    O3    A    
C3    C18   S    
C16   C18   S    
Cu1   O1    S    
C16   I1    S    
C15   C17   S    
Cu2   O7    S    
C13   O8    A    
Cu1   O5    S    
Cu2   O3    S    
C11   O2    A    
H4    N2    S    
N1    N2    D    
