data_mof_unit_42235.cif
_audit_creation_date              2012-12-11T14:15:23-0500
_audit_creation_method            fapswitch 2.2
_symmetry_space_group_name_H-M    P1
_symmetry_Int_Tables_number       1
_space_group_crystal_system       triclinic
_cell_length_a                    11.18119
_cell_length_b                    12.687994
_cell_length_c                    23.620637
_cell_angle_alpha                 90.466545
_cell_angle_beta                  96.272909
_cell_angle_gamma                 68.603059
_cell_volume                      3099.5177209

loop_
_atom_site_label
_atom_site_type_symbol
_atom_type_description
_atom_site_fract_x
_atom_site_fract_y
_atom_site_fract_z
_atom_type_partial_charge
C1    C     C_R   0.149677 0.616111 0.428790 0.542677
C2    C     C_R   0.634513 0.575159 0.315785 0.091196
C3    C     C_R   0.692395 0.744966 0.322733 0.054826
C4    C     C_R   0.674992 0.758266 0.262895 0.049713
C5    C     C_R   0.641383 0.675875 0.231513 0.003311
C6    C     C_R   0.589703 0.703763 0.175996 -0.021712
C7    C     C_R   0.690173 0.842495 0.172009 -0.018349
C8    C     C_R   0.688978 0.849736 0.232044 0.025901
C9    C     C_1   0.235017 0.163160 0.122577 -0.006421
C10   C     C_2   0.180996 0.235812 0.225975 0.044077
C11   C     C_2   0.157373 0.166422 0.263054 0.115312
C12   C     C_R   0.745832 0.606794 0.405446 0.567185
C13   C     C_1   0.134071 0.199449 0.321066 -0.053533
C14   C     C_1   0.209911 0.198983 0.169072 0.007301
C15   C     C_1   0.117275 0.232269 0.368719 -0.023377
C16   C     C_1   0.163908 0.754825 0.123653 -0.032846
C17   C     C_2   0.138888 0.730041 0.232665 0.013869
C18   C     C_2   0.226086 0.645221 0.266198 -0.112657
C19   C     C_1   0.213075 0.634617 0.326039 -0.053808
C20   C     C_1   0.151056 0.738683 0.172597 -0.043402
C21   C     C_1   0.190987 0.627634 0.374472 -0.005624
C22   C     C_1   0.603276 0.768564 0.860772 -0.019807
C23   C     C_R   0.101459 0.282436 0.423461 0.541607
C24   C     C_2   0.612510 0.760093 0.749841 0.085694
C25   C     C_2   0.664424 0.659211 0.727014 -0.065070
C26   C     C_1   0.677399 0.647558 0.667408 0.010033
C27   C     C_1   0.611851 0.764998 0.810564 -0.076037
C28   C     C_1   0.700791 0.631684 0.619044 0.009392
C29   C     C_R   0.199283 0.183351 0.853075 0.033535
C30   C     C_R   0.112871 0.211037 0.638496 -0.010180
C31   C     C_R   0.006131 0.164163 0.714162 0.113320
C32   C     C_R   0.009909 0.183855 0.655631 0.011988
C33   C     C_R   0.220388 0.196733 0.678380 0.006704
C34   C     C_R   0.152181 0.618610 0.589889 0.546101
C35   C     C_R   0.203250 0.204946 0.736419 0.035423
C36   C     C_R   0.097272 0.184648 0.755941 0.007638
C37   C     C_R   0.091792 0.181613 0.816107 -0.040367
C38   C     C_R   0.283151 0.230498 0.833114 0.093260
C39   C     C_R   0.284962 0.241510 0.774502 0.093096
C40   C     C_R   0.136535 0.749628 0.849569 0.028537
C41   C     C_R   0.202190 0.647252 0.646174 0.003172
C42   C     C_R   0.337341 0.590638 0.737379 0.041597
C43   C     C_R   0.317197 0.574971 0.678272 0.098335
C44   C     C_R   0.119029 0.741404 0.672561 0.011313
C45   C     C_R   0.748783 0.602513 0.565445 0.540963
C46   C     C_R   0.119030 0.735801 0.731489 0.058504
C47   C     C_R   0.232446 0.664641 0.764548 -0.025737
C48   C     C_R   0.239653 0.673260 0.823689 -0.175306
C49   C     C_R   0.016665 0.804763 0.817285 0.092196
C50   C     C_R   0.007699 0.797780 0.757720 0.095955
C51   C     C_R   0.265666 0.109931 0.069379 0.540726
C52   C     C_R   0.594344 0.777540 0.082483 0.544253
C53   C     C_R   0.186885 0.786612 0.068662 0.534959
C54   C     C_R   0.240942 0.116147 0.907488 0.566766
C55   C     C_R   0.572424 0.777302 0.917900 0.551840
C56   C     C_R   0.100561 0.275733 0.584623 0.544025
C57   C     C_R   0.165574 0.786797 0.906518 0.572082
C58   C     C_R   0.636081 0.769059 0.143630 0.023662
C59   C     C_R   0.680468 0.648461 0.348594 0.040459
C60   C     C_R   0.631205 0.580286 0.257213 -0.006326
Cr1   Cr    Cr6+3 0.189770 0.415650 0.511620 1.016318
Cr2   Cr    Cr6+3 0.930400 0.667320 0.496770 1.005693
Cr3   Cr    Cr6+3 0.879870 0.417010 0.491650 1.023484
Cr4   Cr    Cr6+3 0.149500 0.973980 0.985330 1.026717
Cr5   Cr    Cr6+3 0.457000 0.976510 0.994660 1.027654
Cr6   Cr    Cr6+3 0.411170 0.724270 0.995270 1.005632
H1    H     H_    0.706825 0.582970 0.754183 0.089472
H2    H     H_    0.328788 0.626136 0.849789 0.145024
H3    H     H_    0.305115 0.580824 0.248258 0.098827
O1    O     O_R   0.196340 0.303200 0.448500 -0.508695
O2    O     O_R   0.811960 0.658090 0.547150 -0.490447
O3    O     O_R   0.757930 0.506140 0.547110 -0.515555
O4    O     O_R   0.988670 0.321620 0.556040 -0.502141
O5    O     O_3   0.000020 0.499990 0.500010 -0.242966
O6    O     O_R   0.113660 0.883270 0.047820 -0.499743
O7    O     O_R   0.186930 0.068530 0.043990 -0.493884
O8    O     O_R   0.377770 0.089040 0.054220 -0.516078
O9    O     O_R   0.562800 0.872960 0.056970 -0.506902
O10   O     O_R   0.555390 0.700940 0.062700 -0.519793
O11   O     O_R   0.295020 0.731920 0.049950 -0.514980
O12   O     O_R   0.199310 0.519670 0.454880 -0.491305
O13   O     O_R   0.094290 0.884230 0.921550 -0.478544
O14   O     O_R   0.168980 0.069410 0.926940 -0.513201
O15   O     O_R   0.358400 0.089990 0.927950 -0.478621
O16   O     O_R   0.544850 0.873850 0.939920 -0.490393
O17   O     O_R   0.536020 0.701900 0.936430 -0.514932
O18   O     O_R   0.277070 0.732810 0.932890 -0.517760
O19   O     O_3   0.339220 0.891590 0.991750 -0.252139
O20   O     O_R   0.045660 0.691380 0.441680 -0.526767
O21   O     O_R   0.811930 0.659460 0.430950 -0.523587
O22   O     O_R   0.757900 0.507620 0.421760 -0.474919
O23   O     O_R   0.988630 0.322990 0.439840 -0.498987
O24   O     O_R   0.196380 0.301720 0.573850 -0.520511
O25   O     O_R   0.199350 0.518300 0.571080 -0.503053
O26   O     O_R   0.045700 0.689900 0.567030 -0.516185
C61   C     C_3   0.453194 0.707326 0.161733 -0.342727
H4    H     H_    0.407625 0.703674 0.200753 0.124328
H5    H     H_    0.392822 0.790066 0.140361 0.153424
H6    H     H_    0.451747 0.635212 0.135234 0.166402
C62   C     C_3   0.029667 0.820838 0.256855 -0.375386
H7    H     H_    0.983346 0.893564 0.226205 0.126402
H8    H     H_    0.957717 0.784746 0.267159 0.149576
H9    H     H_    0.065927 0.853805 0.296108 0.132117
N1    N     N_3   0.554299 0.861698 0.714808 -0.618223
H10   H     H_    0.597415 0.918908 0.729369 0.220250
H11   H     H_    0.456784 0.897148 0.721415 0.235561
C63   C     C_3   0.968849 0.196639 0.841971 -0.377416
H12   H     H_    0.972792 0.226589 0.886186 0.141456
H13   H     H_    0.885947 0.265127 0.818528 0.115441
H14   H     H_    0.951788 0.116093 0.843523 0.147555
N2    N     N_3   0.367020 0.265649 0.872855 -0.607821
H15   H     H_    0.462947 0.220169 0.866146 0.232801
H16   H     H_    0.346879 0.351907 0.865630 0.220036
N3    N     N_3   0.915237 0.116258 0.728863 -0.672804
H17   H     H_    0.962652 0.046402 0.756692 0.236205
H18   H     H_    0.837546 0.177124 0.745510 0.230818
N4    N     N_3   0.362119 0.297549 0.753122 -0.649354
H19   H     H_    0.326642 0.381243 0.765624 0.247008
H20   H     H_    0.458485 0.257995 0.770374 0.221735
C64   C     C_3   0.906754 0.171266 0.611881 -0.353202
H21   H     H_    0.945341 0.144713 0.570562 0.120076
H22   H     H_    0.872042 0.104658 0.624934 0.151681
H23   H     H_    0.823174 0.252833 0.605791 0.158773
C65   C     C_3   0.354780 0.159421 0.659534 -0.337616
H24   H     H_    0.360749 0.107329 0.621153 0.131127
H25   H     H_    0.380477 0.233330 0.649878 0.181306
H26   H     H_    0.428004 0.105365 0.693239 0.131702
C66   C     C_3   0.737144 0.917813 0.138341 -0.372585
H27   H     H_    0.806095 0.946855 0.164798 0.116521
H28   H     H_    0.789577 0.870382 0.103247 0.143282
H29   H     H_    0.654068 0.993585 0.120633 0.163425
N5    N     N_3   0.905907 0.868728 0.845137 -0.610528
H30   H     H_    0.833828 0.835331 0.835171 0.230022
H31   H     H_    0.871307 0.952749 0.829839 0.219863
C67   C     C_3   0.467062 0.526581 0.771255 -0.379073
H32   H     H_    0.541023 0.474705 0.744447 0.172928
H33   H     H_    0.504468 0.587872 0.793029 0.131852
H34   H     H_    0.457399 0.469412 0.804204 0.099072
N6    N     N_3   0.884571 0.844915 0.723942 -0.645635
H35   H     H_    0.840893 0.930620 0.732183 0.232251
H36   H     H_    0.826711 0.802380 0.735779 0.250876
N7    N     N_3   0.415366 0.489039 0.651557 -0.639253
H37   H     H_    0.433361 0.524183 0.615028 0.234612
H38   H     H_    0.382929 0.423553 0.640228 0.263082
C68   C     C_3   0.047214 0.853093 0.639822 -0.344303
H39   H     H_    0.097891 0.860357 0.602973 0.123128
H40   H     H_    0.946608 0.861865 0.624290 0.190010
H41   H     H_    0.045212 0.924801 0.667382 0.151699
C69   C     C_3   0.621260 0.481542 0.222746 -0.403476
H42   H     H_    0.696789 0.401158 0.240596 0.130297
H43   H     H_    0.524596 0.476266 0.223556 0.116002
H44   H     H_    0.638940 0.487677 0.177813 0.145961
C70   C     C_3   0.685933 0.958827 0.259932 -0.369910
H45   H     H_    0.666559 0.029371 0.228674 0.114506
H46   H     H_    0.604393 0.989099 0.286334 0.169625
H47   H     H_    0.778424 0.946846 0.286298 0.143969
N8    N     N_3   0.594073 0.494059 0.342478 -0.596508
H48   H     H_    0.499499 0.506247 0.325526 0.224577
H49   H     H_    0.654600 0.412075 0.334066 0.238097
N9    N     N_3   0.722515 0.828300 0.356648 -0.659970
H50   H     H_    0.821745 0.800021 0.369669 0.270886
H51   H     H_    0.667944 0.848125 0.391161 0.243324
N10   N     N_3   0.157114 0.057821 0.245643 -0.623014
H52   H     H_    0.226867 0.995883 0.272954 0.233114
H53   H     H_    0.066957 0.055047 0.251442 0.223105
C71   C     C_3   0.182226 0.350555 0.242667 -0.405005
H54   H     H_    0.200800 0.395292 0.206333 0.127371
H55   H     H_    0.087262 0.403780 0.256244 0.140532
H56   H     H_    0.259493 0.340714 0.278279 0.135369

loop_
_geom_bond_atom_site_label_1
_geom_bond_atom_site_label_2
_ccdc_geom_bond_type
Cr1   O1    S    
C67   H34   S    
Cr2   O20   S    
C1    C21   S    
N8    H48   S    
C45   O2    A    
C63   H13   S    
C6    C58   A    
C12   O22   A    
C35   C36   A    
C9    C51   S    
C24   C27   S    
C4    C8    A    
C66   H27   S    
N1    H11   S    
C68   H39   S    
C7    C8    A    
Cr6   O10   S    
C12   O21   A    
C36   C37   A    
N10   H53   S    
C37   C63   S    
N4    H20   S    
Cr6   O19   S    
C38   C39   A    
Cr1   O24   S    
C29   C54   S    
C1    O12   A    
C40   C49   A    
C61   H6    S    
C11   C13   S    
C17   C20   S    
C40   C48   A    
C18   C19   S    
C16   C53   S    
C54   O14   A    
N3    H17   S    
C33   C35   A    
C12   C59   S    
N2    H15   S    
C44   C46   A    
N5    H30   S    
C61   H5    S    
C29   C38   A    
C33   C65   S    
C63   H12   S    
Cr5   O9    S    
C7    C66   S    
C70   H46   S    
C52   O10   A    
C31   N3    S    
C5    C60   A    
C64   H23   S    
C10   C71   S    
C42   C47   A    
C25   H1    S    
C18   H3    S    
C15   C23   S    
N8    H49   S    
Cr2   O26   S    
C45   O3    A    
C71   H55   S    
C41   C43   A    
C23   O1    A    
C53   O6    A    
C34   C41   S    
C32   C64   S    
C52   O9    A    
C54   O15   A    
N1    H10   S    
C68   H40   S    
C64   H22   S    
C17   C18   D    
C31   C36   A    
C56   O24   A    
C49   N5    S    
C28   C45   S    
Cr5   O8    S    
C67   H32   S    
C53   O11   A    
C34   O26   A    
C10   C14   S    
C69   H44   S    
Cr6   O18   S    
Cr1   O25   S    
Cr5   O15   S    
Cr3   O4    S    
C25   C26   S    
C39   N4    S    
C30   C56   S    
C62   H9    S    
C48   H2    S    
C57   O18   A    
C42   C67   S    
C24   N1    S    
N9    H51   S    
C55   O16   A    
C35   C39   A    
C9    C14   T    
C51   O8    A    
Cr4   O14   S    
C47   C48   A    
C16   C20   T    
C61   H4    S    
C11   N10   S    
C44   C68   S    
Cr4   O7    S    
N2    H16   S    
C24   C25   D    
C70   H47   S    
C8    C70   S    
Cr4   O13   S    
C52   C58   S    
C65   H26   S    
Cr3   O23   S    
C2    C59   A    
C6    C61   S    
C22   C27   T    
C13   C15   T    
C71   H54   S    
C41   C44   A    
N7    H38   S    
C42   C43   A    
C29   C37   A    
C3    C4    A    
C66   H29   S    
C40   C57   S    
C68   H41   S    
C64   H21   S    
C50   N6    S    
Cr5   O19   S    
C65   H25   S    
C62   H8    S    
C67   H33   S    
C46   C47   A    
C1    O20   A    
C56   O4    A    
C7    C58   A    
C30   C33   A    
C19   C21   T    
C57   O13   A    
C31   C32   A    
C34   O25   A    
C4    C5    A    
C66   H28   S    
Cr6   O17   S    
N3    H18   S    
N6    H35   S    
Cr5   O16   S    
C22   C55   S    
Cr3   O5    S    
Cr1   O5    S    
Cr6   O11   S    
C46   C50   A    
C26   C28   T    
N9    H50   S    
C55   O17   A    
C69   H43   S    
C70   H45   S    
Cr1   O12   S    
C69   H42   S    
C30   C32   A    
N6    H36   S    
C3    N9    S    
C5    C6    A    
C2    N8    S    
Cr2   O21   S    
C62   H7    S    
C63   H14   S    
Cr4   O6    S    
Cr2   O2    S    
C2    C60   A    
C60   C69   S    
C17   C62   S    
N10   H52   S    
C10   C11   D    
Cr3   O3    S    
C71   H56   S    
N5    H31   S    
C49   C50   A    
Cr3   O22   S    
C51   O7    A    
N7    H37   S    
C23   O23   A    
Cr2   O5    S    
C43   N7    S    
C38   N2    S    
N4    H19   S    
Cr4   O19   S    
C65   H24   S    
C3    C59   A    
