data_mof_unit_38061.cif
_audit_creation_date              2012-10-26T20:00:56-0400
_audit_creation_method            fapswitch 2.2
_symmetry_space_group_name_H-M    P1
_symmetry_Int_Tables_number       1
_space_group_crystal_system       triclinic
_cell_length_a                    11.687811
_cell_length_b                    13.020342
_cell_length_c                    13.410681
_cell_angle_alpha                 92.127489
_cell_angle_beta                  76.60132
_cell_angle_gamma                 99.192237
_cell_volume                      1959.78401631

loop_
_atom_site_label
_atom_site_type_symbol
_atom_type_description
_atom_site_fract_x
_atom_site_fract_y
_atom_site_fract_z
_atom_type_partial_charge
C1    C     C_R   0.520987 0.700597 0.499135 0.557464
C2    C     C_R   0.398521 0.464732 0.807118 -0.011811
C3    C     C_R   0.469383 0.186670 0.492924 -0.017326
C4    C     C_R   0.436348 0.486510 0.695600 0.545330
C5    C     C_R   0.532808 0.813784 0.497092 -0.048371
C6    C     C_R   0.638141 0.981027 0.535865 0.239532
C7    C     C_R   0.629105 0.873315 0.528314 -0.168936
C8    C     C_R   0.448535 0.862895 0.464763 0.234609
C9    C     C_R   0.454810 0.970886 0.474835 0.013346
C10   C     C_R   0.550254 0.030199 0.510322 0.011667
C11   C     C_R   0.555822 0.137690 0.519864 -0.135734
C12   C     C_R   0.445327 0.448557 0.974657 0.019042
C13   C     C_R   0.374658 0.127813 0.458674 -0.152588
C14   C     C_R   0.367246 0.020678 0.449816 -0.127656
C15   C     C_R   0.933370 0.568056 0.616670 -0.154864
C16   C     C_R   0.479706 0.299459 0.498083 0.537540
C17   C     C_R   0.817970 0.566652 0.602203 0.018130
C18   C     C_R   0.863438 0.470824 0.447156 0.415935
C19   C     C_R   0.983640 0.476826 0.455863 0.003462
C20   C     C_R   0.017139 0.522807 0.543472 -0.033599
C21   C     C_R   0.134875 0.524021 0.554417 0.055848
C22   C     C_R   0.185306 0.438928 0.394802 0.019527
C23   C     C_R   0.479989 0.445256 0.866344 -0.060054
C24   C     C_R   0.071231 0.438747 0.379337 -0.168752
C25   C     C_R   0.563459 0.504024 0.303928 0.544152
C26   C     C_R   0.746857 0.471042 0.037350 0.268964
C27   C     C_R   0.599295 0.496170 0.192062 -0.071754
C28   C     C_R   0.279518 0.467944 0.856434 -0.192643
C29   C     C_R   0.240591 0.450801 0.961144 -0.118643
C30   C     C_R   0.320871 0.438261 0.020624 0.285305
C31   C     C_3   0.728305 0.033419 0.666765 -0.019427
C32   C     C_3   0.851401 0.063492 0.687989 -0.380266
C33   C     C_3   0.399308 0.791363 0.320289 -0.004587
C34   C     C_R   0.536226 0.460993 0.031335 -0.056365
C35   C     C_3   0.303712 0.721278 0.278925 -0.349604
C36   C     C_3   0.819005 0.319080 0.819680 0.019425
C37   C     C_3   0.952022 0.318578 0.780007 -0.350987
C38   C     C_3   0.824782 0.316482 0.360312 -0.014357
C39   C     C_3   0.843405 0.277539 0.250137 -0.386586
C40   C     C_3   0.927210 0.566480 0.972493 -0.105902
C41   C     C_3   0.264776 0.299855 0.127924 -0.148128
C42   C     C_R   0.656312 0.452935 0.981146 0.046173
C43   C     C_R   0.682470 0.427319 0.876282 0.243790
C44   C     C_R   0.594407 0.421438 0.821281 -0.129954
C45   C     C_R   0.512475 0.489298 0.135096 -0.141696
C46   C     C_R   0.716431 0.488410 0.142808 -0.140367
Cu1   Cu    Cu3+1 0.386470 0.492430 0.492410 0.943205
Cu2   Cu    Cu3+1 0.613530 0.507570 0.507590 0.967763
H1    H     H_    0.785118 0.495557 0.185798 0.182594
H2    H     H_    0.427021 0.508923 0.173051 0.196596
H3    H     H_    0.215248 0.481117 0.813550 0.124433
H4    H     H_    0.146738 0.446165 0.996724 0.146016
H5    H     H_    0.618472 0.396064 0.742860 0.163035
H6    H     H_    0.627017 0.183472 0.548914 0.149302
H7    H     H_    0.691680 0.954168 0.699388 0.119947
H8    H     H_    0.670087 0.089285 0.706534 0.120942
H9    H     H_    0.893205 0.140214 0.652760 0.160916
H10   H     H_    0.844473 0.067735 0.771981 0.084287
H11   H     H_    0.908366 0.004487 0.654619 0.158126
H12   H     H_    0.306945 0.164646 0.437411 0.129991
H13   H     H_    0.480889 0.753631 0.303301 0.127751
H14   H     H_    0.419197 0.867387 0.279515 0.112945
H15   H     H_    0.335448 0.709920 0.195162 0.091331
H16   H     H_    0.283490 0.644329 0.317273 0.192319
H17   H     H_    0.221249 0.757020 0.293131 0.151341
H18   H     H_    0.770180 0.272098 0.767191 0.105483
H19   H     H_    0.791702 0.282753 0.897342 0.145662
H20   H     H_    0.002984 0.372464 0.826022 0.184342
H21   H     H_    0.973282 0.239402 0.786293 0.084044
H22   H     H_    0.979974 0.343606 0.698553 0.146852
H23   H     H_    0.293049 0.977296 0.423012 0.154303
H24   H     H_    0.736559 0.278305 0.401520 0.176086
H25   H     H_    0.891188 0.289237 0.396444 0.110040
H26   H     H_    0.929821 0.316115 0.203487 0.160725
H27   H     H_    0.843060 0.192156 0.248571 0.105122
H28   H     H_    0.770445 0.294262 0.215938 0.162190
H29   H     H_    0.019249 0.561441 0.929096 0.123457
H30   H     H_    0.933192 0.608539 0.045297 0.103344
H31   H     H_    0.886402 0.611347 0.924534 0.131299
H32   H     H_    0.354283 0.275345 0.109296 0.125954
H33   H     H_    0.208659 0.259145 0.077292 0.118567
H34   H     H_    0.697415 0.836399 0.548513 0.149266
H35   H     H_    0.221000 0.275025 0.207669 0.119084
H36   H     H_    0.162242 0.560409 0.620795 0.121569
H37   H     H_    0.250432 0.407226 0.336362 0.161118
H38   H     H_    0.957029 0.604902 0.684421 0.114880
H39   H     H_    0.052875 0.408681 0.307585 0.149743
H40   H     H_    0.754810 0.602778 0.658909 0.139954
N1    N     N_R   0.215880 0.481050 0.481000 -0.237724
N2    N     N_R   0.784100 0.518950 0.519000 -0.224952
O1    O     O_R   0.419710 0.645650 0.494620 -0.444037
O2    O     O_3   0.357524 0.805314 0.426814 -0.543890
O3    O     O_3   0.797757 0.422832 0.822587 -0.537283
O4    O     O_3   0.828574 0.426000 0.361283 -0.545447
O5    O     O_3   0.864331 0.464705 0.991628 -0.551956
O6    O     O_3   0.273814 0.408878 0.121601 -0.608386
O7    O     O_R   0.611450 0.658430 0.507430 -0.520298
O8    O     O_R   0.357340 0.490460 0.641450 -0.511274
O9    O     O_R   0.549080 0.503250 0.654260 -0.524889
O10   O     O_R   0.388550 0.341570 0.492570 -0.504253
O11   O     O_R   0.580290 0.354350 0.505380 -0.513455
O12   O     O_R   0.450920 0.496750 0.345740 -0.526683
O13   O     O_R   0.642660 0.509540 0.358550 -0.441845
O14   O     O_3   0.738274 0.038343 0.560024 -0.567837

loop_
_geom_bond_atom_site_label_1
_geom_bond_atom_site_label_2
_ccdc_geom_bond_type
C37   H21   S    
C17   H40   S    
C14   H23   S    
C19   C20   A    
C34   C42   A    
C32   H10   S    
C43   C44   A    
C41   H32   S    
C36   H19   S    
C13   H12   S    
C21   N1    A    
Cu2   O7    S    
C46   H1    S    
Cu1   O8    S    
C1    C5    S    
C36   C37   S    
C33   H14   S    
C4    O8    A    
C38   C39   S    
C28   H3    S    
C36   H18   S    
C25   O12   A    
C22   H37   S    
C41   O6    S    
C35   H17   S    
C41   H35   S    
C37   H20   S    
C18   C19   A    
C39   H26   S    
C30   O6    S    
C43   O3    S    
C44   H5    S    
C31   C32   S    
C8    C9    A    
C35   H16   S    
C8    O2    S    
C39   H27   S    
C31   H8    S    
C9    C10   A    
C3    C13   A    
C27   C45   A    
C1    O1    A    
Cu1   O12   S    
Cu2   N2    S    
C13   C14   A    
Cu1   N1    S    
C32   H9    S    
C36   O3    S    
C15   C20   A    
C38   H24   S    
C18   N2    A    
C33   O2    S    
C1    O7    A    
C5    C7    A    
C26   C46   A    
C16   O10   A    
Cu2   O13   S    
Cu1   O10   S    
C2    C4    S    
C9    C14   A    
C29   C30   A    
Cu1   Cu2   S    
C12   C23   A    
C21   H36   S    
C41   H33   S    
C38   O4    S    
C40   H31   S    
C34   C45   A    
C39   H28   S    
C11   H6    S    
C15   H38   S    
C27   C46   A    
C6    O14   S    
C18   O4    S    
C40   H30   S    
C42   C43   A    
C40   O5    S    
C12   C34   A    
C26   C42   A    
C26   O5    S    
C15   C17   A    
Cu2   O9    S    
C28   C29   A    
C12   C30   A    
Cu1   O1    S    
C25   O13   A    
C17   N2    A    
C6    C10   A    
C5    C8    A    
C35   H15   S    
C6    C7    A    
C25   C27   S    
C31   O14   S    
C19   C24   A    
C45   H2    S    
Cu2   O11   S    
C33   C35   S    
C22   N1    A    
C22   C24   A    
C24   H39   S    
C3    C11   A    
C10   C11   A    
C23   C44   A    
C16   O11   A    
C7    H34   S    
C20   C21   A    
C33   H13   S    
C4    O9    A    
C2    C23   A    
C40   H29   S    
C2    C28   A    
C32   H11   S    
C31   H7    S    
C37   H22   S    
C38   H25   S    
C3    C16   S    
C29   H4    S    
