data_mof_unit_36601.cif
_audit_creation_date              2012-12-11T14:40:20-0500
_audit_creation_method            fapswitch 2.2
_symmetry_space_group_name_H-M    P1
_symmetry_Int_Tables_number       1
_space_group_crystal_system       triclinic
_cell_length_a                    19.523612
_cell_length_b                    10.940229
_cell_length_c                    19.448861
_cell_angle_alpha                 90.261831
_cell_angle_beta                  97.379274
_cell_angle_gamma                 89.85821
_cell_volume                      4119.68007339

loop_
_atom_site_label
_atom_site_type_symbol
_atom_type_description
_atom_site_fract_x
_atom_site_fract_y
_atom_site_fract_z
_atom_type_partial_charge
C1    C     C_R   0.725120 0.954034 0.361295 0.554806
C2    C     C_3   0.267946 0.349457 0.561035 -0.002982
C3    C     C_3   0.245370 0.892232 0.434109 0.042693
C4    C     C_3   0.767945 0.849458 0.561035 -0.002514
C5    C     C_3   0.707854 0.488190 0.471561 0.207071
C6    C     C_3   0.249707 0.478951 0.537223 0.250033
C7    C     C_3   0.207855 0.988191 0.471561 0.207021
C8    C     C_3   0.749708 0.978953 0.537223 0.250179
C9    C     C_3   0.776427 0.516781 0.517168 -0.145331
C10   C     C_3   0.191775 0.429569 0.484036 -0.094381
C11   C     C_3   0.276429 0.016780 0.517168 -0.145524
C12   C     C_R   0.273398 0.948481 0.640490 0.583357
C13   C     C_3   0.691775 0.929573 0.484037 -0.094121
C14   C     C_3   0.814013 0.418033 0.479239 -0.167800
C15   C     C_3   0.210217 0.298052 0.507772 -0.116176
C16   C     C_3   0.314013 0.918030 0.479239 -0.167975
C17   C     C_3   0.710215 0.798055 0.507772 -0.116253
C18   C     C_3   0.795885 0.319628 0.530624 -0.095479
C19   C     C_3   0.263175 0.286865 0.454871 -0.144634
C20   C     C_3   0.295884 0.819626 0.530625 -0.095382
C21   C     C_3   0.763173 0.786866 0.454872 -0.144932
C22   C     C_3   0.758054 0.417567 0.568124 0.066356
C23   C     C_R   0.225120 0.454032 0.361294 0.556146
C24   C     C_3   0.244757 0.417241 0.431877 0.050950
C25   C     C_3   0.258054 0.917567 0.568124 0.065945
C26   C     C_3   0.744756 0.917243 0.431878 0.051312
C27   C     C_3   0.497704 0.275432 0.980046 0.257815
C28   C     C_3   0.448740 0.264366 0.034157 0.251793
C29   C     C_3   0.050771 0.764885 0.966487 0.252223
C30   C     C_3   0.001675 0.774604 0.020602 0.258306
C31   C     C_3   0.546453 0.179690 0.016441 -0.135762
C32   C     C_3   0.407426 0.162842 0.992398 -0.166121
C33   C     C_3   0.092674 0.663477 0.007498 -0.166990
C34   C     C_R   0.773398 0.448481 0.640489 0.581786
C35   C     C_3   0.953563 0.678580 0.983442 -0.134948
C36   C     C_3   0.496448 0.169044 0.071510 0.051305
C37   C     C_3   0.457694 0.174762 0.937587 0.033732
C38   C     C_3   0.042282 0.673982 0.062352 0.031644
C39   C     C_3   0.003691 0.669373 0.928355 0.053570
C40   C     C_R   0.564133 0.183631 0.348218 0.538998
C41   C     C_R   0.465947 0.179681 0.662816 0.548378
C42   C     C_R   0.064145 0.683632 0.348218 0.541439
C43   C     C_R   0.965946 0.679681 0.662811 0.539695
C44   C     C_3   0.456603 0.065198 0.030586 -0.161107
C45   C     C_3   0.726593 0.292260 0.484540 -0.064730
C46   C     C_3   0.505928 0.076668 0.974249 -0.141310
C47   C     C_3   0.994692 0.575666 0.024889 -0.141940
C48   C     C_3   0.044136 0.565585 0.968501 -0.160641
C49   C     C_1   0.756974 0.409350 0.899567 0.014367
C50   C     C_1   0.241675 0.411213 0.099715 0.026743
C51   C     C_1   0.258301 0.912105 0.900321 0.027061
C52   C     C_1   0.743075 0.908376 0.100490 0.013514
C53   C     C_1   0.733596 0.358737 0.025493 -0.034659
C54   C     C_1   0.263847 0.364234 0.973209 -0.042738
C55   C     C_1   0.236466 0.864941 0.026814 -0.042366
C56   C     C_3   0.321496 0.338358 0.509466 -0.192373
C57   C     C_1   0.766839 0.857873 0.974546 -0.035385
C58   C     C_1   0.744211 0.383268 0.956611 -0.017258
C59   C     C_1   0.253467 0.387092 0.042150 -0.009378
C60   C     C_1   0.246644 0.888072 0.957872 -0.009500
C61   C     C_1   0.756030 0.882153 0.043444 -0.017094
C62   C     C_1   0.727330 0.338420 0.085142 -0.009244
C63   C     C_1   0.270994 0.343369 0.913914 -0.013458
C64   C     C_1   0.229389 0.843769 0.086042 -0.011792
C65   C     C_1   0.773117 0.837914 0.914811 -0.011452
C66   C     C_R   0.739557 0.363824 0.361653 0.569334
C67   C     C_3   0.226591 0.792261 0.484540 -0.064800
C68   C     C_R   0.275386 0.310967 0.632436 0.561342
C69   C     C_R   0.239557 0.863825 0.361653 0.569994
C70   C     C_R   0.775385 0.810968 0.632436 0.560480
C71   C     C_R   0.722761 0.950603 0.164540 0.541316
C72   C     C_R   0.277400 0.951213 0.835556 0.541994
C73   C     C_R   0.222592 0.450918 0.164489 0.535636
C74   C     C_R   0.777239 0.450904 0.835504 0.547682
C75   C     C_R   0.527557 0.178354 0.142736 0.575225
C76   C     C_R   0.436980 0.182826 0.863160 0.545892
C77   C     C_R   0.063000 0.682306 0.136820 0.545263
C78   C     C_3   0.821495 0.838356 0.509466 -0.192221
C79   C     C_R   0.972521 0.678467 0.857186 0.570546
C80   C     C_R   0.722102 0.310215 0.156096 0.549466
C81   C     C_R   0.277461 0.312057 0.843822 0.533753
C82   C     C_R   0.222724 0.812165 0.155990 0.527142
C83   C     C_R   0.778089 0.810101 0.843703 0.556224
C84   C     C_1   0.495250 0.170588 0.599381 0.025079
C85   C     C_1   0.545185 0.175274 0.416584 -0.021933
C86   C     C_1   0.995263 0.670588 0.599385 0.026952
C87   C     C_1   0.045210 0.675276 0.416591 -0.023419
C88   C     C_1   0.530833 0.169332 0.474749 -0.037082
C89   C     C_3   0.745370 0.392233 0.434109 0.043019
C90   C     C_1   0.513567 0.167306 0.542727 0.003469
C91   C     C_1   0.030861 0.669334 0.474758 -0.037210
C92   C     C_1   0.013590 0.667307 0.542735 0.004024
C93   C     C_3   0.690216 0.391652 0.522687 0.228046
C94   C     C_3   0.301632 0.468919 0.485320 0.239659
C95   C     C_3   0.190216 0.891655 0.522687 0.228012
C96   C     C_3   0.801633 0.968918 0.485321 0.239584
Cr1   Cr    Cr6+3 0.765830 0.160660 0.268180 1.070542
Cr2   Cr    Cr6+3 0.384070 0.324050 0.751550 1.058772
Cr3   Cr    Cr6+3 0.115930 0.824050 0.248450 1.079671
Cr4   Cr    Cr6+3 0.884070 0.824050 0.751550 1.051913
Cr5   Cr    Cr6+3 0.234170 0.160660 0.731820 1.054943
Cr6   Cr    Cr6+3 0.265830 0.660660 0.268180 1.065604
Cr7   Cr    Cr6+3 0.734170 0.660660 0.731820 1.059855
Cr8   Cr    Cr6+3 0.612110 0.009150 0.248770 1.040852
Cr9   Cr    Cr6+3 0.387890 0.009150 0.751230 1.030475
Cr10  Cr    Cr6+3 0.112110 0.509150 0.248770 1.042854
Cr11  Cr    Cr6+3 0.887890 0.509150 0.751230 1.029168
Cr12  Cr    Cr6+3 0.615930 0.324050 0.248450 1.072080
H1    H     H_    0.704740 0.202070 0.467334 0.143759
H2    H     H_    0.171976 0.231260 0.521982 0.178172
H3    H     H_    0.364454 0.929912 0.459481 0.144983
H4    H     H_    0.671973 0.731264 0.521981 0.178173
H5    H     H_    0.833082 0.252886 0.556899 0.158142
H6    H     H_    0.269039 0.211080 0.417958 0.176972
H7    H     H_    0.333079 0.752882 0.556901 0.158293
H8    H     H_    0.769035 0.711081 0.417958 0.176879
H9    H     H_    0.603549 0.186932 0.027120 0.108178
H10   H     H_    0.350522 0.153748 0.981674 0.107150
H11   H     H_    0.149621 0.654957 0.018199 0.107470
H12   H     H_    0.374698 0.301806 0.521559 0.117568
H13   H     H_    0.896429 0.685185 0.972760 0.108117
H14   H     H_    0.440211 0.978825 0.053295 0.146265
H15   H     H_    0.529385 0.999337 0.948363 0.155046
H16   H     H_    0.971723 0.497701 0.050149 0.154801
H17   H     H_    0.061111 0.479737 0.945117 0.146375
H18   H     H_    0.591226 0.389954 0.510015 0.318148
H19   H     H_    0.383527 0.562292 0.512653 0.314736
H20   H     H_    0.091226 0.889980 0.510022 0.318049
H21   H     H_    0.883528 0.062290 0.512655 0.314734
H22   H     H_    0.618576 0.566506 0.454282 0.327482
H23   H     H_    0.204738 0.702071 0.467335 0.143616
H24   H     H_    0.287040 0.584578 0.611716 0.333105
H25   H     H_    0.118580 0.066519 0.454286 0.327465
H26   H     H_    0.787047 0.084582 0.611712 0.332855
H27   H     H_    0.545716 0.428009 0.994341 0.332103
H28   H     H_    0.404788 0.421588 0.030588 0.338312
H29   H     H_    0.094661 0.921853 0.971583 0.338038
H30   H     H_    0.952673 0.926586 0.007255 0.332066
H31   H     H_    0.874696 0.801801 0.521560 0.118070
H32   H     H_    0.300639 0.103193 0.536670 0.100917
H33   H     H_    0.638855 0.967844 0.472706 0.130238
H34   H     H_    0.800637 0.603194 0.536670 0.101208
H35   H     H_    0.138854 0.467836 0.472705 0.130037
H36   H     H_    0.864454 0.429917 0.459481 0.145319
O1    O     O_R   0.783230 0.287800 0.346510 -0.493085
O2    O     O_R   0.454570 0.285140 0.836900 -0.438663
O3    O     O_R   0.045430 0.785140 0.163100 -0.434992
O4    O     O_R   0.954570 0.785140 0.836900 -0.481609
O5    O     O_R   0.677850 0.374730 0.185500 -0.486965
O6    O     O_R   0.322150 0.374730 0.814500 -0.483721
O7    O     O_R   0.177850 0.874730 0.185500 -0.492349
O8    O     O_R   0.822150 0.874730 0.814500 -0.478382
O9    O     O_3   0.664630 0.164620 0.255130 -0.322459
O10   O     O_3   0.335370 0.164620 0.744870 -0.337954
O11   O     O_3   0.164630 0.664620 0.255130 -0.343313
O12   O     O_R   0.216770 0.287800 0.653490 -0.484796
O13   O     O_3   0.835370 0.664620 0.744870 -0.317117
O14   O     O_R   0.760130 0.037060 0.338610 -0.461000
O15   O     O_R   0.239870 0.037060 0.661390 -0.497734
O16   O     O_R   0.260130 0.537060 0.338610 -0.458910
O17   O     O_R   0.739870 0.537060 0.661390 -0.499813
O18   O     O_R   0.666620 0.921370 0.332440 -0.514476
O19   O     O_R   0.333380 0.921370 0.667560 -0.523636
O20   O     O_R   0.166620 0.421370 0.332440 -0.513680
O21   O     O_R   0.833380 0.421370 0.667560 -0.524409
O22   O     O_R   0.557170 0.082420 0.312350 -0.489016
O23   O     O_R   0.283230 0.787800 0.346510 -0.492257
O24   O     O_R   0.442830 0.082420 0.687650 -0.492400
O25   O     O_R   0.057170 0.582420 0.312350 -0.480922
O26   O     O_R   0.942830 0.582420 0.687650 -0.498567
O27   O     O_R   0.548310 0.285980 0.316250 -0.484608
O28   O     O_R   0.451690 0.285980 0.683750 -0.505924
O29   O     O_R   0.048310 0.785980 0.316250 -0.481138
O30   O     O_R   0.951690 0.785980 0.683750 -0.507328
O31   O     O_R   0.680520 0.375500 0.327470 -0.482800
O32   O     O_R   0.319480 0.375500 0.672530 -0.493649
O33   O     O_R   0.180520 0.875500 0.327470 -0.483000
O34   O     O_R   0.716770 0.787800 0.653490 -0.485611
O35   O     O_R   0.819480 0.875500 0.672530 -0.493516
O36   O     O_R   0.780350 0.286970 0.193350 -0.492382
O37   O     O_R   0.219650 0.286970 0.806650 -0.482074
O38   O     O_R   0.280350 0.786970 0.193350 -0.491315
O39   O     O_R   0.719650 0.786970 0.806650 -0.483131
O40   O     O_R   0.757460 0.036290 0.196640 -0.506710
O41   O     O_R   0.242540 0.036290 0.803360 -0.504330
O42   O     O_R   0.257460 0.536290 0.196640 -0.505533
O43   O     O_R   0.742540 0.536290 0.803360 -0.505560
O44   O     O_R   0.663740 0.920540 0.179290 -0.499778
O45   O     O_R   0.554500 0.081650 0.170370 -0.507965
O46   O     O_R   0.336260 0.920540 0.820710 -0.509154
O47   O     O_R   0.163740 0.420540 0.179290 -0.508385
O48   O     O_R   0.836260 0.420540 0.820710 -0.500727
O49   O     O_3   0.627734 0.378835 0.549762 -0.678242
O50   O     O_3   0.348151 0.559539 0.471293 -0.676068
O51   O     O_3   0.127736 0.878842 0.549765 -0.678024
O52   O     O_3   0.848153 0.059536 0.471294 -0.676162
O53   O     O_3   0.662536 0.570386 0.434077 -0.704558
O54   O     O_3   0.241847 0.576090 0.582505 -0.675375
O55   O     O_3   0.162538 0.070388 0.434075 -0.704328
O56   O     O_R   0.445500 0.081650 0.829630 -0.497482
O57   O     O_3   0.741851 0.076092 0.582505 -0.675327
O58   O     O_3   0.519104 0.386176 0.954194 -0.658414
O59   O     O_3   0.420345 0.362027 0.067586 -0.672532
O60   O     O_3   0.078607 0.863365 0.933925 -0.671982
O61   O     O_3   0.979450 0.884786 0.047167 -0.657242
O62   O     O_R   0.054500 0.581650 0.170370 -0.493973
O63   O     O_R   0.945500 0.581650 0.829630 -0.509888
O64   O     O_R   0.545430 0.285140 0.163100 -0.480113

loop_
_geom_bond_atom_site_label_1
_geom_bond_atom_site_label_2
_ccdc_geom_bond_type
C19   C56   S    
C21   C26   S    
Cr11  O21   S    
C8    C13   S    
C53   C58   S    
C87   C91   T    
C27   O58   S    
C14   C18   S    
C20   C67   S    
C8    C96   S    
H20   O51   S    
C81   O37   A    
C71   O44   A    
C4    C8    S    
C34   O17   A    
C35   C47   S    
C78   H31   S    
Cr2   O10   S    
C73   O42   A    
C68   O32   A    
Cr4   O8    S    
C56   C94   S    
C25   C95   S    
Cr6   O23   S    
C30   C35   S    
C63   C81   S    
Cr7   O39   S    
C50   C59   T    
C80   O36   A    
C62   C80   S    
C8    O57   S    
C75   O45   A    
C27   C37   S    
Cr3   O33   S    
C3    C7    S    
C10   C15   S    
C31   C36   S    
Cr8   O18   S    
C43   O30   A    
C45   H1    S    
C70   O35   A    
C65   C83   S    
C20   C25   S    
C11   C25   S    
C81   O6    A    
Cr12  O31   S    
C29   C33   S    
C30   C38   S    
C4    C78   S    
C11   C16   S    
C28   O59   S    
C31   H9    S    
C66   O1    A    
C69   O33   A    
C48   H17   S    
C15   C19   S    
Cr4   O13   S    
H30   O61   S    
Cr9   O56   S    
Cr12  O9    S    
C78   C96   S    
C6    C94   S    
C31   C46   S    
Cr3   O11   S    
Cr11  O48   S    
C23   C24   S    
Cr9   O19   S    
C11   H32   S    
Cr1   O9    S    
Cr8   O9    S    
C66   C89   S    
C34   O21   A    
C45   C89   S    
C77   O3    A    
Cr11  O63   S    
C82   O7    A    
Cr12  O64   S    
C66   O31   A    
Cr2   O28   S    
Cr9   O10   S    
C76   O2    A    
H25   O55   S    
C29   O60   S    
C18   C22   S    
C55   C60   S    
C55   C64   T    
Cr8   O44   S    
C67   C95   S    
C56   H12   S    
C15   H2    S    
C2    C6    S    
C84   C90   T    
Cr10  O47   S    
C21   H8    S    
Cr5   O41   S    
C71   O40   A    
C18   H5    S    
C72   O46   A    
Cr11  O13   S    
C43   O26   A    
C44   C46   S    
C7    C11   S    
H27   O58   S    
C54   C59   S    
C26   C96   S    
C80   O5    A    
C22   C34   S    
C41   O28   A    
C14   H36   S    
C4    C70   S    
Cr7   O17   S    
C27   C31   S    
Cr6   O38   S    
C28   C32   S    
Cr7   O43   S    
C76   O56   A    
H19   O50   S    
Cr6   O16   S    
C91   C92   S    
C6    O54   S    
C70   O34   A    
Cr1   O36   S    
C5    O53   S    
Cr2   O2    S    
Cr5   O12   S    
C10   C24   S    
C30   O61   S    
Cr3   O7    S    
C17   C21   S    
C49   C58   T    
C39   C79   S    
C40   C85   S    
C21   C78   S    
C35   C39   S    
C9    C14   S    
C69   O23   A    
C14   C89   S    
C5    C9    S    
C29   C30   S    
C36   C75   S    
C24   C94   S    
Cr2   O32   S    
C75   O64   A    
C47   C48   S    
Cr3   O29   S    
C35   H13   S    
C16   C20   S    
C42   O25   A    
C23   O16   A    
C29   C39   S    
H24   O54   S    
C32   C44   S    
C83   O39   A    
Cr6   O42   S    
C32   C37   S    
C2    C15   S    
C64   C82   S    
C38   C47   S    
C73   O47   A    
C67   H23   S    
C74   O48   A    
C4    C17   S    
H29   O60   S    
C37   C76   S    
C88   C90   S    
C45   C93   S    
C33   H11   S    
Cr10  O20   S    
Cr4   O30   S    
C1    C26   S    
Cr10  O25   S    
Cr1   O1    S    
C46   H15   S    
C36   C44   S    
C51   C72   S    
C17   H4    S    
H22   O53   S    
C18   C45   S    
C32   H10   S    
C27   C28   S    
H21   O52   S    
Cr5   O37   S    
Cr1   O40   S    
C83   O8    A    
Cr2   O6    S    
C85   C88   T    
Cr3   O3    S    
C1    O14   A    
C95   O51   S    
C13   H33   S    
C3    C69   S    
C94   O50   S    
C43   C86   S    
C40   O22   A    
Cr9   O46   S    
C93   O49   S    
C57   C65   T    
C41   O24   A    
C68   O12   A    
C42   O29   A    
Cr10  O62   S    
C20   H7    S    
C5    C93   S    
C9    H34   S    
C57   C61   S    
C79   O4    A    
C51   C60   T    
C38   C77   S    
C7    C95   S    
C82   O38   A    
C2    C68   S    
C33   C38   S    
C19   H6    S    
Cr9   O24   S    
C13   C17   S    
C12   C25   S    
C52   C61   T    
Cr7   O34   S    
Cr1   O14   S    
C19   C24   S    
C52   C71   S    
C86   C92   T    
C77   O62   A    
C12   O19   A    
C41   C84   S    
H18   O49   S    
C47   H16   S    
C23   O20   A    
C3    C67   S    
Cr5   O10   S    
Cr4   O4    S    
C79   O63   A    
Cr8   O45   S    
C50   C73   S    
C44   H14   S    
C22   C93   S    
Cr10  O11   S    
C10   H35   S    
C40   O27   A    
C12   O15   A    
C7    O55   S    
C13   C26   S    
C72   O41   A    
C1    O18   A    
C6    C10   S    
C74   O43   A    
Cr8   O22   S    
Cr12  O5    S    
C96   O52   S    
Cr5   O15   S    
Cr7   O13   S    
C28   C36   S    
C53   C62   T    
C9    C22   S    
C54   C63   T    
Cr12  O27   S    
H26   O57   S    
C33   C48   S    
C49   C74   S    
C2    C56   S    
C42   C87   S    
C37   C46   S    
Cr4   O35   S    
Cr6   O11   S    
H28   O59   S    
C5    C89   S    
C3    C16   S    
C16   H3    S    
C39   C48   S    
Cr11  O26   S    
