data_mof_unit_45801.cif
_audit_creation_date              2013-03-05T16:12:11-0500
_audit_creation_method            fapswitch 2.2
_symmetry_space_group_name_H-M    P1
_symmetry_Int_Tables_number       1
_space_group_crystal_system       triclinic
_cell_length_a                    10.734405
_cell_length_b                    9.479041
_cell_length_c                    27.748388
_cell_angle_alpha                 89.632607
_cell_angle_beta                  89.207918
_cell_angle_gamma                 89.779629
_cell_volume                      2823.1024607

loop_
_atom_site_label
_atom_site_type_symbol
_atom_site_description
_atom_site_fract_x
_atom_site_fract_y
_atom_site_fract_z
_atom_type_partial_charge
O1    O     O_R   0.317570 0.620260 0.500030 -0.601992
O2    O     O_R   0.317570 0.379740 0.500030 -0.588120
C1    C     C_R   0.259725 0.499956 0.500121 0.740886
O3    O     O_R   0.499900 0.620250 0.430280 -0.588648
O4    O     O_R   0.499900 0.379750 0.430280 -0.589007
C2    C     C_R   0.499613 0.500422 0.407712 0.796094
Cu1   Cu    Cu3+1 0.499860 0.642410 0.500020 0.922899
Cu2   Cu    Cu3+1 0.499860 0.357590 0.500020 0.919455
O5    O     O_R   0.682190 0.620260 0.500010 -0.598662
O6    O     O_R   0.682190 0.379740 0.500010 -0.600855
O7    O     O_R   0.499860 0.620280 0.569750 -0.526309
O8    O     O_R   0.499860 0.379720 0.569750 -0.544047
C3    C     C_R   0.739816 0.499526 0.499881 0.742801
C4    C     C_R   0.499718 0.499655 0.592140 0.797830
C5    C     C_R   0.456604 0.383231 0.178260 0.532185
O9    O     O_2   0.422909 0.266792 0.203403 -0.542535
N1    N     N_R   0.489249 0.503553 0.202084 -0.464998
C6    C     C_R   0.519315 0.624341 0.177160 0.532490
C7    C     C_R   0.423400 0.603172 0.280393 -0.094628
C8    C     C_R   0.427703 0.603886 0.330574 -0.234921
C9    C     C_R   0.564809 0.399952 0.328884 -0.234768
C10   C     C_R   0.563756 0.402106 0.278649 -0.093692
C11   C     C_R   0.492168 0.502967 0.253987 0.335603
C12   C     C_R   0.484779 0.504221 0.101517 -0.045336
C13   C     C_R   0.456766 0.380434 0.127682 -0.016551
C14   C     C_R   0.428500 0.256928 0.102944 -0.147027
C15   C     C_R   0.514643 0.627801 0.126627 -0.016546
C16   C     C_R   0.497587 0.501545 0.355038 -0.033821
H1    H     H_    0.619852 0.320759 0.347306 0.140707
H2    H     H_    0.618557 0.325143 0.258870 0.156268
H3    H     H_    0.404991 0.160644 0.122208 0.187611
C17   C     C_R   0.497018 0.499149 0.644480 -0.011701
C18   C     C_R   0.468568 0.374924 0.974374 0.044999
C19   C     C_R   0.495180 0.633581 0.973547 0.044894
C20   C     C_R   0.481912 0.504154 0.948655 0.066422
C21   C     C_R   0.464769 0.248001 0.947874 -0.207505
C22   C     C_R   0.469038 0.248734 0.897813 -0.147139
C23   C     C_R   0.476505 0.375853 0.872190 -0.015836
C24   C     C_R   0.482372 0.503920 0.897459 -0.047161
C25   C     C_R   0.489059 0.631725 0.871436 -0.016409
C26   C     C_R   0.488696 0.629186 0.820864 0.529926
N2    N     N_R   0.485441 0.503301 0.796977 -0.464430
C27   C     C_R   0.479923 0.377754 0.821606 0.530264
C28   C     C_R   0.390657 0.443266 0.719497 -0.128398
C29   C     C_R   0.395105 0.440717 0.669300 -0.239970
C30   C     C_R   0.594305 0.560818 0.669838 -0.259278
C31   C     C_R   0.590850 0.561401 0.720064 -0.114165
C32   C     C_R   0.488889 0.502824 0.745189 0.349462
O10   O     O_2   0.479109 0.254973 0.797231 -0.546535
C33   C     C_R   0.460987 0.376517 0.025503 0.043724
C34   C     C_R   0.483171 0.504352 0.050333 0.067867
C35   C     C_R   0.504052 0.632234 0.024566 0.043818
C36   C     C_R   0.431141 0.254519 0.052886 -0.211101
H4    H     H_    0.318668 0.394789 0.649781 0.151727
H5    H     H_    0.310983 0.398967 0.738463 0.150608
H6    H     H_    0.466258 0.148600 0.879249 0.182647
H7    H     H_    0.462001 0.145426 0.964787 0.129782
H8    H     H_    0.406062 0.155792 0.036692 0.138074
O11   O     O_2   0.555055 0.740519 0.201128 -0.542318
C37   C     C_R   0.540614 0.751647 0.100876 -0.147338
H9    H     H_    0.374437 0.682359 0.350335 0.141787
H10   H     H_    0.366460 0.680583 0.262016 0.156439
H11   H     H_    0.565151 0.847883 0.119292 0.187341
C38   C     C_R   0.498476 0.760329 0.946347 -0.207618
C39   C     C_R   0.495149 0.759139 0.896317 -0.146709
O12   O     O_2   0.490797 0.751626 0.795754 -0.544336
C40   C     C_R   0.534787 0.754327 0.050891 -0.210986
H12   H     H_    0.500647 0.863034 0.962710 0.129958
H13   H     H_    0.673041 0.607053 0.650761 0.134267
H14   H     H_    0.498148 0.859098 0.877181 0.183758
H15   H     H_    0.667394 0.607162 0.739506 0.149841
H16   H     H_    0.558561 0.853241 0.033844 0.137806
C41   C     C_3   0.068716 0.582812 0.543594 -0.391520
C42   C     C_3   0.071444 0.345473 0.503084 -0.370302
H17   H     H_    0.098498 0.694804 0.540801 0.148889
H18   H     H_    0.108250 0.282158 0.472321 0.159966
H19   H     H_    0.104815 0.538001 0.577871 0.141072
H20   H     H_    0.103279 0.293861 0.536942 0.164983
C43   C     C_3   0.925203 0.578731 0.544408 -0.377351
C44   C     C_3   0.928795 0.344877 0.502071 -0.381310
H21   H     H_    0.891644 0.526026 0.578100 0.145295
H22   H     H_    0.892324 0.289635 0.534850 0.155062
H23   H     H_    0.888131 0.688595 0.544674 0.157817
H24   H     H_    0.897647 0.284623 0.470120 0.160775
H25   H     H_    0.108572 0.678005 0.449384 0.159302
H26   H     H_    0.107997 0.508239 0.421164 0.154171
H27   H     H_    0.895852 0.681636 0.451379 0.161551
H28   H     H_    0.894438 0.514989 0.421056 0.151413
C45   C     C_3   0.073118 0.568184 0.452999 -0.382442
C46   C     C_3   0.121424 0.499132 0.499979 0.173432
C47   C     C_3   0.877685 0.498355 0.499903 0.172745
C48   C     C_3   0.929181 0.570435 0.453428 -0.374269
C49   C     C_3   0.626738 0.081943 0.508613 -0.250881
C50   C     C_3   0.624430 0.915791 0.512551 -0.237149
H29   H     H_    0.673712 0.128688 0.539667 0.126252
H30   H     H_    0.654844 0.877904 0.548377 0.151536
H31   H     H_    0.688877 0.111744 0.477736 0.153751
H32   H     H_    0.695482 0.874367 0.486718 0.155764
C51   C     C_3   0.411341 0.081850 0.538048 0.443591
C52   C     C_3   0.403660 0.915307 0.535451 0.446218
C53   C     C_3   0.460948 0.084279 0.453770 -0.319243
C54   C     C_3   0.468193 0.917158 0.452943 -0.312620
N3    N     N_3   0.500250 0.143650 0.501060 -0.166699
N4    N     N_3   0.500250 0.856350 0.501060 -0.153369
H33   H     H_    0.364699 0.119727 0.445321 0.145506
H34   H     H_    0.377991 0.873748 0.440607 0.152005
H35   H     H_    0.521550 0.125344 0.424107 0.190793
H36   H     H_    0.539068 0.884457 0.425528 0.185444
H37   H     H_    0.316873 0.117586 0.527104 0.039794
H38   H     H_    0.310903 0.889170 0.519734 -0.022500
O13   O     O_3   0.419068 0.137871 0.585876 -0.568860
C55   C     C_3   0.527212 0.105887 0.613171 0.154354
H39   H     H_    0.597755 0.189721 0.608366 0.138063
H40   H     H_    0.573019 0.005679 0.603995 0.144004
C56   C     C_3   0.494349 0.101867 0.666964 -0.719508
H41   H     H_    0.398101 0.140688 0.673848 0.261040
H42   H     H_    0.502649 0.992646 0.681232 0.235875
H43   H     H_    0.559519 0.168969 0.687429 0.224270
O14   O     O_3   0.413145 0.856475 0.582456 -0.557939
C57   C     C_3   0.294662 0.820394 0.602045 0.093521
H44   H     H_    0.268786 0.715302 0.588379 0.151704
H45   H     H_    0.220930 0.898891 0.592812 0.102822
C58   C     C_3   0.299767 0.809878 0.656740 -0.757353
H46   H     H_    0.290225 0.916095 0.672835 0.240115
H47   H     H_    0.221337 0.744206 0.670471 0.194004
H48   H     H_    0.388674 0.761408 0.668296 0.277572

loop_
_geom_bond_atom_site_label_1
_geom_bond_atom_site_label_2
_geom_bond_distance
_ccdc_geom_bond_type
C53   H35   1.111421 S    
C51   N3    1.508957 S    
C52   H38   1.121723 S    
C49   C50   1.578316 S    
C36   H8    1.077429 S    
C17   C29   1.398877 A    
C7    C11   1.404481 A    
C7    C8    1.393912 A    
C12   C15   1.407136 A    
C44   H24   1.113662 S    
C49   N3    1.493255 S    
C55   H40   1.097687 S    
C58   H46   1.107877 S    
C57   H44   1.105981 S    
Cu1   O7    1.944895 S    
C53   C54   1.586051 S    
C42   H18   1.113732 S    
C37   H11   1.083603 S    
C38   H12   1.077328 S    
C21   C22   1.389191 A    
C41   C46   1.550463 S    
C40   H16   1.077417 S    
C15   C37   1.397385 A    
C23   C24   1.407844 A    
C54   N4    1.494879 S    
O7    C4    1.297791 A    
C58   H47   1.110673 S    
C50   H32   1.111721 S    
C7    H10   1.082785 S    
C5    O9    1.349823 S    
C51   H37   1.113472 S    
C52   N4    1.507665 S    
C18   C21   1.415058 A    
Cu1   O5    1.967627 S    
C19   C20   1.420375 A    
C26   N2    1.369509 A    
C8    H9    1.083596 S    
O5    C3    1.298825 A    
C49   H29   1.100774 S    
C30   H13   1.083573 S    
C22   H6    1.083565 S    
C2    C16   1.462056 S    
H28   C48   1.113124 S    
C37   C40   1.389333 A    
C56   H42   1.109751 S    
C54   H36   1.113001 S    
C43   C47   1.548619 S    
C57   C58   1.522079 S    
C12   C34   1.420609 A    
C50   N4    1.488575 S    
C14   H3    1.083589 S    
C53   N3    1.497738 S    
C42   C44   1.531930 S    
H27   C48   1.113200 S    
C3    C47   1.479942 S    
C41   H17   1.111768 S    
O3    Cu1   1.947872 S    
C55   H39   1.105971 S    
C57   H45   1.115496 S    
N1    C6    1.371104 A    
C53   H33   1.112813 S    
C33   C36   1.414977 A    
C34   C35   1.420356 A    
Cu1   Cu2   2.699820 S    
C12   C13   1.407172 A    
C44   H22   1.113720 S    
C21   H7    1.077275 S    
C47   C48   1.551568 S    
C43   H21   1.113326 S    
H25   C45   1.113211 S    
C27   O10   1.349974 S    
C58   H48   1.108107 S    
N2    C32   1.437023 S    
C8    C16   1.401660 A    
C18   C33   1.420132 A    
C9    H1    1.083498 S    
H26   C45   1.113135 S    
O1    C1    1.300528 A    
C39   H14   1.083554 S    
C20   C24   1.420560 A    
C22   C23   1.397160 A    
C31   C32   1.403873 A    
Cu2   O8    1.947570 S    
C56   H43   1.111518 S    
C51   O13   1.436169 S    
C19   C38   1.415049 A    
C33   C34   1.420292 A    
C41   C43   1.541015 S    
C52   O14   1.420033 S    
N1    C11   1.440987 S    
C45   C48   1.545026 S    
C50   H30   1.107848 S    
C31   H15   1.082740 S    
C35   C40   1.415027 A    
O3    C2    1.300589 A    
C25   C26   1.403723 A    
C9    C16   1.401383 A    
O8    C4    1.299029 A    
C29   H4    1.083590 S    
C25   C39   1.397194 A    
C1    C46   1.484689 S    
N2    C27   1.369614 A    
C14   C36   1.389275 A    
C49   H31   1.114157 S    
C24   C25   1.407932 A    
C28   C29   1.393408 A    
C5    N1    1.371054 A    
C30   C31   1.393725 A    
C10   H2    1.082786 S    
O13   C55   1.425410 S    
O1    Cu1   1.968806 S    
C17   C30   1.399181 A    
O2    Cu2   1.967201 S    
C6    C15   1.403950 A    
C4    C17   1.452225 S    
O6    C3    1.295076 A    
O4    Cu2   1.945194 S    
O14   C57   1.418399 S    
C26   O12   1.349951 S    
C19   C35   1.420171 A    
C51   C52   1.583292 S    
Cu1   N4    2.028358 S    
C38   C39   1.389315 A    
C42   C46   1.555601 S    
C44   C47   1.553961 S    
O2    C1    1.295623 A    
C13   C14   1.397358 A    
C23   C27   1.403593 A    
C43   H23   1.113442 S    
C28   H5    1.082689 S    
O4    C2    1.300548 A    
C18   C20   1.420453 A    
C54   H34   1.112681 S    
Cu2   N3    2.027955 S    
C5    C13   1.403861 A    
C28   C32   1.403342 A    
C6    O11   1.349814 S    
Cu2   O6    1.969232 S    
C42   H20   1.113778 S    
C41   H19   1.113096 S    
C10   C11   1.404778 A    
C45   C46   1.549803 S    
C9    C10   1.394149 A    
C55   C56   1.529322 S    
C56   H41   1.109886 S    
