data_mof_unit_36589.cif
_audit_creation_date              2012-12-10T17:29:22-0500
_audit_creation_method            fapswitch 2.2
_symmetry_space_group_name_H-M    P1
_symmetry_Int_Tables_number       1
_space_group_crystal_system       triclinic
_cell_length_a                    12.137687
_cell_length_b                    12.858183
_cell_length_c                    13.056053
_cell_angle_alpha                 84.816656
_cell_angle_beta                  114.694854
_cell_angle_gamma                 92.661524
_cell_volume                      1843.63346518

loop_
_atom_site_label
_atom_site_type_symbol
_atom_type_description
_atom_site_fract_x
_atom_site_fract_y
_atom_site_fract_z
_atom_type_partial_charge
C1    C     C_R   0.476865 0.299870 0.495236 0.904403
C2    C     C_R   0.618009 0.515121 0.833055 -0.199274
C3    C     C_R   0.527139 0.812753 0.484099 -0.061910
C4    C     C_R   0.569321 0.503433 0.709537 0.905315
C5    C     C_R   0.457363 0.190170 0.478785 -0.106589
C6    C     C_R   0.332030 0.035349 0.457846 -0.028111
C7    C     C_R   0.348851 0.141757 0.470406 -0.221599
C8    C     C_R   0.546340 0.135079 0.466195 -0.211632
C9    C     C_R   0.534367 0.028499 0.456323 0.161786
C10   C     C_R   0.429488 0.977443 0.460166 0.073004
C11   C     C_R   0.429133 0.869828 0.476436 -0.206679
C12   C     C_R   0.556560 0.509453 0.988139 0.091802
C13   C     C_R   0.625332 0.862077 0.469977 -0.271110
C14   C     C_R   0.629146 0.970155 0.453210 -0.012721
C15   C     C_R   0.008222 0.609520 0.410188 -0.256448
C16   C     C_R   0.520718 0.700636 0.498700 0.921777
C17   C     C_R   0.120995 0.594759 0.406202 0.044753
C18   C     C_R   0.163455 0.455171 0.550021 0.028435
C19   C     C_R   0.039628 0.457535 0.538878 0.021791
C20   C     C_R   0.965139 0.540481 0.472742 0.055151
C21   C     C_R   0.845986 0.551605 0.465528 -0.046028
C22   C     C_R   0.866874 0.394826 0.581187 0.012843
C23   C     C_R   0.537158 0.544828 0.877062 0.095311
C24   C     C_R   0.986185 0.380301 0.589447 -0.144889
C25   C     C_R   0.430825 0.499728 0.290192 0.857139
C26   C     C_R   0.262909 0.587755 0.984510 -0.131159
C27   C     C_R   0.383414 0.498624 0.166225 -0.266439
C28   C     C_R   0.737669 0.484462 0.908949 -0.117256
C29   C     C_R   0.763408 0.460953 0.025015 -0.041918
C30   C     C_R   0.672878 0.473865 0.062626 -0.157879
C31   C     C_2   0.165519 0.546473 0.116594 0.513388
C32   C     C_2   0.212234 0.988015 0.441535 0.907064
C33   C     C_2   0.733477 0.016700 0.433140 0.398352
C34   C     C_R   0.460223 0.516022 0.021946 0.110463
C35   C     C_2   0.815474 0.310885 0.633609 0.579068
C36   C     C_2   0.047202 0.279024 0.640964 0.886568
C37   C     C_2   0.138917 0.661389 0.313695 0.949685
C38   C     C_2   0.254564 0.391642 0.644560 0.508409
C39   C     C_2   0.519482 0.360051 0.169248 0.447184
C40   C     C_2   0.837638 0.496452 0.870824 1.053676
C41   C     C_2   0.881613 0.420279 0.110575 0.972985
C42   C     C_R   0.357989 0.578011 0.952515 0.118714
C43   C     C_R   0.349949 0.627351 0.850254 -0.173697
C44   C     C_R   0.438348 0.610955 0.812803 -0.129709
C45   C     C_R   0.461001 0.463589 0.122119 -0.087843
C46   C     C_R   0.273502 0.547071 0.091139 -0.017060
H1    H     H_    0.698404 0.816288 0.470466 0.157296
H2    H     H_    0.355080 0.829981 0.489464 0.190670
H3    H     H_    0.160288 0.494675 0.184604 0.086479
H4    H     H_    0.079694 0.885169 0.361969 0.354798
H5    H     H_    0.819318 0.975917 0.468100 0.092979
H6    H     H_    0.817546 0.230631 0.615001 0.019508
H7    H     H_    0.122920 0.150580 0.621551 0.377602
H8    H     H_    0.248311 0.731141 0.246394 0.352471
H9    H     H_    0.309015 0.335916 0.629786 0.105575
H10   H     H_    0.538149 0.331099 0.255495 0.086592
H11   H     H_    0.916302 0.587424 0.785379 0.341833
H12   H     H_    0.276988 0.186841 0.473213 0.202439
H13   H     H_    0.007615 0.418935 0.271403 0.336082
H14   H     H_    0.628168 0.175075 0.471007 0.186333
H15   H     H_    0.790310 0.616541 0.414538 0.131864
H16   H     H_    0.949042 0.672242 0.357901 0.180164
H17   H     H_    0.273740 0.676793 0.797808 0.146614
H18   H     H_    0.180963 0.627874 0.926463 0.177480
H19   H     H_    0.695826 0.459103 0.152037 0.170852
H20   H     H_    0.429695 0.651933 0.733682 0.155280
N1    N     N_R   0.798200 0.480260 0.519790 -0.117337
N2    N     N_R   0.201820 0.519740 0.480210 -0.172388
O1    O     O_R   0.579910 0.341070 0.505280 -0.624879
O2    O     O_2   0.155670 0.019413 0.490989 -0.617478
O3    O     O_R   0.161760 0.910436 0.366186 -0.781616
O4    O     O_2   0.723144 0.096770 0.372132 -0.533890
O5    O     O_2   0.777644 0.328571 0.703031 -0.514846
O6    O     O_2   0.066929 0.250095 0.738885 -0.544233
O7    O     O_R   0.081201 0.216847 0.576772 -0.792704
O8    O     O_2   0.050351 0.700920 0.235155 -0.569986
O9    O     O_R   0.251590 0.681910 0.312834 -0.762801
O10   O     O_2   0.269668 0.401623 0.741691 -0.550338
O11   O     O_2   0.539498 0.302490 0.109618 -0.501805
O12   O     O_R   0.388440 0.353740 0.492580 -0.653887
O13   O     O_2   0.913177 0.428321 0.894811 -0.525683
O14   O     O_R   0.845401 0.587833 0.807268 -0.776388
O15   O     O_2   0.932792 0.350927 0.089671 -0.547909
O16   O     O_R   0.929713 0.455657 0.218928 -0.811577
O17   O     O_R   0.643280 0.490550 0.663120 -0.539820
O18   O     O_R   0.451810 0.503220 0.650420 -0.633944
O19   O     O_R   0.611560 0.646260 0.507420 -0.617317
O20   O     O_R   0.420090 0.658930 0.494720 -0.585331
O21   O     O_R   0.548190 0.496780 0.349580 -0.624448
O22   O     O_R   0.356720 0.509450 0.336880 -0.590172
O23   O     O_2   0.078376 0.601286 0.058778 -0.547802
Zn1   Zn    Zn3+2 0.627850 0.491540 0.508480 0.996189
Zn2   Zn    Zn3+2 0.372150 0.508460 0.491520 0.960365

loop_
_geom_bond_atom_site_label_1
_geom_bond_atom_site_label_2
_ccdc_geom_bond_type
C6    C32   S    
C44   H20   S    
C19   C20   A    
C34   C42   A    
H4    O3    S    
C14   C33   S    
C43   H17   S    
C22   C35   S    
C12   C23   A    
C25   O22   A    
C24   C36   S    
C1    C5    S    
C28   C29   A    
O18   Zn2   S    
C4    O18   A    
C28   C40   S    
C18   N2    A    
C41   O15   D    
C18   C19   A    
C26   H18   S    
C33   O4    D    
C38   H9    S    
C8    C9    A    
C31   C46   S    
C16   O19   A    
O1    Zn1   S    
C9    C10   A    
C7    H12   S    
C21   H15   S    
C3    C13   A    
C39   C45   S    
H8    O9    S    
C12   C30   A    
C27   C45   A    
C13   C14   A    
C21   N1    A    
C11   H2    S    
H7    O7    S    
C31   H3    S    
O17   Zn1   S    
C32   O3    S    
C15   C20   A    
C40   O14   S    
H13   O16   S    
C13   H1    S    
C32   O2    D    
C4    O17   A    
C38   O10   D    
C41   O16   S    
C37   O9    S    
C1    O1    A    
C23   C44   A    
C39   O11   D    
C2    C4    S    
C9    C14   A    
C29   C30   A    
C36   O7    S    
C39   H10   S    
C34   C45   A    
C17   C37   S    
O21   Zn1   S    
C36   O6    D    
C27   C46   A    
C37   O8    D    
C31   O23   D    
C43   C44   A    
C22   C24   A    
C33   H5    S    
C42   C43   A    
C12   C34   A    
C35   H6    S    
C26   C42   A    
O22   Zn2   S    
C5    C7    A    
C15   C17   A    
O20   Zn2   S    
C35   O5    D    
C17   N2    A    
C29   C41   S    
C40   O13   D    
C6    C10   A    
C5    C8    A    
C6    C7    A    
C25   C27   S    
C25   O21   A    
N2    Zn2   S    
C19   C24   A    
C18   C38   S    
C8    H14   S    
N1    Zn1   S    
C15   H16   S    
C22   N1    A    
C30   H19   S    
C3    C11   A    
C10   C11   A    
C26   C46   A    
C20   C21   A    
C2    C23   A    
C16   O20   A    
C1    O12   A    
H11   O14   S    
C2    C28   A    
O12   Zn2   S    
O19   Zn1   S    
C3    C16   S    
