data_mof_unit_52944.cif
_audit_creation_date              2012-10-26T19:07:27-0400
_audit_creation_method            fapswitch 2.2
_symmetry_space_group_name_H-M    P1
_symmetry_Int_Tables_number       1
_space_group_crystal_system       triclinic
_cell_length_a                    14.979123
_cell_length_b                    13.933268
_cell_length_c                    10.767614
_cell_angle_alpha                 89.972863
_cell_angle_beta                  85.178807
_cell_angle_gamma                 90.382661
_cell_volume                      2239.28622018

loop_
_atom_site_label
_atom_site_type_symbol
_atom_type_description
_atom_site_fract_x
_atom_site_fract_y
_atom_site_fract_z
_atom_type_partial_charge
C1    C     C_R   0.329128 0.499840 0.500499 0.557763
C2    C     C_R   0.966449 0.579263 0.297144 -0.124138
C3    C     C_R   0.441186 0.794198 0.581719 0.202620
C4    C     C_R   0.558812 0.205801 0.418278 0.202619
C5    C     C_R   0.558463 0.795207 0.418045 0.202562
C6    C     C_R   0.441537 0.204794 0.581958 0.202562
C7    C     C_R   0.557236 0.897551 0.413984 -0.002067
C8    C     C_R   0.442761 0.102450 0.586016 -0.002070
C9    C     C_R   0.442636 0.896584 0.585954 -0.004104
C10   C     C_R   0.557360 0.103416 0.414044 -0.004102
C11   C     C_R   0.499984 0.948427 0.500007 0.022262
C12   C     C_R   0.670872 0.500160 0.499490 0.557765
C13   C     C_R   0.500012 0.051573 0.499992 0.022264
C14   C     C_R   0.612109 0.950945 0.326045 -0.125636
C15   C     C_R   0.387886 0.049056 0.673952 -0.125639
C16   C     C_R   0.387836 0.949077 0.673922 -0.126467
C17   C     C_R   0.612159 0.050923 0.326074 -0.126470
C18   C     C_R   0.502078 0.500067 0.259254 0.542017
C19   C     C_R   0.497927 0.499933 0.740746 0.542036
C20   C     C_3   0.458326 0.579606 0.046582 0.024875
C21   C     C_3   0.541690 0.420395 0.953416 0.024809
C22   C     C_3   0.542648 0.579462 0.952722 0.023228
C23   C     C_R   0.953213 0.499802 0.499787 0.060922
C24   C     C_3   0.457369 0.420537 0.047279 0.023156
C25   C     C_3   0.413618 0.499919 0.972463 0.021393
C26   C     C_3   0.586397 0.500082 0.027539 0.021405
C27   C     C_3   0.497883 0.499787 0.878285 0.003920
C28   C     C_3   0.502131 0.500213 0.121714 0.003915
C29   C     C_R   0.819941 0.539250 0.398327 -0.109586
C30   C     C_R   0.180059 0.460752 0.601656 -0.109574
C31   C     C_R   0.767392 0.500079 0.499468 0.016539
C32   C     C_R   0.232609 0.499919 0.500513 0.016531
C33   C     C_R   0.806854 0.459071 0.599759 -0.127371
C34   C     C_R   0.046788 0.500192 0.500192 0.060926
C35   C     C_R   0.193148 0.540915 0.400214 -0.127418
C36   C     C_R   0.899873 0.459258 0.601227 0.018664
C37   C     C_R   0.100129 0.540733 0.398749 0.018668
C38   C     C_3   0.318441 0.499207 0.929609 -0.264117
C39   C     C_3   0.244800 0.500977 0.036557 -0.446962
C40   C     C_3   0.681562 0.500771 0.070434 -0.264143
C41   C     C_3   0.755230 0.499117 0.963521 -0.447002
C42   C     C_3   0.414130 0.666872 0.114297 -0.254194
C43   C     C_3   0.371086 0.737178 0.029504 -0.441357
C44   C     C_3   0.585867 0.333126 0.885674 -0.254200
C45   C     C_R   0.913003 0.539690 0.397745 0.018648
C46   C     C_3   0.629013 0.262859 0.970410 -0.441336
C47   C     C_3   0.587926 0.666393 0.883771 -0.254812
C48   C     C_3   0.632575 0.736921 0.967266 -0.440007
C49   C     C_3   0.412135 0.333583 0.116242 -0.254791
C50   C     C_3   0.367383 0.263104 0.032795 -0.439968
C51   C     C_R   0.086998 0.460307 0.602235 0.018652
C52   C     C_R   0.940453 0.419988 0.702186 -0.129111
C53   C     C_R   0.059548 0.580002 0.297791 -0.129107
C54   C     C_R   0.033551 0.420731 0.702836 -0.124132
Cu1   Cu    Cu3+1 0.500000 0.597420 0.500000 0.999683
Cu2   Cu    Cu3+1 0.500000 0.402580 0.500000 0.999671
H1    H     H_    0.788484 0.567574 0.319346 0.133220
H2    H     H_    0.344324 0.082678 0.745710 0.150290
H3    H     H_    0.344351 0.914697 0.745712 0.149432
H4    H     H_    0.655642 0.085303 0.254282 0.149430
H5    H     H_    0.249866 0.439117 0.099913 0.154863
H6    H     H_    0.247499 0.568211 0.090591 0.142070
H7    H     H_    0.178474 0.497187 0.997782 0.144097
H8    H     H_    0.310275 0.561555 0.868663 0.177949
H9    H     H_    0.309424 0.434813 0.872488 0.168700
H10   H     H_    0.752241 0.432198 0.908915 0.142105
H11   H     H_    0.750489 0.561357 0.900704 0.154888
H12   H     H_    0.211516 0.432432 0.680641 0.133227
H13   H     H_    0.821546 0.502296 0.002377 0.144091
H14   H     H_    0.690560 0.565100 0.127684 0.168695
H15   H     H_    0.689720 0.438355 0.131265 0.177952
H16   H     H_    0.421274 0.767233 0.958558 0.169545
H17   H     H_    0.315910 0.702492 0.983897 0.179765
H18   H     H_    0.342300 0.797722 0.086289 0.144439
H19   H     H_    0.362581 0.641120 0.186846 0.146925
H20   H     H_    0.465155 0.706693 0.162827 0.185890
H21   H     H_    0.684223 0.297581 0.015915 0.179735
H22   H     H_    0.578884 0.232788 0.041430 0.169563
H23   H     H_    0.764964 0.428170 0.676729 0.093761
H24   H     H_    0.657782 0.202318 0.913596 0.144445
H25   H     H_    0.534813 0.293275 0.837236 0.185850
H26   H     H_    0.637352 0.358875 0.813036 0.146923
H27   H     H_    0.583430 0.766159 0.039635 0.171642
H28   H     H_    0.688621 0.702778 0.010770 0.178472
H29   H     H_    0.660599 0.797985 0.909913 0.145945
H30   H     H_    0.638679 0.640345 0.810750 0.154347
H31   H     H_    0.537186 0.706215 0.835550 0.183878
H32   H     H_    0.311240 0.297258 0.989512 0.178422
H33   H     H_    0.416442 0.233939 0.960259 0.171698
H34   H     H_    0.235038 0.571802 0.323232 0.093796
H35   H     H_    0.339467 0.201984 0.090139 0.145944
H36   H     H_    0.462927 0.293733 0.164332 0.183837
H37   H     H_    0.361455 0.359598 0.189386 0.154361
H38   H     H_    0.900248 0.388748 0.780511 0.109986
H39   H     H_    0.099751 0.611243 0.219466 0.109979
H40   H     H_    0.063790 0.390112 0.781702 0.119474
H41   H     H_    0.936210 0.609883 0.218278 0.119495
H42   H     H_    0.655669 0.917323 0.254285 0.150293
I1    I     I_    0.340540 0.722386 0.700178 -0.444596
I2    I     I_    0.659454 0.277612 0.299812 -0.444632
I3    I     I_    0.657086 0.724898 0.297615 -0.474876
I4    I     I_    0.342918 0.275107 0.702400 -0.474883
N1    N     N_R   0.500000 0.743810 0.500000 -0.219482
N2    N     N_R   0.500000 0.256190 0.500000 -0.219476
O1    O     O_R   0.370260 0.582280 0.500030 -0.469366
O2    O     O_R   0.629740 0.417720 0.499970 -0.469380
O3    O     O_R   0.629740 0.582280 0.499970 -0.472322
O4    O     O_R   0.370260 0.417720 0.500030 -0.472330
O5    O     O_R   0.499980 0.582260 0.316850 -0.494432
O6    O     O_R   0.500020 0.417740 0.683150 -0.494424
O7    O     O_R   0.500020 0.582260 0.683150 -0.494701
O8    O     O_R   0.499980 0.417740 0.316850 -0.494708

loop_
_geom_bond_atom_site_label_1
_geom_bond_atom_site_label_2
_ccdc_geom_bond_type
C43   H17   S    
C30   C32   A    
Cu1   Cu2   S    
C5    N1    A    
C43   H16   S    
C23   C45   A    
C40   H15   S    
C53   H39   S    
C34   C37   A    
C18   O5    A    
C30   C51   A    
C41   H11   S    
C7    C11   A    
C42   H19   S    
C8    C13   A    
C40   H14   S    
Cu1   O1    S    
C35   C37   A    
C9    C16   A    
C18   O8    A    
C44   H26   S    
C38   C39   S    
C20   C25   S    
C10   C17   A    
C15   C16   A    
Cu1   N1    S    
C33   C36   A    
Cu2   O4    S    
C7    C14   A    
C2    H41   S    
C52   C54   A    
C31   C33   A    
C52   H38   S    
C6    N2    A    
C19   C27   S    
C54   H40   S    
C36   C52   A    
C50   H32   S    
C37   C53   A    
C43   H18   S    
C22   C47   S    
C21   C27   S    
Cu1   O5    S    
C14   C17   A    
Cu2   O6    S    
C21   C26   S    
C44   C46   S    
C14   H42   S    
C38   H8    S    
C2    C45   A    
C39   H5    S    
C5    I3    S    
C32   C35   A    
C18   C28   S    
C24   C25   S    
Cu2   N2    S    
C44   H25   S    
C5    C7    A    
C33   H23   S    
C6    C8    A    
C20   C28   S    
C2    C53   A    
C1    C32   S    
C48   H28   S    
Cu1   O3    S    
C16   H3    S    
C47   H31   S    
C46   H22   S    
C47   H30   S    
C3    C9    A    
C25   C38   S    
C46   H21   S    
C21   C44   S    
C50   H33   S    
C47   C48   S    
C38   H9    S    
C23   C34   A    
C34   C51   A    
C9    C11   A    
Cu2   O2    S    
C40   C41   S    
C20   C22   S    
C23   C36   A    
C8    C15   A    
C22   C27   S    
C4    I2    S    
C12   C31   S    
C15   H2    S    
C42   C43   S    
C49   H36   S    
C4    C10   A    
C41   H13   S    
C19   O6    A    
C3    N1    A    
C24   C49   S    
C39   H6    S    
Cu1   O7    S    
C26   C28   S    
C24   C28   S    
C29   H1    S    
C10   C13   A    
C12   O3    A    
C20   C42   S    
C41   H10   S    
C19   O7    A    
C25   C27   S    
C39   H7    S    
C42   H20   S    
C48   H27   S    
C51   C54   A    
C29   C31   A    
C12   O2    A    
C11   C13   A    
C26   C40   S    
C4    N2    A    
C17   H4    S    
C6    I4    S    
C1    O4    A    
C35   H34   S    
C3    I1    S    
C50   H35   S    
C49   C50   S    
C22   C26   S    
C21   C24   S    
C29   C45   A    
C48   H29   S    
C46   H24   S    
C49   H37   S    
Cu2   O8    S    
C30   H12   S    
C1    O1    A    
