data_mof_unit_58706.cif
_audit_creation_date              2012-12-10T20:27:54-0500
_audit_creation_method            fapswitch 2.2
_symmetry_space_group_name_H-M    P1
_symmetry_Int_Tables_number       1
_space_group_crystal_system       triclinic
_cell_length_a                    12.8661
_cell_length_b                    10.655792
_cell_length_c                    9.89474
_cell_angle_alpha                 89.492772
_cell_angle_beta                  96.941286
_cell_angle_gamma                 90.915152
_cell_volume                      1346.40651192

loop_
_atom_site_label
_atom_site_type_symbol
_atom_type_description
_atom_site_fract_x
_atom_site_fract_y
_atom_site_fract_z
_atom_type_partial_charge
C1    C     C_R   0.506816 0.260645 0.501628 0.867202
C2    C     C_R   0.028624 0.526619 0.559373 0.090661
C3    C     C_R   0.971094 0.477157 0.439303 0.093199
C4    C     C_R   0.863876 0.465187 0.433425 -0.230939
C5    C     C_R   0.869751 0.548530 0.662001 -0.183441
C6    C     C_R   0.977528 0.561178 0.671370 0.169759
C7    C     C_R   0.489576 0.063191 0.615938 0.165400
C8    C     C_R   0.524758 0.129423 0.508077 -0.207540
C9    C     C_R   0.576051 0.065776 0.410386 -0.046002
C10   C     C_R   0.567833 0.935013 0.407610 -0.182186
C11   C     C_R   0.514545 0.871919 0.503846 -0.151994
C12   C     C_R   0.298341 0.500459 0.473355 0.905412
C13   C     C_R   0.485335 0.935758 0.614429 0.149441
C14   C     C_3   0.384775 0.930048 0.675816 -0.463755
C15   C     C_3   0.389427 0.072375 0.677652 -0.463680
C16   C     C_R   0.437475 0.417669 0.062289 0.210291
C17   C     C_R   0.570325 0.572449 0.080447 -0.011977
C18   C     C_R   0.569382 0.571346 0.936434 -0.071511
C19   C     C_R   0.437492 0.417699 0.920069 0.206727
C20   C     C_3   0.321003 0.409069 0.896520 -0.467585
C21   C     C_3   0.321064 0.409102 0.049861 -0.478420
C22   C     C_R   0.501565 0.739949 0.499919 0.888543
C23   C     C_R   0.701630 0.499919 0.526592 0.878802
C24   C     C_R   0.813653 0.502718 0.542644 -0.107303
C25   C     C_R   0.186233 0.498994 0.456873 -0.104237
C26   C     C_R   0.022230 0.441456 0.327832 0.185062
C27   C     C_R   0.130103 0.452099 0.338095 -0.214091
C28   C     C_R   0.135836 0.539176 0.564846 -0.245313
H1    H     H_    0.818203 0.427709 0.343517 0.192276
H2    H     H_    0.394590 0.887025 0.779260 0.221305
H3    H     H_    0.325833 0.116686 0.608019 0.202000
H4    H     H_    0.401945 0.111647 0.782187 0.214630
H5    H     H_    0.622792 0.630656 0.887081 0.191326
H6    H     H_    0.285557 0.494527 0.846695 0.229994
H7    H     H_    0.292798 0.318933 0.848478 0.206284
H8    H     H_    0.285583 0.494587 0.087372 0.232353
H9    H     H_    0.293090 0.318810 0.090658 0.209079
H10   H     H_    0.829694 0.577531 0.746507 0.196969
H11   H     H_    0.170080 0.420670 0.254740 0.174686
H12   H     H_    0.181338 0.579009 0.653425 0.179942
H13   H     H_    0.601275 0.883048 0.330328 0.192747
H14   H     H_    0.318556 0.891183 0.605033 0.205559
N1    N     N_R   0.499290 0.499140 0.142710 -0.158551
N2    N     N_R   0.499290 0.499180 0.857070 -0.134431
O1    O     O_R   0.500010 0.316790 0.614690 -0.598456
O2    O     O_R   0.500000 0.316760 0.385350 -0.631715
O3    O     O_R   0.346360 0.499990 0.595720 -0.626333
O4    O     O_R   0.346350 0.499960 0.366370 -0.616706
O5    O     O_R   0.500000 0.683240 0.614650 -0.613069
O6    O     O_R   0.499990 0.683210 0.385310 -0.649817
O7    O     O_R   0.653650 0.500040 0.633630 -0.613978
O8    O     O_R   0.653640 0.500010 0.404280 -0.662577
Zn1   Zn    Zn3+2 0.500010 0.500020 0.653130 0.961896
Zn2   Zn    Zn3+2 0.499990 0.499980 0.346870 0.936688
C29   C     C_2   0.647722 0.656515 0.159001 0.441244
H15   H     H_    0.643565 0.677245 0.263796 0.125752
O9    O     O_2   0.719034 0.705764 0.105673 -0.551183
I1    I     I_    0.944968 0.368119 0.141953 -0.291662
I2    I     I_    0.054795 0.633928 0.857486 -0.345182
C30   C     C_2   0.637622 0.132122 0.312968 0.456438
H16   H     H_    0.663009 0.228811 0.329934 0.080959
O10   O     O_2   0.662806 0.078487 0.213576 -0.538994

loop_
_geom_bond_atom_site_label_1
_geom_bond_atom_site_label_2
_ccdc_geom_bond_type
C23   C24   S    
C17   N1    A    
C15   H3    S    
C16   C21   S    
C18   N2    A    
C25   C27   A    
C1    C8    S    
C26   I1    S    
C9    C10   A    
C17   C29   S    
C11   C22   S    
C23   O7    A    
C19   C20   S    
O3    Zn1   S    
C12   C25   S    
C22   O6    A    
C9    C30   S    
C20   H6    S    
O2    Zn2   S    
C29   H15   S    
C7    C15   S    
C17   C18   A    
C23   O8    A    
O1    Zn1   S    
C7    C8    A    
C21   H8    S    
C2    C6    A    
C5    H10   S    
C19   N2    A    
C25   C28   A    
O4    Zn2   S    
C11   C13   A    
C16   N1    A    
C1    O1    A    
C26   C27   A    
O6    Zn2   S    
C5    C24   A    
C14   H2    S    
C12   O3    A    
O5    Zn1   S    
C6    I2    S    
C12   O4    A    
O8    Zn2   S    
C2    C3    A    
C22   O5    A    
C16   C19   A    
C5    C6    A    
C4    C24   A    
C18   H5    S    
C1    O2    A    
C10   C11   A    
C28   H12   S    
C3    C4    A    
C7    C13   A    
C21   H9    S    
C20   C21   S    
C30   O10   D    
C27   H11   S    
C14   C15   S    
C8    C9    A    
C2    C28   A    
N1    Zn2   S    
O7    Zn1   S    
C13   C14   S    
C14   H14   S    
N2    Zn1   S    
C20   H7    S    
C3    C26   A    
C4    H1    S    
C29   O9    D    
C30   H16   S    
C10   H13   S    
C15   H4    S    
