data_mof_unit_62812.cif
_audit_creation_date              2012-12-10T19:46:52-0500
_audit_creation_method            fapswitch 2.2
_symmetry_space_group_name_H-M    P1
_symmetry_Int_Tables_number       1
_space_group_crystal_system       triclinic
_cell_length_a                    28.260665
_cell_length_b                    18.278489
_cell_length_c                    21.683285
_cell_angle_alpha                 89.919668
_cell_angle_beta                  139.738523
_cell_angle_gamma                 90.014425
_cell_volume                      7238.78323793

loop_
_atom_site_label
_atom_site_type_symbol
_atom_type_description
_atom_site_fract_x
_atom_site_fract_y
_atom_site_fract_z
_atom_type_partial_charge
C1    C     C_R   0.858753 0.500046 0.858592 0.925762
C2    C     C_R   0.141247 0.499954 0.141408 0.925762
C3    C     C_R   0.358752 0.000046 0.858592 0.925762
C4    C     C_R   0.641247 0.999954 0.141408 0.925762
C5    C     C_R   0.042102 0.455890 0.824471 -0.255117
C6    C     C_R   0.957898 0.544110 0.175529 -0.255116
C7    C     C_R   0.542101 0.955889 0.824470 -0.255116
C8    C     C_R   0.457898 0.044110 0.175529 -0.255117
C9    C     C_R   0.044820 0.457266 0.763624 0.090394
C10   C     C_R   0.955180 0.542734 0.236376 0.090394
C11   C     C_R   0.544819 0.957265 0.763623 0.090394
C12   C     C_R   0.455180 0.042734 0.236376 0.090394
C13   C     C_R   0.998695 0.505400 0.685337 -0.108931
C14   C     C_R   0.001305 0.494600 0.314663 -0.108931
C15   C     C_R   0.498695 0.005400 0.685337 -0.108930
C16   C     C_R   0.501305 0.994600 0.314663 -0.108931
C17   C     C_1   0.782271 0.500139 0.781842 -0.189483
C18   C     C_1   0.217729 0.499861 0.218157 -0.189483
C19   C     C_1   0.282271 0.000139 0.781842 -0.189483
C20   C     C_1   0.717729 0.999861 0.218157 -0.189483
C21   C     C_1   0.717475 0.500132 0.717001 -0.177861
C22   C     C_1   0.282525 0.499868 0.282999 -0.177861
C23   C     C_1   0.217475 0.000132 0.717001 -0.177861
C24   C     C_1   0.782525 0.999868 0.282999 -0.177861
C25   C     C_R   0.999954 0.641282 0.499997 0.929182
C26   C     C_R   0.000046 0.358718 0.500003 0.929182
C27   C     C_R   0.499954 0.141282 0.499997 0.929182
C28   C     C_R   0.500046 0.858718 0.500003 0.929182
C29   C     C_R   0.999738 0.502587 0.620061 0.897699
C30   C     C_R   0.000262 0.497413 0.379939 0.897700
C31   C     C_R   0.499738 0.002586 0.620061 0.897699
C32   C     C_R   0.500262 0.997413 0.379939 0.897700
C33   C     C_R   0.500052 0.640979 0.500012 0.925074
C34   C     C_R   0.499948 0.359021 0.499988 0.925074
C35   C     C_R   0.000052 0.140979 0.500012 0.925074
C36   C     C_R   0.999948 0.859021 0.499988 0.925074
C37   C     C_R   0.640979 0.500056 0.640826 0.925319
C38   C     C_R   0.359021 0.499943 0.359174 0.925320
C39   C     C_R   0.140979 0.000057 0.640826 0.925319
C40   C     C_R   0.859021 0.999943 0.359174 0.925320
C41   C     C_1   0.999864 0.717758 0.499975 -0.190347
C42   C     C_1   0.000136 0.282242 0.500025 -0.190347
C43   C     C_1   0.499864 0.217758 0.499975 -0.190347
C44   C     C_1   0.500136 0.782242 0.500025 -0.190347
C45   C     C_R   0.997089 0.500045 0.876979 0.880267
C46   C     C_R   0.002911 0.499955 0.123021 0.880268
C47   C     C_R   0.497089 0.000045 0.876979 0.880268
C48   C     C_R   0.502911 0.999955 0.123021 0.880268
C49   C     C_1   0.499874 0.282534 0.499991 -0.182305
C50   C     C_1   0.500126 0.717466 0.500009 -0.182305
C51   C     C_1   0.999874 0.782534 0.499991 -0.182305
C52   C     C_1   0.000126 0.217466 0.500009 -0.182305
C53   C     C_R   0.887954 0.585989 0.702203 -0.167583
C54   C     C_R   0.112046 0.414011 0.297797 -0.167581
C55   C     C_R   0.387955 0.085990 0.702204 -0.167583
C56   C     C_R   0.612046 0.914011 0.297797 -0.167583
C57   C     C_R   0.841537 0.633644 0.624235 0.168015
C58   C     C_R   0.158464 0.366357 0.375766 0.168014
C59   C     C_R   0.341538 0.133646 0.624236 0.168015
C60   C     C_R   0.658463 0.866356 0.375765 0.168015
C61   C     C_R   0.851105 0.643515 0.570300 -0.173524
C62   C     C_R   0.148895 0.356486 0.429700 -0.173526
C63   C     C_R   0.351107 0.143516 0.570301 -0.173524
C64   C     C_R   0.648894 0.856485 0.429700 -0.173524
C65   C     C_R   0.904389 0.603719 0.591745 -0.189099
C66   C     C_R   0.095612 0.396281 0.408255 -0.189098
C67   C     C_R   0.404390 0.103720 0.591746 -0.189099
C68   C     C_R   0.595611 0.896281 0.408255 -0.189098
C69   C     C_R   0.948765 0.551879 0.666981 0.055746
C70   C     C_R   0.051235 0.448122 0.333019 0.055746
C71   C     C_R   0.448765 0.051879 0.666982 0.055745
C72   C     C_R   0.551235 0.948121 0.333019 0.055746
C73   C     C_R   0.943385 0.546480 0.726175 0.056933
C74   C     C_R   0.056615 0.453520 0.273825 0.056932
C75   C     C_R   0.443385 0.046481 0.726176 0.056934
C76   C     C_R   0.556615 0.953520 0.273825 0.056933
C77   C     C_R   0.992824 0.500363 0.806847 -0.112561
C78   C     C_R   0.007175 0.499636 0.193153 -0.112561
C79   C     C_R   0.492824 0.000364 0.806847 -0.112562
C80   C     C_R   0.507175 0.999636 0.193153 -0.112561
H1    H     H_    0.079180 0.420186 0.886392 0.157601
H2    H     H_    0.920820 0.579814 0.113608 0.157601
H3    H     H_    0.579178 0.920184 0.886390 0.157602
H4    H     H_    0.420820 0.079814 0.113608 0.157601
H5    H     H_    0.878774 0.579096 0.742016 0.153484
H6    H     H_    0.121226 0.420904 0.257984 0.153485
H7    H     H_    0.378774 0.079097 0.742016 0.153485
H8    H     H_    0.621226 0.920904 0.257984 0.153484
H9    H     H_    0.816966 0.681589 0.511046 0.130921
H10   H     H_    0.183035 0.318412 0.488954 0.130922
H11   H     H_    0.316968 0.181591 0.511048 0.130922
H12   H     H_    0.683034 0.818411 0.488953 0.130921
H13   H     H_    0.910359 0.614604 0.548958 0.159458
H14   H     H_    0.089641 0.385396 0.451043 0.159459
H15   H     H_    0.410361 0.114604 0.548959 0.159458
H16   H     H_    0.589641 0.885396 0.451042 0.159458
O1    O     O_R   0.892670 0.439420 0.892670 -0.613305
O2    O     O_R   0.107330 0.560580 0.107330 -0.613305
O3    O     O_R   0.107330 0.439420 0.107330 -0.629095
O4    O     O_R   0.892670 0.560580 0.892670 -0.629096
O5    O     O_R   0.392670 0.939420 0.892670 -0.613305
O6    O     O_R   0.607330 0.060580 0.107330 -0.613305
O7    O     O_R   0.607330 0.939420 0.107330 -0.629096
O8    O     O_R   0.392670 0.060580 0.892670 -0.629096
O9    O     O_R   0.999990 0.439420 0.908380 -0.620532
O10   O     O_R   0.000010 0.560580 0.091620 -0.620532
O11   O     O_R   0.000010 0.439420 0.091620 -0.627248
O12   O     O_R   0.999990 0.560580 0.908380 -0.627248
O13   O     O_R   0.499990 0.939420 0.908380 -0.620533
O14   O     O_R   0.500010 0.060580 0.091620 -0.620532
O15   O     O_R   0.500010 0.939420 0.091620 -0.627248
O16   O     O_R   0.499990 0.060580 0.908380 -0.627249
O17   O     O_R   0.060590 0.607350 0.560620 -0.616734
O18   O     O_R   0.939410 0.392650 0.439380 -0.616734
O19   O     O_R   0.939410 0.607350 0.439380 -0.625945
O20   O     O_R   0.060590 0.392650 0.560620 -0.625945
O21   O     O_R   0.560590 0.107350 0.560620 -0.616734
O22   O     O_R   0.439410 0.892650 0.439380 -0.616734
O23   O     O_R   0.439410 0.107350 0.439380 -0.625945
O24   O     O_R   0.560590 0.892650 0.560620 -0.625945
O25   O     O_R   0.060610 0.500000 0.652240 -0.598657
O26   O     O_R   0.939390 0.500000 0.347760 -0.598657
O27   O     O_R   0.560610 0.000000 0.652240 -0.598657
O28   O     O_R   0.439390 0.000000 0.347760 -0.598657
O29   O     O_R   0.939430 0.500000 0.531050 -0.635254
O30   O     O_R   0.060570 0.500000 0.468950 -0.635255
O31   O     O_R   0.439430 0.000000 0.531050 -0.635254
O32   O     O_R   0.560570 0.000000 0.468950 -0.635254
O33   O     O_R   0.500010 0.607330 0.448300 -0.619218
O34   O     O_R   0.499990 0.392670 0.551700 -0.619218
O35   O     O_R   0.499990 0.607330 0.551700 -0.619544
O36   O     O_R   0.500010 0.392670 0.448300 -0.619545
O37   O     O_R   0.000010 0.107330 0.448300 -0.619218
O38   O     O_R   0.999990 0.892670 0.551700 -0.619218
O39   O     O_R   0.999990 0.107330 0.551700 -0.619544
O40   O     O_R   0.000010 0.892670 0.448300 -0.619545
O41   O     O_R   0.607330 0.500000 0.555630 -0.615987
O42   O     O_R   0.392670 0.500000 0.444370 -0.615986
O43   O     O_R   0.107330 0.000000 0.555630 -0.615987
O44   O     O_R   0.892670 0.000000 0.444370 -0.615986
O45   O     O_R   0.607340 0.500000 0.659080 -0.621250
O46   O     O_R   0.392660 0.500000 0.340920 -0.621250
O47   O     O_R   0.107340 1.000000 0.659080 -0.621250
O48   O     O_R   0.892660 0.000000 0.340920 -0.621250
Zn1   Zn    Zn3+2 0.000000 0.419100 0.000000 0.961260
Zn2   Zn    Zn3+2 0.000000 0.580900 0.000000 0.961260
Zn3   Zn    Zn3+2 0.500000 0.919100 0.000000 0.961259
Zn4   Zn    Zn3+2 0.500000 0.080900 0.000000 0.961259
Zn5   Zn    Zn3+2 0.080920 0.500000 0.580940 0.970224
Zn6   Zn    Zn3+2 0.919080 0.500000 0.419060 0.970224
Zn7   Zn    Zn3+2 0.580920 0.000000 0.580940 0.970225
Zn8   Zn    Zn3+2 0.419080 0.000000 0.419060 0.970224
Zn9   Zn    Zn3+2 0.500000 0.500000 0.430940 0.973984
Zn10  Zn    Zn3+2 0.500000 0.500000 0.569060 0.973984
Zn11  Zn    Zn3+2 0.000000 0.000000 0.430940 0.973984
Zn12  Zn    Zn3+2 0.000000 0.000000 0.569060 0.973984
N1    N     N_3   0.784839 0.671246 0.600865 -0.458549
H17   H     H_    0.809982 0.710476 0.653765 0.180685
H18   H     H_    0.750774 0.699337 0.536311 0.166404
N2    N     N_3   0.215162 0.328755 0.399135 -0.458551
H19   H     H_    0.190018 0.289522 0.346238 0.180686
H20   H     H_    0.249228 0.300667 0.463692 0.166405
N3    N     N_3   0.284841 0.171248 0.600867 -0.458549
H21   H     H_    0.309985 0.210478 0.653767 0.180685
H22   H     H_    0.250777 0.199340 0.536313 0.166403
N4    N     N_3   0.715161 0.828754 0.399134 -0.458549
H23   H     H_    0.690018 0.789524 0.346235 0.180685
H24   H     H_    0.749225 0.800663 0.463689 0.166404
N5    N     N_3   0.093534 0.408527 0.780336 -0.433471
H25   H     H_    0.146874 0.419096 0.848433 0.189624
H26   H     H_    0.080322 0.354915 0.779841 0.183565
N6    N     N_3   0.906465 0.591473 0.219663 -0.433472
H27   H     H_    0.853126 0.580904 0.151567 0.189624
H28   H     H_    0.919678 0.645084 0.220158 0.183565
N7    N     N_3   0.593533 0.908525 0.780335 -0.433472
H29   H     H_    0.646872 0.919092 0.848432 0.189623
H30   H     H_    0.580319 0.854914 0.779837 0.183565
N8    N     N_3   0.406466 0.091473 0.219664 -0.433472
H31   H     H_    0.353126 0.080904 0.151567 0.189623
H32   H     H_    0.419678 0.145085 0.220158 0.183565

loop_
_geom_bond_atom_site_label_1
_geom_bond_atom_site_label_2
_ccdc_geom_bond_type
C3    O8    A    
C58   C62   A    
C12   N8    S    
C30   O30   A    
N1    H17   S    
C56   C76   A    
C29   O29   A    
C2    C18   S    
C14   C70   A    
N5    H25   S    
C32   O28   A    
C48   O14   A    
N3    H21   S    
C16   C72   A    
C31   O31   A    
C72   C76   A    
C35   O37   A    
N8    H31   S    
O47   Zn12  S    
O7    Zn3   S    
N7    H30   S    
C25   C41   S    
C7    C11   A    
C68   H16   S    
C7    C79   A    
C37   O45   A    
C6    H2    S    
C64   C68   A    
C13   C29   S    
N3    H22   S    
C55   C59   A    
C25   O19   A    
O11   Zn1   S    
O30   Zn5   S    
C23   C39   S    
O45   Zn10  S    
C56   H8    S    
C10   N6    S    
C47   O16   A    
C22   C38   S    
C4    O7    A    
C62   H10   S    
O8    Zn4   S    
C9    C13   A    
O6    Zn4   S    
C54   C74   A    
C11   C15   A    
O38   Zn12  S    
C12   C16   A    
C61   H9    S    
C34   C49   S    
C4    O6    A    
C70   C74   A    
C69   C73   A    
C47   C79   S    
C45   O12   A    
C8    C12   A    
C66   H14   S    
C55   C75   A    
C33   O35   A    
C65   H13   S    
O28   Zn8   S    
C34   O36   A    
O46   Zn9   S    
C37   O41   A    
C9    N5    S    
C67   H15   S    
C53   H5    S    
N5    H26   S    
C63   H11   S    
O13   Zn3   S    
C14   C30   S    
O14   Zn4   S    
C36   O40   A    
C1    O4    A    
O20   Zn5   S    
C45   O9    A    
N6    H28   S    
O12   Zn2   S    
C27   O21   A    
O27   Zn7   S    
C71   C75   A    
C62   C66   A    
O17   Zn5   S    
N4    H24   S    
C59   N3    S    
O21   Zn7   S    
C28   O24   A    
C1    O1    A    
C54   H6    S    
O40   Zn11  S    
C53   C57   A    
C43   C49   T    
O2    Zn2   S    
C8    H4    S    
C33   C50   S    
C47   O13   A    
C15   C31   S    
C28   C44   S    
C60   N4    S    
O39   Zn12  S    
O16   Zn4   S    
C29   O25   A    
N2    H20   S    
C30   O26   A    
C19   C23   T    
C26   O18   A    
C63   C67   A    
C5    C9    A    
O15   Zn3   S    
O31   Zn8   S    
C5    H1    S    
O32   Zn7   S    
N7    H29   S    
O43   Zn11  S    
C68   C72   A    
O9    Zn1   S    
C46   O11   A    
O36   Zn9   S    
C38   O42   A    
O41   Zn9   S    
O34   Zn10  S    
C3    C19   S    
C11   N7    S    
C34   O34   A    
C36   C51   S    
O44   Zn12  S    
C55   H7    S    
C25   O17   A    
C41   C51   T    
C39   O47   A    
C2    O3    A    
C40   O48   A    
C10   C14   A    
N4    H23   S    
C75   C79   A    
O18   Zn6   S    
C35   O39   A    
O26   Zn6   S    
N6    H27   S    
C26   C42   S    
C46   C78   S    
C54   C58   A    
C33   O33   A    
O23   Zn8   S    
C27   C43   S    
C57   N1    S    
O5    Zn3   S    
O24   Zn7   S    
O37   Zn11  S    
O1    Zn1   S    
O35   Zn10  S    
C53   C73   A    
C76   C80   A    
C36   O38   A    
C6    C10   A    
N8    H32   S    
C57   C61   A    
C27   O23   A    
C16   C32   S    
C15   C71   A    
C59   C63   A    
O10   Zn2   S    
C60   C64   A    
N2    H19   S    
C32   O32   A    
O48   Zn11  S    
C18   C22   T    
C31   O27   A    
C58   N2    S    
C48   C80   S    
O22   Zn8   S    
O33   Zn9   S    
C3    O5    A    
C7    H3    S    
C66   C70   A    
C13   C69   A    
C65   C69   A    
C40   O44   A    
O19   Zn6   S    
C24   C40   S    
O25   Zn5   S    
C38   O46   A    
C67   C71   A    
C61   C65   A    
O3    Zn1   S    
C26   O20   A    
C6    C78   A    
O29   Zn6   S    
C46   O10   A    
C4    C20   S    
C56   C60   A    
C48   O15   A    
C21   C37   S    
C1    C17   S    
C2    O2    A    
C44   C50   T    
N1    H18   S    
C74   C78   A    
O4    Zn2   S    
C35   C52   S    
C8    C80   A    
C73   C77   A    
C28   O22   A    
C64   H12   S    
C45   C77   S    
O42   Zn10  S    
C5    C77   A    
C20   C24   T    
C39   O43   A    
C42   C52   T    
C17   C21   T    
