data_mof_unit_37053.cif
_audit_creation_date              2012-12-10T17:40:53-0500
_audit_creation_method            fapswitch 2.2
_symmetry_space_group_name_H-M    P1
_symmetry_Int_Tables_number       1
_space_group_crystal_system       triclinic
_cell_length_a                    14.550664
_cell_length_b                    15.693213
_cell_length_c                    9.905142
_cell_angle_alpha                 89.406238
_cell_angle_beta                  92.332241
_cell_angle_gamma                 90.115327
_cell_volume                      2259.80841263

loop_
_atom_site_label
_atom_site_type_symbol
_atom_type_description
_atom_site_fract_x
_atom_site_fract_y
_atom_site_fract_z
_atom_type_partial_charge
C1    C     C_R   0.388224 0.873963 0.499402 0.920463
C2    C     C_R   0.388897 0.126544 0.498558 0.930091
C3    C     C_R   0.888224 0.373963 0.499402 0.920461
C4    C     C_R   0.888897 0.626544 0.498558 0.930090
C5    C     C_R   0.274744 0.214566 0.382571 -0.200182
C6    C     C_R   0.271743 0.789402 0.386884 -0.187929
C7    C     C_R   0.774744 0.714566 0.382571 -0.200183
C8    C     C_R   0.771740 0.289404 0.386886 -0.187929
C9    C     C_R   0.697416 0.763355 0.389778 0.159876
C10   C     C_R   0.698886 0.235573 0.394154 0.157508
C11   C     C_R   0.197415 0.263354 0.389777 0.159876
C12   C     C_R   0.198888 0.735571 0.394151 0.157510
C13   C     C_R   0.680792 0.806115 0.510654 -0.182746
C14   C     C_R   0.697744 0.176169 0.501049 -0.181088
C15   C     C_R   0.180791 0.306114 0.510654 -0.182747
C16   C     C_R   0.197745 0.676168 0.501049 -0.181090
C17   C     C_R   0.333038 0.049720 0.118246 0.178119
C18   C     C_R   0.833039 0.549722 0.118246 0.178118
C19   C     C_R   0.267560 0.089504 0.031013 -0.204075
C20   C     C_R   0.767561 0.589507 0.031012 -0.204075
C21   C     C_R   0.266205 0.072618 0.894939 -0.196127
C22   C     C_R   0.766206 0.572620 0.894939 -0.196126
C23   C     C_R   0.337440 0.027025 0.843883 -0.113689
C24   C     C_R   0.837440 0.527026 0.843883 -0.113689
C25   C     C_R   0.419190 0.014334 0.921018 0.137371
C26   C     C_R   0.919190 0.514334 0.921018 0.137371
C27   C     C_R   0.418118 0.018756 0.065651 0.115235
C28   C     C_R   0.918118 0.518757 0.065651 0.115236
C29   C     C_R   0.577446 0.984548 0.076516 -0.041209
C30   C     C_R   0.077445 0.484548 0.076516 -0.041208
C31   C     C_R   0.622767 0.117490 0.501099 0.882362
C32   C     C_R   0.616409 0.876211 0.503007 0.876396
C33   C     C_R   0.122767 0.617490 0.501099 0.882361
C34   C     C_R   0.116408 0.376211 0.503006 0.876397
C35   C     C_R   0.577676 0.986019 0.933546 -0.126816
C36   C     C_R   0.077676 0.486019 0.933546 -0.126816
C37   C     C_R   0.388918 0.249200 0.721795 -0.125594
C38   C     C_R   0.415464 0.729996 0.693217 -0.156732
C39   C     C_R   0.888922 0.749201 0.721792 -0.125594
C40   C     C_R   0.915467 0.229994 0.693210 -0.156732
C41   C     C_R   0.368859 0.281310 0.847626 -0.115247
C42   C     C_R   0.422585 0.663376 0.787108 -0.118274
C43   C     C_R   0.868864 0.781313 0.847623 -0.115247
C44   C     C_R   0.922589 0.163371 0.787098 -0.118272
C45   C     C_R   0.780986 0.811056 0.869290 -0.164706
C46   C     C_R   0.857003 0.098817 0.785350 -0.126615
C47   C     C_R   0.280980 0.311051 0.869293 -0.164704
C48   C     C_R   0.356998 0.598822 0.785360 -0.126615
C49   C     C_R   0.715759 0.815278 0.762255 -0.176149
C50   C     C_R   0.783340 0.101104 0.690837 -0.155703
C51   C     C_R   0.215754 0.315274 0.762256 -0.176147
C52   C     C_R   0.283338 0.601107 0.690844 -0.155701
C53   C     C_R   0.738038 0.791271 0.629439 0.072430
C54   C     C_R   0.772551 0.169993 0.597787 0.077383
C55   C     C_R   0.238035 0.291268 0.629439 0.072429
C56   C     C_R   0.272550 0.669994 0.597790 0.077383
C57   C     C_R   0.321057 0.247892 0.615156 0.089402
C58   C     C_R   0.340471 0.734208 0.597840 0.101265
C59   C     C_R   0.821059 0.747893 0.615155 0.089403
C60   C     C_R   0.840472 0.234207 0.597837 0.101266
C61   C     C_R   0.332424 0.201687 0.496047 -0.159994
C62   C     C_R   0.333924 0.797552 0.495864 -0.161236
C63   C     C_R   0.832425 0.701688 0.496046 -0.159995
C64   C     C_R   0.833923 0.297553 0.495863 -0.161234
H1    H     H_    0.286196 0.182221 0.289324 0.196227
H2    H     H_    0.275318 0.829091 0.298412 0.216414
H3    H     H_    0.786196 0.682221 0.289325 0.196228
H4    H     H_    0.775314 0.329094 0.298415 0.216414
H5    H     H_    0.207253 0.090419 0.830565 0.170590
H6    H     H_    0.707254 0.590422 0.830565 0.170591
H7    H     H_    0.327650 0.004171 0.743149 0.214023
H8    H     H_    0.827650 0.504171 0.743149 0.214022
H9    H     H_    0.641455 0.975656 0.883957 0.132352
H10   H     H_    0.141455 0.475654 0.883957 0.132352
H11   H     H_    0.457573 0.225046 0.708619 0.161058
H12   H     H_    0.471266 0.775480 0.692917 0.154975
H13   H     H_    0.957575 0.725047 0.708616 0.161057
H14   H     H_    0.971268 0.275478 0.692909 0.154972
H15   H     H_    0.420335 0.279888 0.929662 0.165574
H16   H     H_    0.480634 0.660571 0.858966 0.154039
H17   H     H_    0.920341 0.779891 0.929658 0.165575
H18   H     H_    0.980640 0.160564 0.858952 0.154037
H19   H     H_    0.763092 0.830751 0.969314 0.159354
H20   H     H_    0.864139 0.045812 0.855829 0.146063
H21   H     H_    0.263085 0.330745 0.969316 0.159355
H22   H     H_    0.364134 0.545818 0.855842 0.146062
H23   H     H_    0.640863 0.972256 0.134127 0.154279
H24   H     H_    0.140862 0.472255 0.134127 0.154279
H25   H     H_    0.206867 0.119250 0.068816 0.199316
H26   H     H_    0.706869 0.619254 0.068816 0.199315
N1    N     N_R   0.498810 1.000000 0.142780 -0.104642
N2    N     N_R   0.998810 0.500000 0.142780 -0.104642
N3    N     N_R   0.498740 0.000000 0.857170 -0.120781
N4    N     N_R   0.998740 0.500000 0.857170 -0.120781
O1    O     O_R   0.408390 0.908380 0.614690 -0.649800
O2    O     O_R   0.408390 0.091620 0.614690 -0.645546
O3    O     O_R   0.908390 0.408380 0.614690 -0.649799
O4    O     O_R   0.908390 0.591620 0.614690 -0.645545
O5    O     O_R   0.408370 0.908380 0.385360 -0.582320
O6    O     O_R   0.408370 0.091620 0.385360 -0.594176
O7    O     O_R   0.908370 0.408380 0.385360 -0.582319
O8    O     O_R   0.908370 0.591620 0.385360 -0.594177
O9    O     O_R   0.591620 0.091610 0.614640 -0.634674
O10   O     O_R   0.591620 0.908390 0.614640 -0.661122
O11   O     O_R   0.091620 0.591610 0.614640 -0.634675
O12   O     O_R   0.091620 0.408390 0.614640 -0.661120
O13   O     O_R   0.591610 0.091610 0.385310 -0.587046
O14   O     O_R   0.591610 0.908390 0.385310 -0.586983
O15   O     O_R   0.091610 0.591610 0.385310 -0.587045
O16   O     O_R   0.091610 0.408390 0.385310 -0.586983
Zn1   Zn    Zn3+2 0.500010 0.000000 0.653130 0.924172
Zn2   Zn    Zn3+2 0.000010 0.500000 0.653130 0.924173
Zn3   Zn    Zn3+2 0.499980 1.000000 0.346870 1.005143
Zn4   Zn    Zn3+2 0.999980 0.500000 0.346870 1.005143
H27   H     H_    0.647271 0.832114 0.789031 0.175460
H28   H     H_    0.737717 0.046808 0.689499 0.158267
H29   H     H_    0.147265 0.332109 0.789030 0.175459
H30   H     H_    0.237715 0.546810 0.689508 0.158268
I1    I     I_    0.603763 0.755596 0.217766 -0.421261
I2    I     I_    0.591065 0.258289 0.243935 -0.351245
I3    I     I_    0.103763 0.255597 0.217764 -0.421262
I4    I     I_    0.091071 0.758286 0.243926 -0.351245
I5    I     I_    0.248455 0.000081 0.271123 -0.351501
I6    I     I_    0.748455 0.500082 0.271121 -0.351501

loop_
_geom_bond_atom_site_label_1
_geom_bond_atom_site_label_2
_ccdc_geom_bond_type
C58   C62   A    
C42   H16   S    
C40   C60   A    
C4    O4    A    
C13   C32   S    
C14   C31   S    
C1    C62   S    
C1    O5    A    
C53   C59   A    
C54   C60   A    
C3    C64   S    
C25   N3    A    
C4    C63   S    
C50   C54   A    
O8    Zn4   S    
C50   H28   S    
C39   H13   S    
C22   C24   A    
C19   C21   A    
C24   C26   A    
C5    C11   A    
C48   C52   A    
C44   H18   S    
C6    C12   A    
O9    Zn1   S    
N4    Zn2   S    
C9    C13   A    
O13   Zn3   S    
C17   C19   A    
C38   C58   A    
C11   C15   A    
C17   I5    S    
C12   C16   A    
C4    O8    A    
C40   C44   A    
C32   O10   A    
C27   N1    A    
O16   Zn4   S    
C17   C27   A    
C51   C55   A    
C2    C61   S    
C3    O7    A    
C37   H11   S    
C2    O6    A    
C38   H12   S    
O7    Zn4   S    
C45   H19   S    
C26   C28   A    
C44   C46   A    
C13   C53   A    
C35   N3    A    
O12   Zn2   S    
O2    Zn1   S    
O4    Zn2   S    
C34   O12   A    
C23   H7    S    
C18   C28   A    
C30   N2    A    
C10   C14   A    
O3    Zn2   S    
C39   C43   A    
C20   H26   S    
N1    Zn3   S    
C21   H5    S    
C31   O9    A    
O14   Zn3   S    
C16   C56   A    
C41   H15   S    
C19   H25   S    
C16   C33   S    
C3    O3    A    
C45   C49   A    
C1    O1    A    
C39   C59   A    
C5    H1    S    
C41   C47   A    
C5    C61   A    
C28   N2    A    
C42   C48   A    
C43   C45   A    
C7    C63   A    
C36   H10   S    
O15   Zn4   S    
C8    C64   A    
C46   H20   S    
C40   H14   S    
C11   I3    S    
C49   H27   S    
O11   Zn2   S    
C20   C22   A    
C8    H4    S    
C26   N4    A    
C55   C57   A    
C9    I1    S    
C48   H22   S    
C33   O15   A    
C30   H24   S    
C47   H21   S    
C29   N1    A    
C24   H8    S    
C7    C9    A    
C46   C50   A    
C35   H9    S    
C15   C34   S    
C43   H17   S    
C14   C54   A    
C31   O13   A    
O6    Zn3   S    
O5    Zn3   S    
O10   Zn1   S    
C47   C51   A    
C57   C61   A    
C25   C27   A    
C29   C35   A    
C59   C63   A    
C33   O11   A    
C30   C36   A    
C60   C64   A    
C6    C62   A    
C21   C23   A    
N3    Zn1   S    
O1    Zn1   S    
C49   C53   A    
C2    O2    A    
C51   H29   S    
C56   C58   A    
C18   C20   A    
C23   C25   A    
C37   C41   A    
C29   H23   S    
C10   I2    S    
C7    H3    S    
C38   C42   A    
C36   N4    A    
C6    H2    S    
C12   I4    S    
C8    C10   A    
C32   O14   A    
C18   I6    S    
C34   O16   A    
N2    Zn4   S    
C22   H6    S    
C37   C57   A    
C52   C56   A    
C15   C55   A    
C52   H30   S    
