data_mof_unit_18534.cif
_audit_creation_date              2012-12-11T16:27:28-0500
_audit_creation_method            fapswitch 2.2
_symmetry_space_group_name_H-M    P1
_symmetry_Int_Tables_number       1
_space_group_crystal_system       triclinic
_cell_length_a                    22.394899
_cell_length_b                    7.088504
_cell_length_c                    15.856891
_cell_angle_alpha                 89.756252
_cell_angle_beta                  109.389428
_cell_angle_gamma                 90.199023
_cell_volume                      2374.429105

loop_
_atom_site_label
_atom_site_type_symbol
_atom_type_description
_atom_site_fract_x
_atom_site_fract_y
_atom_site_fract_z
_atom_type_partial_charge
O1    O     O_R   0.835850 0.638310 0.002120 -0.565825
O2    O     O_R   0.164150 0.361690 0.997880 -0.504537
O3    O     O_R   0.664150 0.138310 0.997880 -0.554442
O4    O     O_R   0.335850 0.861690 0.002120 -0.505620
O5    O     O_R   0.717530 0.306070 0.861970 -0.536221
O6    O     O_R   0.282470 0.693930 0.138030 -0.557827
O7    O     O_R   0.782470 0.806070 0.138030 -0.548896
O8    O     O_R   0.217530 0.193930 0.861970 -0.568299
C1    C     C_R   0.703941 0.477735 0.827334 0.762962
C2    C     C_R   0.300288 0.525175 0.172157 0.799683
C3    C     C_R   0.801649 0.975422 0.171494 0.763761
C4    C     C_R   0.204544 0.024914 0.826897 0.795645
O9    O     O_R   0.838690 0.308440 0.993250 -0.492570
O10   O     O_R   0.161310 0.691560 0.006750 -0.556206
O11   O     O_R   0.661310 0.808440 0.006750 -0.496756
O12   O     O_R   0.338690 0.191560 0.993250 -0.561097
O13   O     O_R   0.786170 0.140510 0.130090 -0.557443
O14   O     O_R   0.213830 0.859490 0.869910 -0.533944
O15   O     O_R   0.713830 0.640510 0.869910 -0.562747
O16   O     O_R   0.286170 0.359490 0.130090 -0.539087
C5    C     C_R   0.863244 0.477177 0.990574 0.822588
C6    C     C_R   0.134710 0.521404 0.002433 0.864810
C7    C     C_R   0.635138 0.976662 0.004282 0.842907
C8    C     C_R   0.364253 0.021582 0.994209 0.859293
O17   O     O_3   0.732630 0.472520 0.044740 -0.385142
O18   O     O_3   0.267370 0.527480 0.955260 -0.383128
O19   O     O_3   0.767370 0.972520 0.955260 -0.379847
O20   O     O_3   0.232630 0.027480 0.044740 -0.382270
V1    V     V_3+5 0.753220 0.196740 0.991700 1.546648
V2    V     V_3+5 0.246780 0.803260 0.008300 1.542775
V3    V     V_3+5 0.746780 0.696740 0.008300 1.523664
V4    V     V_3+5 0.253220 0.303260 0.991700 1.532054
C9    C     C_R   0.525529 0.985260 0.832717 0.338236
C10   C     C_R   0.473947 0.026972 0.162615 0.344257
C11   C     C_R   0.969556 0.508393 0.158018 0.337180
C12   C     C_R   0.025578 0.485134 0.831408 0.336505
C13   C     C_R   0.473646 0.984689 0.752939 -0.366638
C14   C     C_R   0.526889 0.026525 0.241257 -0.367604
C15   C     C_R   0.019358 0.546331 0.236903 -0.360959
C16   C     C_R   0.974341 0.455933 0.752286 -0.370584
C17   C     C_R   0.413598 0.950689 0.752443 0.418249
C18   C     C_R   0.582679 0.949228 0.241959 0.402335
C19   C     C_R   0.080692 0.515598 0.241531 0.405307
C20   C     C_R   0.917892 0.386838 0.754016 0.421372
C21   C     C_R   0.401103 0.934994 0.832601 0.289275
C22   C     C_R   0.592305 0.906898 0.161616 0.305248
C23   C     C_R   0.094821 0.475232 0.163939 0.305085
C24   C     C_R   0.906332 0.369674 0.834642 0.300889
C25   C     C_R   0.448736 0.977507 0.915315 -0.129300
C26   C     C_R   0.548165 0.968191 0.079713 -0.122562
C27   C     C_R   0.048087 0.498429 0.078886 -0.120823
C28   C     C_R   0.950180 0.443966 0.914732 -0.141062
C29   C     C_R   0.513926 0.984438 0.916465 -0.030946
C30   C     C_R   0.484389 0.004185 0.078670 -0.027876
C31   C     C_R   0.982743 0.499731 0.075794 -0.023935
C32   C     C_R   0.014286 0.480052 0.915398 -0.035936
C33   C     C_R   0.433199 0.005052 0.995661 -0.082788
C34   C     C_R   0.565038 0.979368 0.000019 -0.071452
C35   C     C_R   0.064853 0.504181 0.998778 -0.080079
C36   C     C_R   0.932638 0.477131 0.992958 -0.073951
H1    H     H_    0.479128 0.991528 0.688063 0.187893
H2    H     H_    0.523880 0.054610 0.306371 0.185021
H3    H     H_    0.011435 0.567195 0.299493 0.187563
H4    H     H_    0.978508 0.467876 0.686842 0.187881
C37   C     C_R   0.178854 0.028267 0.728610 -0.202344
C38   C     C_R   0.832085 0.980276 0.269031 -0.231586
C39   C     C_R   0.330594 0.526067 0.270119 -0.232637
C40   C     C_R   0.677866 0.490915 0.729819 -0.216981
C41   C     C_R   0.189712 0.097168 0.585403 0.364970
C42   C     C_R   0.820739 0.973348 0.414722 0.324607
C43   C     C_R   0.321200 0.560044 0.415957 0.328843
C44   C     C_R   0.692207 0.519008 0.586729 0.368866
C45   C     C_R   0.215321 0.098960 0.678698 0.426571
C46   C     C_R   0.794017 0.993093 0.322123 0.404151
C47   C     C_R   0.295009 0.578810 0.323328 0.421868
C48   C     C_R   0.717408 0.527854 0.679938 0.418780
C49   C     C_R   0.114096 0.998069 0.685760 -0.372354
C50   C     C_R   0.898438 0.976834 0.309519 -0.358185
C51   C     C_R   0.396683 0.509085 0.310348 -0.376824
C52   C     C_R   0.612459 0.479504 0.687019 -0.359311
C53   C     C_R   0.085822 0.010843 0.591262 0.029419
C54   C     C_R   0.927270 0.979544 0.404385 0.031227
C55   C     C_R   0.426104 0.508140 0.405244 0.041245
C56   C     C_R   0.585018 0.487935 0.592326 0.029167
C57   C     C_R   0.125843 0.050125 0.540872 -0.044229
C58   C     C_R   0.886767 0.968194 0.456344 -0.036336
C59   C     C_R   0.386029 0.524831 0.457444 -0.043912
C60   C     C_R   0.626495 0.497862 0.542040 -0.045818
C61   C     C_R   0.019292 0.989815 0.545554 0.095585
C62   C     C_R   0.994354 0.993959 0.449630 0.079561
C63   C     C_R   0.493335 0.495065 0.450463 0.079264
C64   C     C_R   0.518115 0.490413 0.546437 0.091038
C65   C     C_R   0.037137 0.017812 0.402568 -0.207658
C66   C     C_R   0.976761 0.968489 0.592921 -0.219959
C67   C     C_R   0.475254 0.494056 0.593866 -0.228644
C68   C     C_R   0.536674 0.488084 0.403574 -0.207465
C69   C     C_R   0.101026 0.048205 0.447151 -0.032647
C70   C     C_R   0.912564 0.956690 0.549219 -0.031217
C71   C     C_R   0.411366 0.514311 0.550449 -0.047477
C72   C     C_R   0.601582 0.489643 0.448431 -0.019179
H5    H     H_    0.130527 0.073400 0.406455 0.197705
H6    H     H_    0.883256 0.943607 0.590310 0.190670
H7    H     H_    0.382395 0.527988 0.591985 0.193009
H8    H     H_    0.632087 0.487792 0.408197 0.193746
H9    H     H_    0.925946 0.980266 0.265213 0.147456
H10   H     H_    0.086847 0.978356 0.729445 0.133015
H11   H     H_    0.584649 0.474417 0.730675 0.139333
H12   H     H_    0.423850 0.508969 0.265607 0.140119
H13   H     H_    0.022445 0.020967 0.330657 0.135163
H14   H     H_    0.990971 0.966343 0.664684 0.126066
H15   H     H_    0.489320 0.489358 0.665602 0.126203
H16   H     H_    0.521880 0.485644 0.331625 0.135513
Cl1   Cl    Cl    0.632260 0.877209 0.347376 -0.584281
Cl2   Cl    Cl    0.357629 0.905969 0.647081 -0.591034
Cl3   Cl    Cl    0.865326 0.307634 0.651584 -0.590459
Cl4   Cl    Cl    0.134222 0.488066 0.349689 -0.568085
O21   O     O_3   0.586887 0.963717 0.830140 -0.574967
C73   C     C_3   0.596300 0.052548 0.755421 0.077860
H17   H     H_    0.644701 0.106067 0.776073 0.168468
H18   H     H_    0.564667 0.175138 0.731405 0.118438
C74   C     C_3   0.591458 0.912684 0.680755 -0.352064
H19   H     H_    0.637332 0.839967 0.696471 0.195973
H20   H     H_    0.554197 0.806898 0.676455 0.227556
C75   C     C_3   0.576650 0.010160 0.590534 -0.802596
H21   H     H_    0.531887 0.089972 0.575614 0.241018
H22   H     H_    0.571495 0.903584 0.537467 0.264698
H23   H     H_    0.615274 0.108671 0.591125 0.249058
O22   O     O_3   0.412315 0.023528 0.166163 -0.578119
C76   C     C_3   0.406387 0.096350 0.245728 0.075296
H24   H     H_    0.358351 0.153080 0.230079 0.158527
H25   H     H_    0.439483 0.213633 0.271425 0.126249
C77   C     C_3   0.414134 0.943802 0.316584 -0.343229
H26   H     H_    0.368043 0.874105 0.303576 0.189298
H27   H     H_    0.449655 0.838765 0.312915 0.232568
C78   C     C_3   0.434918 0.024511 0.410643 -0.802737
H28   H     H_    0.480808 0.098292 0.424469 0.239814
H29   H     H_    0.440504 0.909116 0.460145 0.255652
H30   H     H_    0.399404 0.125085 0.417982 0.247719
O23   O     O_3   0.912195 0.438586 0.162189 -0.573767
C79   C     C_3   0.891876 0.526280 0.227666 0.093046
H31   H     H_    0.839731 0.533139 0.200673 0.158347
H32   H     H_    0.909249 0.671973 0.240120 0.121089
C80   C     C_3   0.908900 0.407406 0.312999 -0.354045
H33   H     H_    0.867362 0.320215 0.308570 0.196343
H34   H     H_    0.950223 0.316665 0.318588 0.235931
C81   C     C_3   0.923391 0.521295 0.398220 -0.797873
H35   H     H_    0.966436 0.608069 0.408891 0.243374
H36   H     H_    0.931546 0.423762 0.455941 0.256803
H37   H     H_    0.882693 0.611947 0.394552 0.241487
O24   O     O_3   0.087227 0.499001 0.828910 -0.577587
C82   C     C_3   0.091095 0.586572 0.750561 0.072791
H38   H     H_    0.136298 0.663210 0.768894 0.162039
H39   H     H_    0.053001 0.691814 0.723330 0.117343
C83   C     C_3   0.092244 0.441598 0.680031 -0.344120
H40   H     H_    0.141090 0.390063 0.695150 0.180127
H41   H     H_    0.061894 0.320079 0.682407 0.227925
C84   C     C_3   0.069007 0.523786 0.585708 -0.792528
H42   H     H_    0.020487 0.580356 0.570461 0.236984
H43   H     H_    0.068032 0.412703 0.536246 0.258679
H44   H     H_    0.100826 0.638164 0.578949 0.252972
Cl5   Cl    Cl    0.331824 0.814499 0.827484 -0.681419
Cl6   Cl    Cl    0.642603 0.718560 0.162462 -0.661360
Cl7   Cl    Cl    0.160296 0.331243 0.175327 -0.671600
Cl8   Cl    Cl    0.843810 0.219361 0.833118 -0.654190
O25   O     O_3   0.730061 0.031017 0.284357 -0.512574
C85   C     C_3   0.719893 0.227709 0.268641 0.109269
H45   H     H_    0.668020 0.252478 0.243024 0.156676
H46   H     H_    0.737293 0.279555 0.215806 0.139918
C86   C     C_3   0.748088 0.346940 0.352609 -0.354407
H47   H     H_    0.720151 0.315224 0.396703 0.293378
H48   H     H_    0.798457 0.316445 0.388616 0.220446
C87   C     C_3   0.746258 0.553956 0.331063 -0.594197
H49   H     H_    0.760584 0.582774 0.271713 0.222847
H50   H     H_    0.779265 0.629744 0.388064 0.271928
H51   H     H_    0.698307 0.602730 0.321838 0.327594
O26   O     O_3   0.279060 0.139962 0.718847 -0.516243
C88   C     C_3   0.289772 0.324642 0.754710 0.110692
H52   H     H_    0.334198 0.320775 0.813003 0.130060
H53   H     H_    0.253181 0.378218 0.780046 0.139725
C89   C     C_3   0.297639 0.468060 0.687773 -0.250488
H54   H     H_    0.339732 0.555865 0.719793 0.216711
H55   H     H_    0.309292 0.395379 0.634519 0.281082
C90   C     C_3   0.238049 0.590852 0.650735 -0.528095
H56   H     H_    0.220609 0.640908 0.704435 0.193168
H57   H     H_    0.200334 0.508879 0.601346 0.246716
H58   H     H_    0.247623 0.719495 0.618054 0.312404
O27   O     O_3   0.782315 0.542418 0.720768 -0.515922
C91   C     C_3   0.800874 0.722416 0.759396 0.091159
H59   H     H_    0.848866 0.708125 0.809405 0.109718
H60   H     H_    0.771813 0.777569 0.797185 0.145382
C92   C     C_3   0.804544 0.868495 0.690897 -0.256938
H61   H     H_    0.846850 0.957428 0.720373 0.222223
H62   H     H_    0.812728 0.796789 0.634567 0.278699
C93   C     C_3   0.744828 0.990938 0.659717 -0.538784
H63   H     H_    0.705502 0.910107 0.612603 0.232111
H64   H     H_    0.752826 0.119438 0.625201 0.313982
H65   H     H_    0.730849 0.039372 0.716876 0.201728
O28   O     O_3   0.233097 0.639877 0.285339 -0.507947
C94   C     C_3   0.230612 0.838702 0.273114 0.126776
H66   H     H_    0.180364 0.878372 0.239033 0.170643
H67   H     H_    0.256668 0.887928 0.229468 0.133574
C95   C     C_3   0.255213 0.946711 0.360619 -0.329130
H68   H     H_    0.222396 0.919458 0.398171 0.293042
H69   H     H_    0.303534 0.902629 0.400853 0.225189
C96   C     C_3   0.261129 0.154568 0.345640 -0.615210
H70   H     H_    0.275564 0.183125 0.286554 0.215371
H71   H     H_    0.298081 0.211974 0.404736 0.257078
H72   H     H_    0.216110 0.223805 0.339780 0.341566
Cl9   Cl    Cl    0.239072 0.161076 0.526200 -0.602164
Cl10  Cl    Cl    0.769332 0.980056 0.476769 -0.573856
Cl11  Cl    Cl    0.270614 0.587661 0.477792 -0.577140
Cl12  Cl    Cl    0.745133 0.543144 0.528691 -0.594262

loop_
_geom_bond_atom_site_label_1
_geom_bond_atom_site_label_2
_ccdc_geom_bond_type
C40   C52   A    
C80   C81   S    
C93   H64   S    
O1    C5    A    
O25   C85   S    
C29   C34   A    
O19   V1    S    
O13   V1    S    
C86   H47   S    
O3    C7    A    
C79   C80   S    
C72   H8    S    
C17   Cl2   S    
C52   C56   A    
O15   V3    S    
O22   C76   S    
C73   H18   S    
C42   C46   A    
C25   C33   A    
C78   H28   S    
C2    C39   S    
C89   H54   S    
C9    O21   S    
C68   H16   S    
C52   H11   S    
C84   H42   S    
C95   H69   S    
C50   H9    S    
O9    V1    S    
C49   H10   S    
C79   H32   S    
C14   C18   A    
C90   H57   S    
O4    C8    A    
C67   C71   A    
C96   H72   S    
C93   H65   S    
C66   C70   A    
C80   H33   S    
C38   C46   A    
C80   H34   S    
O1    V3    S    
C37   C45   A    
O17   V1    S    
O2    V4    S    
C18   C22   A    
C82   C83   S    
C61   C66   A    
O3    V1    S    
C21   Cl5   S    
C73   H17   S    
C74   C75   S    
C28   C36   A    
C11   O23   S    
C63   C68   A    
C1    O15   A    
C20   Cl3   S    
C2    O16   A    
C8    C33   S    
C88   H53   S    
C95   C96   S    
O2    C6    A    
C94   C95   S    
C82   H38   S    
C41   C45   A    
O28   C94   S    
O14   V2    S    
C21   C25   A    
C92   C93   S    
C16   C20   A    
C83   H41   S    
C87   H51   S    
C44   C48   A    
C76   C77   S    
C53   C61   A    
O11   C7    A    
C93   H63   S    
C94   H66   S    
O12   C8    A    
C31   C36   A    
C85   H46   S    
C86   H48   S    
C46   O25   S    
O10   V2    S    
C44   C60   A    
C87   H50   S    
C53   C57   A    
O7    C3    A    
C81   H36   S    
C96   H71   S    
C9    C29   A    
C38   C50   A    
O7    V3    S    
C95   H68   S    
C11   C31   A    
C92   H61   S    
C26   C34   A    
O20   V4    S    
C37   C49   A    
C79   H31   S    
C5    C36   S    
C71   H7    S    
C90   H58   S    
C6    C35   S    
O18   V4    S    
C77   H26   S    
C23   C27   A    
C54   C58   A    
O19   V3    S    
C66   H14   S    
C64   C67   A    
C9    C13   A    
C91   H59   S    
C73   C74   S    
O8    V4    S    
C11   C15   A    
C90   H56   S    
C92   H62   S    
O5    C1    A    
C41   Cl9   S    
C12   C32   A    
C19   Cl4   S    
C81   H37   S    
C50   C54   A    
C18   Cl1   S    
C49   C53   A    
O8    C4    A    
C88   C89   S    
C83   H40   S    
O9    C5    A    
C26   C30   A    
C40   C48   A    
C48   O27   S    
C74   H19   S    
C60   C72   A    
C78   H30   S    
C83   C84   S    
C75   H23   S    
C43   C59   A    
O18   V2    S    
C77   H27   S    
O26   C88   S    
O6    V2    S    
C10   C30   A    
C84   H44   S    
C43   Cl11  S    
C91   C92   S    
C85   H45   S    
C42   Cl10  S    
C86   C87   S    
C39   C47   A    
C55   C63   A    
C42   C58   A    
O5    V1    S    
C65   C69   A    
C63   C64   A    
C12   C16   A    
C41   C57   A    
C87   H49   S    
C62   C65   A    
C75   H22   S    
C81   H35   S    
O16   V4    S    
C47   O28   S    
C78   H29   S    
C96   H70   S    
C3    O13   A    
C89   H55   S    
C10   C14   A    
O17   V3    S    
C56   C60   A    
C54   C62   A    
C55   C59   A    
O6    C2    A    
C13   H1    S    
O23   C79   S    
C89   C90   S    
C10   O22   S    
O11   V3    S    
C24   Cl8   S    
O12   V4    S    
C15   H3    S    
C4    C37   S    
C22   C26   A    
C16   H4    S    
C32   C35   A    
O10   C6    A    
C45   O26   S    
O20   V2    S    
C76   H24   S    
C1    C40   S    
C23   Cl7   S    
O27   C91   S    
C70   H6    S    
O21   C73   S    
C43   C47   A    
C12   O24   S    
C44   Cl12  S    
C77   C78   S    
C25   C29   A    
C68   C72   A    
C51   H12   S    
C7    C34   S    
C27   C31   A    
C82   H39   S    
C91   H60   S    
C13   C17   A    
C58   C70   A    
C69   H5    S    
C74   H20   S    
C57   C69   A    
C51   C55   A    
C59   C71   A    
C28   C32   A    
C24   C28   A    
C27   C35   A    
C15   C19   A    
C85   C86   S    
C84   H43   S    
C88   H52   S    
C22   Cl6   S    
C4    O14   A    
C94   H67   S    
C17   C21   A    
O24   C82   S    
C67   H15   S    
C56   C64   A    
C76   H25   S    
C61   C62   A    
C19   C23   A    
C30   C33   A    
C39   C51   A    
O4    V2    S    
C20   C24   A    
C65   H13   S    
C75   H21   S    
C14   H2    S    
C3    C38   S    
