data_mof_unit_43005.cif
_audit_creation_date              2012-12-11T15:07:38-0500
_audit_creation_method            fapswitch 2.2
_symmetry_space_group_name_H-M    P1
_symmetry_Int_Tables_number       1
_space_group_crystal_system       triclinic
_cell_length_a                    21.783793
_cell_length_b                    7.191201
_cell_length_c                    18.533808
_cell_angle_alpha                 90.011561
_cell_angle_beta                  96.112254
_cell_angle_gamma                 90.001451
_cell_volume                      2886.84625784

loop_
_atom_site_label
_atom_site_type_symbol
_atom_type_description
_atom_site_fract_x
_atom_site_fract_y
_atom_site_fract_z
_atom_type_partial_charge
O1    O     O_R   0.449650 0.506500 0.414480 -0.530265
O2    O     O_R   0.550350 0.006500 0.585520 -0.530241
O3    O     O_R   0.432010 0.173150 0.560250 -0.517295
O4    O     O_R   0.567990 0.673150 0.439750 -0.517396
C1    C     C_R   0.415930 0.344556 0.580583 0.777295
C2    C     C_R   0.584073 0.844540 0.419419 0.777450
O5    O     O_R   0.442320 0.176650 0.413480 -0.547365
O6    O     O_R   0.557680 0.676650 0.586520 -0.547398
O7    O     O_R   0.560730 0.008380 0.437700 -0.499175
O8    O     O_R   0.439270 0.508380 0.562300 -0.499187
C3    C     C_R   0.428415 0.345248 0.387445 0.817716
C4    C     C_R   0.571580 0.845282 0.612556 0.817838
O9    O     O_3   0.538840 0.339860 0.508120 -0.373644
O10   O     O_3   0.461160 0.839860 0.491880 -0.373611
V1    V     V_3+5 0.492800 0.064220 0.498490 1.670589
V2    V     V_3+5 0.507200 0.564220 0.501510 1.670390
C5    C     C_R   0.873508 0.902838 0.688752 -0.161506
C6    C     C_R   0.126507 0.403841 0.311263 -0.161524
H1    H     H_    0.960714 0.909608 0.752805 0.144035
H2    H     H_    0.039293 0.410592 0.247217 0.144021
H3    H     H_    0.896301 0.892337 0.639955 0.153233
H4    H     H_    0.103717 0.393767 0.360076 0.153241
C7    C     C_R   0.886071 0.935988 0.819255 -0.176205
C8    C     C_R   0.113939 0.436138 0.180734 -0.176179
C9    C     C_R   0.586510 0.818799 0.745852 0.497190
C10   C     C_R   0.413452 0.317995 0.254171 0.497339
C11   C     C_R   0.623564 0.798911 0.811250 0.525551
C12   C     C_R   0.376379 0.297825 0.188797 0.525583
C13   C     C_R   0.687545 0.817950 0.814523 0.532307
C14   C     C_R   0.312408 0.317167 0.185521 0.532252
C15   C     C_R   0.716182 0.870565 0.752253 -0.125196
C16   C     C_R   0.283808 0.370396 0.247752 -0.125125
C17   C     C_R   0.678229 0.876001 0.684269 -0.140288
C18   C     C_R   0.321774 0.376163 0.315725 -0.140255
C19   C     C_R   0.781572 0.901931 0.754003 -0.003251
C20   C     C_R   0.218432 0.402045 0.245989 -0.003259
C21   C     C_R   0.808582 0.902118 0.687088 0.030216
C22   C     C_R   0.191433 0.402856 0.312912 0.030246
C23   C     C_R   0.770303 0.903042 0.620120 0.157679
C24   C     C_R   0.229723 0.404122 0.379872 0.157640
C25   C     C_R   0.706126 0.896492 0.620012 -0.079711
C26   C     C_R   0.293896 0.397264 0.379971 -0.080034
C27   C     C_R   0.821399 0.936768 0.819303 0.674522
C28   C     C_R   0.178610 0.436579 0.180666 0.674494
C29   C     C_R   0.911299 0.913604 0.753909 -0.293781
C30   C     C_R   0.088711 0.414340 0.246105 -0.293807
C31   C     C_R   0.613003 0.851942 0.681561 -0.319597
C32   C     C_R   0.386988 0.351775 0.318441 -0.319512
H5    H     H_    0.677875 0.899602 0.568253 0.105213
H6    H     H_    0.322156 0.400630 0.431723 0.105389
C33   C     C_R   0.640037 0.721047 0.317232 0.619798
C34   C     C_R   0.359941 0.221024 0.682721 0.619804
C35   C     C_R   0.634337 0.855844 0.371153 -0.318207
C36   C     C_R   0.365673 0.355894 0.628858 -0.318383
C37   C     C_R   0.675960 0.005464 0.377767 0.541737
C38   C     C_R   0.324091 0.505606 0.622312 0.542043
C39   C     C_R   0.723347 0.019092 0.332225 -0.048171
C40   C     C_R   0.276697 0.519210 0.667844 -0.048135
C41   C     C_R   0.728521 0.886817 0.276956 -0.126807
C42   C     C_R   0.271490 0.386856 0.723056 -0.126899
C43   C     C_R   0.686317 0.737146 0.269316 -0.152619
C44   C     C_R   0.313666 0.237126 0.730642 -0.152676
C45   C     C_R   0.765679 0.164150 0.341665 -0.135292
C46   C     C_R   0.234389 0.664321 0.658451 -0.135142
C47   C     C_R   0.813287 0.180827 0.297979 0.564602
C48   C     C_R   0.186770 0.680965 0.702124 0.564576
C49   C     C_R   0.819445 0.053622 0.240174 -0.023016
C50   C     C_R   0.180584 0.553692 0.759877 -0.022924
C51   C     C_R   0.775492 0.905531 0.229392 -0.058022
C52   C     C_R   0.224517 0.405557 0.770618 -0.058071
C53   C     C_R   0.778100 0.776554 0.171559 -0.078415
C54   C     C_R   0.221891 0.276528 0.828410 -0.078438
C55   C     C_R   0.735898 0.622934 0.165214 -0.028133
C56   C     C_R   0.264077 0.122879 0.834712 -0.027922
C57   C     C_R   0.690866 0.606430 0.214016 0.688165
C58   C     C_R   0.309099 0.106363 0.785899 0.688159
C59   C     C_R   0.867962 0.067548 0.193847 -0.009336
C60   C     C_R   0.132061 0.567594 0.806197 -0.009259
C61   C     C_R   0.868196 0.943786 0.133794 -0.216798
C62   C     C_R   0.131808 0.443768 0.866210 -0.216871
C63   C     C_R   0.822432 0.806195 0.122082 0.573957
C64   C     C_R   0.177557 0.306148 0.877889 0.573813
H7    H     H_    0.762629 0.266335 0.384149 0.194803
H8    H     H_    0.237462 0.766564 0.616008 0.194772
O11   O     O_R   0.060820 0.290050 0.937800 -0.519329
O12   O     O_R   0.939180 0.790050 0.062200 -0.519404
O13   O     O_R   0.057690 0.616620 0.086540 -0.536574
O14   O     O_R   0.942310 0.116620 0.913460 -0.536491
C65   C     C_R   0.071897 0.448203 0.112518 0.781649
C66   C     C_R   0.928109 0.948171 0.887477 0.781653
O15   O     O_R   0.068010 0.619890 0.939770 -0.546748
O16   O     O_R   0.931990 0.119890 0.060230 -0.546722
O17   O     O_R   0.949640 0.787940 0.914460 -0.536388
O18   O     O_R   0.050360 0.287940 0.085540 -0.536414
C67   C     C_R   0.083420 0.451980 0.917827 0.792527
C68   C     C_R   0.916584 0.951994 0.082177 0.792479
O19   O     O_3   0.961210 0.453080 0.991940 -0.374586
O20   O     O_3   0.038790 0.953080 0.008060 -0.374529
V3    V     V_3+5 0.007200 0.728820 0.001500 1.524797
V4    V     V_3+5 0.992800 0.228820 0.998500 1.524960
F1    F     F_    0.671113 0.136989 0.429661 -0.687361
F2    F     F_    0.328990 0.637270 0.570503 -0.687269
F3    F     F_    0.851867 0.326042 0.314055 -0.721301
F4    F     F_    0.148209 0.826209 0.686084 -0.721465
C69   C     C_3   0.921360 0.204359 0.210215 -0.267373
C70   C     C_3   0.905229 0.399325 0.180260 -0.583029
H9    H     H_    0.898685 0.398907 0.120216 0.234624
H10   H     H_    0.862237 0.452538 0.199522 0.248105
H11   H     H_    0.942798 0.498503 0.197845 0.169139
H12   H     H_    0.936503 0.209168 0.269172 0.224379
H13   H     H_    0.963876 0.155524 0.188214 0.131488
C71   C     C_3   0.078666 0.704410 0.789867 -0.267539
C72   C     C_3   0.094744 0.899265 0.820017 -0.582810
H14   H     H_    0.101832 0.898234 0.880034 0.234911
H15   H     H_    0.137415 0.953445 0.800305 0.248309
H16   H     H_    0.056902 0.998019 0.803093 0.168627
H17   H     H_    0.063550 0.709483 0.730909 0.224409
H18   H     H_    0.036142 0.655356 0.811786 0.131521
F5    F     F_    0.820654 0.707892 0.059400 -0.668949
F6    F     F_    0.179313 0.207772 0.940533 -0.669009
C73   C     C_3   0.737427 0.468668 0.109118 -0.329769
C74   C     C_3   0.696021 0.515379 0.039766 -0.371247
H19   H     H_    0.647063 0.523008 0.051221 0.241868
H20   H     H_    0.709161 0.650745 0.017156 0.294841
H21   H     H_    0.700322 0.405270 0.998597 0.224758
H22   H     H_    0.784782 0.435115 0.097158 0.221587
H23   H     H_    0.721313 0.335157 0.130759 0.215933
C75   C     C_3   0.262560 0.968638 0.890797 -0.329769
C76   C     C_3   0.303932 0.015483 0.960171 -0.371056
H24   H     H_    0.352895 0.023148 0.948742 0.241801
H25   H     H_    0.290778 0.150870 0.982767 0.294808
H26   H     H_    0.299623 0.905423 0.001338 0.224864
H27   H     H_    0.215203 0.934999 0.902719 0.221463
H28   H     H_    0.278710 0.835143 0.869172 0.215958
F7    F     F_    0.650577 0.461370 0.206501 -0.590561
F8    F     F_    0.349372 0.961275 0.793373 -0.590566
C77   C     C_3   0.795705 0.916082 0.547113 -0.390447
C78   C     C_3   0.812624 0.724404 0.519917 -0.724320
H29   H     H_    0.848352 0.657479 0.558571 0.231580
H30   H     H_    0.771041 0.633984 0.513084 0.235290
H31   H     H_    0.830928 0.738494 0.466502 0.235110
H32   H     H_    0.760819 0.977972 0.506158 0.219164
H33   H     H_    0.835785 0.011878 0.549277 0.185682
C79   C     C_3   0.204337 0.417872 0.452872 -0.390552
C80   C     C_3   0.187383 0.226482 0.480290 -0.724418
H34   H     H_    0.151629 0.159339 0.441724 0.231637
H35   H     H_    0.228944 0.136008 0.487200 0.235147
H36   H     H_    0.169100 0.241078 0.533700 0.234962
H37   H     H_    0.239242 0.480034 0.493742 0.219467
H38   H     H_    0.164279 0.513754 0.450617 0.185668
F9    F     F_    0.798710 0.989601 0.881548 -0.617057
F10   F     F_    0.201312 0.488847 0.118366 -0.617020
F11   F     F_    0.524537 0.794588 0.744467 -0.555387
F12   F     F_    0.475410 0.293440 0.255564 -0.555542
F13   F     F_    0.720634 0.760315 0.876537 -0.583260
F14   F     F_    0.279284 0.259224 0.123565 -0.583331
F15   F     F_    0.597418 0.750924 0.871851 -0.561755
F16   F     F_    0.402491 0.249242 0.128232 -0.561851
F17   F     F_    0.598841 0.578503 0.309978 -0.553734
F18   F     F_    0.401104 0.078403 0.689920 -0.553547

loop_
_geom_bond_atom_site_label_1
_geom_bond_atom_site_label_2
_ccdc_geom_bond_type
C34   F18   S    
C48   C50   A    
C69   H12   S    
C45   C47   A    
C7    C29   A    
C11   C13   A    
O1    C3    A    
C64   F6    S    
C77   H32   S    
O2    C4    A    
C8    C65   S    
O19   V4    S    
C2    O7    A    
C23   C77   S    
C80   H34   S    
C58   F8    S    
O3    V1    S    
O8    V2    S    
C23   C25   A    
C43   C57   A    
O5    C3    A    
C14   F14   S    
C28   F10   S    
C56   C58   A    
C16   C20   A    
C19   C21   A    
C5    C29   A    
C73   H23   S    
C1    O8    A    
C71   H17   S    
C60   C62   A    
C39   C41   A    
C70   H9    S    
C40   C42   A    
O16   C68   A    
C7    C27   A    
C42   C44   A    
C65   O18   A    
C51   C53   A    
C46   H8    S    
C79   H38   S    
C56   C75   S    
C47   C49   A    
C18   C26   A    
C15   C17   A    
O18   V4    S    
C19   C27   A    
O17   V3    S    
C10   C32   A    
C13   F13   S    
C76   H26   S    
C35   C37   A    
C69   H13   S    
O6    V2    S    
C22   C24   A    
C75   C76   S    
C40   C46   A    
C55   C57   A    
C44   C58   A    
C3    C32   S    
C4    C31   S    
C6    C30   A    
C25   H5    S    
C71   C72   S    
C80   H35   S    
C34   C36   A    
C39   C45   A    
O13   V3    S    
C59   C61   A    
C50   C60   A    
C36   C38   A    
C41   C43   A    
C9    F11   S    
C48   F4    S    
C1    C36   S    
C54   C56   A    
C53   C55   A    
C79   C80   S    
O5    V1    S    
C6    C22   A    
O15   C67   A    
C5    H3    S    
C72   H15   S    
C49   C51   A    
C16   C18   A    
O4    V2    S    
C79   H37   S    
O2    V1    S    
C75   H28   S    
C49   C59   A    
C71   H18   S    
C42   C52   A    
O6    C4    A    
C12   F16   S    
C7    C66   S    
O1    V2    S    
C5    C21   A    
C62   C67   S    
O12   V3    S    
C73   C74   S    
O14   V4    S    
O12   C68   A    
C26   H6    S    
C62   C64   A    
C41   C51   A    
C55   C73   S    
C37   C39   A    
C9    C11   A    
C17   C31   A    
C15   C19   A    
C10   F12   S    
O4    C2    A    
C18   C32   A    
C47   F3    S    
C2    C35   S    
C74   H20   S    
C20   C22   A    
C77   H33   S    
C80   H36   S    
C27   F9    S    
O16   V4    S    
C66   O17   A    
C61   C63   A    
C72   H14   S    
C77   C78   S    
C63   F5    S    
C9    C31   A    
C6    H4    S    
O14   C66   A    
C24   C26   A    
O3    C1    A    
C78   H31   S    
C60   C71   S    
H1    C29   S    
C78   H30   S    
C53   C63   A    
C11   F15   S    
C69   C70   S    
C37   F1    S    
C10   C12   A    
C59   C69   S    
C24   C79   S    
C17   C25   A    
C72   H16   S    
C74   H21   S    
C12   C14   A    
C76   H24   S    
C8    C30   A    
C73   H22   S    
C21   C23   A    
O11   V4    S    
C34   C44   A    
C75   H27   S    
C14   C16   A    
C33   C43   A    
O11   C67   A    
C70   H10   S    
C8    C28   A    
C33   F17   S    
O13   C65   A    
C38   C40   A    
C57   F7    S    
O7    V1    S    
C54   C64   A    
C20   C28   A    
C78   H29   S    
C33   C35   A    
C38   F2    S    
C61   C68   S    
C13   C15   A    
O20   V3    S    
O9    V2    S    
C45   H7    S    
C50   C52   A    
O10   V1    S    
C52   C54   A    
O15   V3    S    
C74   H19   S    
H2    C30   S    
C46   C48   A    
C76   H25   S    
C70   H11   S    
