data_mof_unit_57128.cif
_audit_creation_date              2012-12-11T15:35:38-0500
_audit_creation_method            fapswitch 2.2
_symmetry_space_group_name_H-M    P1
_symmetry_Int_Tables_number       1
_space_group_crystal_system       triclinic
_cell_length_a                    17.163386
_cell_length_b                    24.234599
_cell_length_c                    14.722357
_cell_angle_alpha                 90.172752
_cell_angle_beta                  124.663048
_cell_angle_gamma                 89.912199
_cell_volume                      5036.81374961

loop_
_atom_site_label
_atom_site_type_symbol
_atom_type_description
_atom_site_fract_x
_atom_site_fract_y
_atom_site_fract_z
_atom_type_partial_charge
C1    C     C_R   0.309524 0.125183 0.911362 0.726116
C2    C     C_R   0.309649 0.874601 0.909346 0.712064
C3    C     C_R   0.809652 0.625350 0.911464 0.713487
C4    C     C_R   0.809507 0.374790 0.909240 0.724957
C5    C     C_R   0.646108 0.152230 0.091830 -0.146690
C6    C     C_R   0.646312 0.848015 0.091646 -0.146834
C7    C     C_R   0.146181 0.652195 0.091888 -0.148702
C8    C     C_R   0.146241 0.347986 0.091612 -0.144976
C9    C     C_R   0.553539 0.846225 0.909695 -0.109855
C10   C     C_R   0.553670 0.153459 0.909858 -0.108040
C11   C     C_R   0.053505 0.346226 0.909669 -0.110944
C12   C     C_R   0.053731 0.653469 0.909908 -0.107077
C13   C     C_R   0.555820 0.999733 0.729866 0.042641
C14   C     C_R   0.055815 0.499727 0.729862 0.042842
C15   C     C_R   0.825515 0.000113 0.273138 0.084283
C16   C     C_R   0.325532 0.499802 0.273229 0.084004
C17   C     C_R   0.612231 0.186259 0.001151 0.118439
C18   C     C_R   0.611869 0.813641 0.001041 0.117876
C19   C     C_R   0.112321 0.686247 0.001251 0.115253
C20   C     C_R   0.111795 0.313623 0.000989 0.121236
C21   C     C_3   0.039819 0.997231 0.568466 0.759285
C22   C     C_3   0.081313 0.054485 0.456597 0.687520
C23   C     C_3   0.581163 0.445313 0.456586 0.680636
C24   C     C_3   0.539848 0.503143 0.568527 0.760394
C25   C     C_3   0.936701 0.002226 0.471188 -0.528256
C26   C     C_3   0.979171 0.051028 0.352349 -0.516915
C27   C     C_3   0.479121 0.448784 0.352193 -0.517654
C28   C     C_3   0.436732 0.497962 0.471270 -0.528451
C29   C     C_3   0.085189 0.950651 0.451026 -0.626848
C30   C     C_3   0.585348 0.549115 0.451111 -0.627743
C31   C     C_3   0.105340 0.001120 0.527428 0.022682
C32   C     C_3   0.605349 0.498879 0.527464 0.024621
C33   C     C_3   0.928024 0.000295 0.360391 0.227661
C34   C     C_3   0.428041 0.499646 0.360465 0.228367
C35   C     C_R   0.402512 0.873901 0.093799 -0.238587
C36   C     C_R   0.403078 0.124781 0.095463 -0.249495
C37   C     C_R   0.902425 0.373916 0.093716 -0.239191
C38   C     C_R   0.903142 0.624787 0.095534 -0.249492
C39   C     C_3   0.978741 0.947851 0.357456 -0.420997
C40   C     C_3   0.478836 0.551988 0.357762 -0.419397
C41   C     C_R   0.154607 0.815663 0.903962 -0.279156
C42   C     C_R   0.153626 0.181021 0.910061 -0.249095
C43   C     C_R   0.654606 0.315581 0.903700 -0.245293
C44   C     C_R   0.653699 0.681004 0.910240 -0.279702
C45   C     C_R   0.604191 0.271128 0.901465 0.709265
C46   C     C_R   0.603060 0.726490 0.904767 0.717005
C47   C     C_R   0.104151 0.771218 0.901705 0.710755
C48   C     C_R   0.103009 0.226508 0.904633 0.717461
C49   C     C_R   0.631405 0.245611 0.000852 -0.149714
C50   C     C_R   0.629767 0.753954 0.002269 -0.145220
C51   C     C_R   0.131528 0.745603 0.001068 -0.142186
C52   C     C_R   0.129670 0.253931 0.002158 -0.153636
C53   C     C_R   0.687811 0.276136 0.100152 -0.111732
C54   C     C_R   0.686649 0.725385 0.103026 -0.116990
C55   C     C_R   0.188116 0.776046 0.100446 -0.115390
C56   C     C_R   0.186520 0.225330 0.102877 -0.113159
C57   C     C_R   0.242863 0.820453 0.102604 -0.035505
C58   C     C_R   0.246454 0.182801 0.109779 -0.025211
C59   C     C_R   0.742561 0.320552 0.102313 -0.033976
C60   C     C_R   0.746606 0.682865 0.109957 -0.028298
C61   C     C_R   0.235045 0.833699 0.004003 -0.008415
C62   C     C_R   0.236556 0.165605 0.010725 -0.017652
C63   C     C_R   0.734862 0.333762 0.003759 -0.021858
C64   C     C_R   0.736700 0.665669 0.010900 -0.003670
C65   C     C_R   0.616743 0.949590 0.635625 -0.174667
C66   C     C_R   0.619335 0.049309 0.638253 -0.176105
C67   C     C_R   0.116698 0.449572 0.635594 -0.172225
C68   C     C_R   0.119346 0.549291 0.638256 -0.178066
C69   C     C_R   0.618332 0.949743 0.542597 -0.166326
C70   C     C_R   0.619617 0.049496 0.544284 -0.149366
C71   C     C_R   0.118283 0.449723 0.542565 -0.160101
C72   C     C_R   0.119640 0.549476 0.544296 -0.155179
C73   C     C_R   0.607312 0.999731 0.488810 0.137078
C74   C     C_R   0.107304 0.499713 0.488803 0.136695
C75   C     C_R   0.550124 0.045458 0.305582 -0.115151
C76   C     C_R   0.549422 0.954430 0.304887 -0.104960
C77   C     C_R   0.050137 0.545452 0.305592 -0.116593
C78   C     C_R   0.049406 0.454424 0.304874 -0.103392
C79   C     C_R   0.604589 0.999491 0.674467 0.135187
C80   C     C_R   0.104576 0.499477 0.674456 0.134891
C81   C     C_R   0.247976 0.954622 0.691960 -0.051917
C82   C     C_R   0.249476 0.045943 0.692473 0.166053
C83   C     C_R   0.749649 0.454124 0.692030 0.174352
C84   C     C_R   0.747800 0.545443 0.692401 -0.058738
C85   C     C_R   0.311936 0.137946 0.006437 -0.066077
C86   C     C_R   0.311246 0.861360 0.002784 -0.065157
C87   C     C_R   0.812065 0.638036 0.006563 -0.063334
C88   C     C_R   0.811092 0.361466 0.002639 -0.067838
C89   C     C_R   0.568027 0.999913 0.370762 0.036138
C90   C     C_R   0.068024 0.499903 0.370759 0.036215
C91   C     C_R   0.203575 0.000545 0.627307 -0.118845
C92   C     C_R   0.703573 0.499515 0.627324 -0.119080
C93   C     C_R   0.522113 0.045760 0.753653 -0.151367
C94   C     C_R   0.522074 0.953934 0.753700 -0.133496
C95   C     C_R   0.022118 0.545757 0.753655 -0.141789
C96   C     C_R   0.022066 0.453931 0.753696 -0.143213
C97   C     C_R   0.768837 0.953723 0.247378 -0.140251
C98   C     C_R   0.768621 0.046411 0.247580 -0.134633
C99   C     C_R   0.268648 0.453550 0.247748 -0.134493
C100  C     C_R   0.268841 0.546237 0.247359 -0.140493
H1    H     H_    0.906695 0.041694 0.477489 0.225459
H2    H     H_    0.942505 0.090285 0.344264 0.198643
H3    H     H_    0.442352 0.409556 0.343670 0.197777
H4    H     H_    0.406859 0.458511 0.477504 0.225525
H5    H     H_    0.895580 0.968103 0.475663 0.136180
H6    H     H_    0.980186 0.047252 0.277668 0.135102
H7    H     H_    0.480339 0.452448 0.277670 0.135970
H8    H     H_    0.395520 0.532101 0.475839 0.136305
H9    H     H_    0.104970 0.911133 0.496965 0.208883
H10   H     H_    0.127465 0.954185 0.415533 0.203541
H11   H     H_    0.627424 0.545216 0.415382 0.199469
H12   H     H_    0.605492 0.588748 0.497112 0.209418
H13   H     H_    0.948964 0.910089 0.369449 0.172211
H14   H     H_    0.968950 0.944120 0.276204 0.184454
H15   H     H_    0.468861 0.555626 0.276435 0.183813
H16   H     H_    0.449246 0.589817 0.370190 0.172619
H17   H     H_    0.132838 0.832496 0.825458 0.237177
H18   H     H_    0.130984 0.161679 0.832952 0.259701
H19   H     H_    0.632961 0.332260 0.825145 0.261632
H20   H     H_    0.631030 0.661582 0.833180 0.233918
H21   H     H_    0.613585 0.910227 0.667714 0.119757
H22   H     H_    0.618594 0.088552 0.672861 0.120345
H23   H     H_    0.113517 0.410209 0.667666 0.122384
H24   H     H_    0.118619 0.588535 0.672872 0.118257
H25   H     H_    0.431963 0.867248 0.179592 0.154593
H26   H     H_    0.433156 0.128725 0.181487 0.162064
H27   H     H_    0.931844 0.367217 0.179491 0.154669
H28   H     H_    0.933222 0.628685 0.181562 0.162219
H29   H     H_    0.617251 0.910464 0.507016 0.109769
H30   H     H_    0.619231 0.088865 0.509822 0.112990
H31   H     H_    0.117167 0.410443 0.506963 0.111837
H32   H     H_    0.119291 0.588843 0.509854 0.111886
H33   H     H_    0.569602 0.087630 0.333424 0.093400
H34   H     H_    0.567950 0.912123 0.331647 0.088262
H35   H     H_    0.069636 0.587620 0.333450 0.093220
H36   H     H_    0.067913 0.412113 0.331616 0.088604
H37   H     H_    0.237986 0.912568 0.663230 0.170243
H38   H     H_    0.242875 0.087923 0.665002 0.193901
H39   H     H_    0.743413 0.412269 0.663674 0.191702
H40   H     H_    0.737317 0.587607 0.664551 0.170109
H41   H     H_    0.533503 0.088600 0.744836 0.107931
H42   H     H_    0.533480 0.911009 0.745119 0.105768
H43   H     H_    0.033515 0.588597 0.744842 0.104193
H44   H     H_    0.033463 0.411005 0.745111 0.109654
H45   H     H_    0.790514 0.911070 0.262472 0.092985
H46   H     H_    0.789651 0.089151 0.263299 0.100395
H47   H     H_    0.289750 0.410846 0.263761 0.099628
H48   H     H_    0.290469 0.588918 0.262254 0.093789
H49   H     H_    0.686265 0.164065 0.177159 0.114855
H50   H     H_    0.687072 0.836697 0.177087 0.112394
H51   H     H_    0.186404 0.663965 0.177250 0.113827
H52   H     H_    0.186909 0.336621 0.177023 0.113424
H53   H     H_    0.504173 0.833009 0.825553 0.185035
H54   H     H_    0.504054 0.166085 0.825627 0.188199
H55   H     H_    0.004122 0.333027 0.825520 0.186010
H56   H     H_    0.004193 0.666116 0.825673 0.187221
H57   H     H_    0.050365 0.956608 0.609224 0.029743
H58   H     H_    0.131551 0.059042 0.432164 -0.011390
H59   H     H_    0.631484 0.440412 0.432311 -0.003406
H60   H     H_    0.550365 0.543935 0.609134 0.029785
N1    N     N_R   0.392140 0.102630 0.941800 -0.115291
N2    N     N_R   0.392140 0.897370 0.941800 -0.104956
N3    N     N_R   0.892140 0.602630 0.941800 -0.104458
N4    N     N_R   0.892140 0.397370 0.941800 -0.115818
N5    N     N_R   0.450890 0.896450 0.057150 -0.072733
N6    N     N_R   0.450890 0.103550 0.057150 -0.073637
N7    N     N_R   0.950890 0.396450 0.057150 -0.073435
N8    N     N_R   0.950890 0.603550 0.057150 -0.072862
N9    N     N_R   0.525160 0.027960 0.206160 -0.037752
N10   N     N_R   0.525160 0.972040 0.206160 -0.037294
N11   N     N_R   0.025160 0.527960 0.206160 -0.037967
N12   N     N_R   0.025160 0.472040 0.206160 -0.037099
N13   N     N_R   0.317870 0.971120 0.792790 -0.056260
N14   N     N_R   0.317870 0.028880 0.792790 -0.080727
N15   N     N_R   0.817870 0.471120 0.792790 -0.079845
N16   N     N_R   0.817870 0.528880 0.792790 -0.056886
N17   N     N_R   0.473480 0.027920 0.793480 -0.052648
N18   N     N_R   0.473480 0.972080 0.793480 -0.046775
N19   N     N_R   0.973480 0.527920 0.793480 -0.046164
N20   N     N_R   0.973480 0.472080 0.793480 -0.053495
N21   N     N_R   0.681610 0.971120 0.207570 -0.039121
N22   N     N_R   0.681610 0.028880 0.207570 -0.039505
N23   N     N_R   0.181610 0.471120 0.207570 -0.039627
N24   N     N_R   0.181610 0.528880 0.207570 -0.038950
N25   N     N_R   0.605410 0.102620 0.056870 -0.041468
N26   N     N_R   0.605410 0.897380 0.056870 -0.041621
N27   N     N_R   0.105410 0.602620 0.056870 -0.041189
N28   N     N_R   0.105410 0.397380 0.056870 -0.041876
N29   N     N_R   0.549680 0.896430 0.944180 -0.058424
N30   N     N_R   0.549680 0.103570 0.944180 -0.059550
N31   N     N_R   0.049680 0.396430 0.944180 -0.059701
N32   N     N_R   0.049680 0.603570 0.944180 -0.058255
Ni1   Ni    Ni4+2 0.433410 0.064680 0.868830 0.229616
Ni2   Ni    Ni4+2 0.433410 0.935320 0.868830 0.230672
Ni3   Ni    Ni4+2 0.933410 0.564680 0.868830 0.229851
Ni4   Ni    Ni4+2 0.933410 0.435320 0.868830 0.230251
Ni5   Ni    Ni4+2 0.565650 0.934380 0.131170 0.208687
Ni6   Ni    Ni4+2 0.565650 0.065620 0.131170 0.208899
Ni7   Ni    Ni4+2 0.065650 0.434380 0.131170 0.209286
Ni8   Ni    Ni4+2 0.065650 0.565620 0.131170 0.208198
F1    F     F_    0.240024 0.136736 0.805218 -0.699355
F2    F     F_    0.241293 0.863137 0.802739 -0.758930
F3    F     F_    0.740550 0.637517 0.805529 -0.754886
F4    F     F_    0.740699 0.364022 0.802426 -0.703380
F5    F     F_    0.060376 0.038029 0.645537 -0.637494
F6    F     F_    0.087968 0.101363 0.514925 -0.656443
F7    F     F_    0.587483 0.398671 0.514832 -0.657557
F8    F     F_    0.560451 0.462662 0.645752 -0.637318
F9    F     F_    0.533324 0.252065 0.800937 -0.717124
F10   F     F_    0.532274 0.744537 0.803389 -0.727892
F11   F     F_    0.033042 0.752276 0.801196 -0.731227
F12   F     F_    0.032290 0.244602 0.803260 -0.712809
C101  C     C_R   0.671562 0.269919 0.188712 0.172657
C102  C     C_R   0.582078 0.282811 0.165499 -0.135757
C103  C     C_R   0.564862 0.277559 0.247156 -0.123603
C104  C     C_R   0.636590 0.259087 0.352481 -0.080969
C105  C     C_R   0.725655 0.245827 0.376244 -0.097040
C106  C     C_R   0.743252 0.251204 0.294869 -0.175493
H61   H     H_    0.525814 0.297229 0.084230 0.121754
H62   H     H_    0.495893 0.287874 0.228714 0.115476
H63   H     H_    0.623012 0.254813 0.415480 0.133044
H64   H     H_    0.780869 0.230926 0.457493 0.149074
H65   H     H_    0.811339 0.238729 0.313355 0.119054
C107  C     C_R   0.668880 0.733143 0.190533 0.168245
C108  C     C_R   0.740274 0.751107 0.297835 -0.159070
C109  C     C_R   0.720493 0.758799 0.376955 -0.102518
C110  C     C_R   0.629353 0.749060 0.349795 -0.105202
C111  C     C_R   0.557726 0.731726 0.243343 -0.124970
C112  C     C_R   0.577276 0.723787 0.164090 -0.136031
H66   H     H_    0.809779 0.761800 0.318875 0.118684
H67   H     H_    0.775574 0.773094 0.458955 0.136508
H68   H     H_    0.614032 0.755384 0.410950 0.113403
H69   H     H_    0.486948 0.724560 0.222122 0.112791
H70   H     H_    0.520914 0.710358 0.081885 0.120393
C113  C     C_R   0.172177 0.769716 0.189231 0.177098
C114  C     C_R   0.082781 0.782500 0.166368 -0.129911
C115  C     C_R   0.065841 0.777067 0.248222 -0.125037
C116  C     C_R   0.137756 0.758516 0.353388 -0.100419
C117  C     C_R   0.226747 0.745379 0.376810 -0.098687
C118  C     C_R   0.244073 0.750946 0.295242 -0.175775
H71   H     H_    0.026367 0.796960 0.085215 0.118080
H72   H     H_    0.996938 0.787301 0.230050 0.108657
H73   H     H_    0.124384 0.754085 0.416530 0.112140
H74   H     H_    0.282109 0.730420 0.457934 0.135766
H75   H     H_    0.312097 0.738550 0.313442 0.106020
C119  C     C_R   0.168670 0.233000 0.190332 0.163992
C120  C     C_R   0.239973 0.250988 0.297652 -0.159590
C121  C     C_R   0.220170 0.258458 0.376804 -0.099185
C122  C     C_R   0.129100 0.248461 0.349659 -0.082455
C123  C     C_R   0.057557 0.231111 0.243181 -0.123028
C124  C     C_R   0.077126 0.223405 0.163890 -0.141717
H76   H     H_    0.309429 0.261834 0.318706 0.130940
H77   H     H_    0.275185 0.272760 0.458828 0.149329
H78   H     H_    0.113768 0.254590 0.410850 0.131565
H79   H     H_    0.986835 0.223738 0.221979 0.118386
H80   H     H_    0.020842 0.209935 0.081679 0.123780
C125  C     C_R   0.288667 0.859781 0.196404 0.168763
C126  C     C_R   0.369531 0.845166 0.300041 -0.187848
C127  C     C_R   0.406727 0.881587 0.389257 -0.101803
C128  C     C_R   0.364880 0.933234 0.375075 -0.073235
C129  C     C_R   0.285450 0.948282 0.271536 -0.117443
C130  C     C_R   0.247486 0.911806 0.182582 -0.130181
H81   H     H_    0.404104 0.805936 0.311380 0.103675
H82   H     H_    0.467781 0.869602 0.469373 0.115450
H83   H     H_    0.393845 0.961474 0.444176 0.111509
H84   H     H_    0.251950 0.987771 0.259809 0.106230
H85   H     H_    0.184862 0.923666 0.103345 0.116928
C131  C     C_R   0.309405 0.154887 0.217428 0.170993
C132  C     C_R   0.273715 0.111156 0.245908 -0.127732
C133  C     C_R   0.323101 0.093015 0.355341 -0.115537
C134  C     C_R   0.409137 0.117397 0.436203 -0.053720
C135  C     C_R   0.446452 0.159956 0.408168 -0.112351
C136  C     C_R   0.396203 0.179238 0.299613 -0.224006
H86   H     H_    0.205157 0.093435 0.184853 0.107094
H87   H     H_    0.293428 0.061286 0.378607 0.095549
H88   H     H_    0.445764 0.103972 0.520947 0.105862
H89   H     H_    0.512752 0.179198 0.471196 0.128668
H90   H     H_    0.423165 0.214219 0.279954 0.119571
C137  C     C_R   0.788422 0.359872 0.196130 0.168446
C138  C     C_R   0.869186 0.345195 0.299807 -0.188730
C139  C     C_R   0.906532 0.381657 0.388981 -0.098173
C140  C     C_R   0.864949 0.433399 0.374711 -0.075121
C141  C     C_R   0.785630 0.448505 0.271129 -0.118087
C142  C     C_R   0.747510 0.411990 0.182221 -0.127781
H91   H     H_    0.903588 0.305891 0.311198 0.109322
H92   H     H_    0.967519 0.369633 0.469122 0.118933
H93   H     H_    0.894041 0.461679 0.443773 0.111678
H94   H     H_    0.752354 0.488084 0.259316 0.106652
H95   H     H_    0.684992 0.423910 0.102941 0.119873
C143  C     C_R   0.809459 0.654897 0.217568 0.173129
C144  C     C_R   0.773577 0.611250 0.245992 -0.129450
C145  C     C_R   0.822888 0.593071 0.355394 -0.117765
C146  C     C_R   0.909045 0.617324 0.436284 -0.050455
C147  C     C_R   0.946535 0.659808 0.408312 -0.121549
C148  C     C_R   0.896359 0.679133 0.299791 -0.222966
H96   H     H_    0.704935 0.593628 0.184917 0.105718
H97   H     H_    0.793072 0.561403 0.378605 0.095305
H98   H     H_    0.945633 0.603862 0.521002 0.104934
H99   H     H_    0.012922 0.678959 0.471366 0.119647
H100  H     H_    0.923463 0.714060 0.280190 0.115315

loop_
_geom_bond_atom_site_label_1
_geom_bond_atom_site_label_2
_ccdc_geom_bond_type
C13   C79   S    
C144  C145  A    
C2    F2    S    
C41   C61   A    
C10   H54   S    
C25   H5    S    
N25   N30   A    
N19   Ni3   S    
C120  H76   S    
C44   C64   A    
C66   C79   A    
C140  C141  A    
N17   Ni1   S    
C115  H72   S    
N28   N31   A    
C29   H9    S    
C35   C86   A    
C134  C135  A    
C5    H49   S    
N12   Ni7   S    
C94   N18   A    
C112  H70   S    
N31   Ni4   S    
N29   Ni2   S    
C82   N14   A    
C135  C136  A    
C75   N9    A    
C66   H22   S    
N20   Ni4   S    
C145  H97   S    
C15   C97   A    
C9    N29   A    
C111  C112  A    
C44   C46   A    
C72   H32   S    
C12   N32   A    
C11   C20   A    
C43   C63   A    
N32   Ni3   S    
C101  C102  A    
C8    N28   A    
C82   C91   A    
C81   H37   S    
N23   N24   A    
N6    Ni6   S    
C96   H44   S    
N2    N5    A    
C28   H4    S    
C110  C111  A    
C77   N11   A    
C78   N12   A    
C96   N20   A    
C76   N10   A    
C7    C19   A    
C55   C57   A    
C118  H75   S    
C14   C95   A    
C139  H92   S    
C99   H47   S    
C23   F7    S    
C141  H94   S    
C97   H45   S    
C36   H26   S    
C136  H90   S    
C67   H23   S    
C38   H28   S    
C57   C61   A    
C6    N26   A    
C59   C63   A    
C108  H66   S    
N27   Ni8   S    
C60   C64   A    
C74   C90   S    
C129  H84   S    
C82   H38   S    
C107  C112  A    
C26   H2    S    
C124  H80   S    
C66   C70   A    
C28   H8    S    
C49   C53   A    
C57   C125  S    
C51   C55   A    
C48   C52   A    
C71   H31   S    
C69   H29   S    
N13   Ni2   S    
C103  H62   S    
C65   C79   A    
C47   F11   S    
C113  C118  A    
N21   Ni5   S    
C2    N2    A    
C106  H65   S    
C32   C92   S    
C21   C31   S    
C122  C123  A    
C146  C147  A    
C132  H86   S    
C7    N27   A    
C8    H52   S    
C129  C130  A    
C114  C115  A    
C22   F6    S    
C125  C126  A    
C146  H98   S    
C35   H25   S    
C16   C34   S    
C138  H91   S    
N24   Ni8   S    
C23   H59   S    
N26   Ni5   S    
N3    Ni3   S    
C42   C62   A    
C64   C87   S    
C99   N23   A    
C11   H55   S    
C76   C89   A    
C9    H53   S    
C140  H93   S    
C115  C116  A    
N2    Ni2   S    
C12   H56   S    
C108  C109  A    
C119  C124  A    
C134  H88   S    
C94   H42   S    
C48   F12   S    
C138  C139  A    
C17   C49   S    
C130  H85   S    
C93   N17   A    
C121  H77   S    
C16   C100  A    
C105  C106  A    
C116  H73   S    
C45   F9    S    
C30   H12   S    
C81   N13   A    
C114  H71   S    
N11   Ni8   S    
C26   C33   S    
C137  C138  A    
C41   C47   A    
C13   C94   A    
N1    Ni1   S    
C42   C48   A    
C43   C45   A    
C111  H69   S    
C31   C91   S    
C21   C25   S    
C119  C120  A    
C53   C101  S    
C133  H87   S    
C24   C28   S    
C128  C129  A    
C101  C106  A    
N4    Ni4   S    
C4    C88   A    
N3    N8    A    
C147  H99   S    
C56   C58   A    
C11   N31   A    
N16   Ni3   S    
C75   C89   A    
C28   C34   S    
C9    C18   A    
C109  C110  A    
C141  C142  A    
N7    Ni7   S    
C84   C92   A    
C41   H17   S    
N10   Ni5   S    
C43   H19   S    
C58   C62   A    
C60   C143  S    
C95   H43   S    
C59   C137  S    
C63   C88   S    
C3    F3    S    
C37   C88   A    
C117  C118  A    
C5    N25   A    
C1    F1    S    
C107  C108  A    
C26   H6    S    
C83   H39   S    
C37   N7    A    
N21   N22   A    
C78   C90   A    
C38   N8    A    
N18   Ni2   S    
C50   C54   A    
C147  C148  A    
C40   H15   S    
C5    C17   A    
C44   H20   S    
C70   H30   S    
C143  C144  A    
C104  H63   S    
N30   Ni1   S    
C113  C114  A    
C69   C73   A    
C65   H21   S    
C3    N3    A    
C1    N1    A    
C122  H78   S    
C132  C133  A    
C14   C96   A    
C77   C90   A    
C125  C130  A    
C29   H10   S    
C72   C74   A    
C127  H82   S    
C76   H34   S    
C42   H18   S    
C47   C51   A    
C22   H58   S    
C123  C124  A    
C24   F8    S    
C13   C93   A    
C98   N22   A    
N5    Ni5   S    
C54   C107  S    
C27   H7    S    
C70   C73   A    
C33   C39   S    
C137  C142  A    
C7    H51   S    
C142  H95   S    
C15   C98   A    
N15   Ni4   S    
C93   H41   S    
C121  C122  A    
C18   C50   S    
C105  H64   S    
C116  C117  A    
N8    Ni8   S    
N4    N7    A    
C67   C80   A    
C55   C113  S    
C71   C74   A    
C75   H33   S    
C148  H100  S    
C36   C85   A    
C38   C87   A    
C23   C32   S    
N26   N29   A    
C144  H96   S    
C73   C89   S    
C46   F10   S    
C25   H1    S    
C65   C69   A    
C12   C19   A    
C27   H3    S    
C126  C127  A    
C67   C71   A    
C100  N24   A    
C61   C86   S    
N19   N20   A    
C6    H50   S    
C131  C132  A    
N14   Ni1   S    
C29   C31   S    
N17   N18   A    
C22   C26   S    
C58   C131  S    
C133  C134  A    
C128  H83   S    
C84   N16   A    
C68   C80   A    
N11   N12   A    
C135  H89   S    
C83   N15   A    
N9    N10   A    
C126  H81   S    
N22   Ni6   S    
C103  C104  A    
C68   H24   S    
C24   C32   S    
C53   C59   A    
C54   C60   A    
N13   N14   A    
C83   C92   A    
C8    C20   A    
C34   C40   S    
C145  C146  A    
C102  H61   S    
C4    F4    S    
C10   C17   A    
C109  H67   S    
C21   F5    S    
N15   N16   A    
C131  C136  A    
C4    N4    A    
C117  H74   S    
C23   C27   S    
N25   Ni6   S    
N1    N6    A    
C68   C72   A    
C110  H68   S    
C27   C34   S    
C1    C85   A    
C6    C18   A    
C62   C85   S    
C22   C31   S    
C3    C87   A    
C143  C148  A    
C104  C105  A    
C102  C103  A    
C98   H46   S    
N28   Ni7   S    
C39   H13   S    
C139  C140  A    
C56   C119  S    
N23   Ni7   S    
C39   H14   S    
C29   C39   S    
C36   N6    A    
C45   C49   A    
C30   C40   S    
C81   C91   A    
C10   N30   A    
C95   N19   A    
C14   C80   S    
C127  C128  A    
C123  H79   S    
C21   H57   S    
C120  C121  A    
C24   H60   S    
C16   C99   A    
C97   N21   A    
C46   C50   A    
C30   H11   S    
C20   C52   S    
C30   C32   S    
C40   H16   S    
C100  H48   S    
C35   N5    A    
N27   N32   A    
C2    C86   A    
C19   C51   S    
C84   H40   S    
C25   C33   S    
C77   H35   S    
C78   H36   S    
C15   C33   S    
C52   C56   A    
N9    Ni6   S    
C37   H27   S    
