data_mof_unit_41076.cif
_audit_creation_date              2012-12-11T15:08:39-0500
_audit_creation_method            fapswitch 2.2
_symmetry_space_group_name_H-M    P1
_symmetry_Int_Tables_number       1
_space_group_crystal_system       monoclinic
_cell_length_a                    25.958596
_cell_length_b                    27.542628
_cell_length_c                    8.398903
_cell_angle_alpha                 90.0
_cell_angle_beta                  96.107794
_cell_angle_gamma                 90.0
_cell_volume                      5970.85928516

loop_
_atom_site_label
_atom_site_type_symbol
_atom_type_description
_atom_site_fract_x
_atom_site_fract_y
_atom_site_fract_z
_atom_type_partial_charge
Ba1   Ba    Ba6+2 0.999910 0.465960 0.844870 1.642705
Ba2   Ba    Ba6+2 0.999910 0.534040 0.344870 1.642706
Ba3   Ba    Ba6+2 0.499910 0.965960 0.844870 1.642706
Ba4   Ba    Ba6+2 0.499910 0.034040 0.344870 1.642706
C1    C     C_3   0.041846 0.240194 0.627592 -0.365503
C2    C     C_3   0.041842 0.759810 0.127586 -0.365508
C3    C     C_3   0.541843 0.740190 0.627591 -0.365506
C4    C     C_3   0.541842 0.259810 0.127584 -0.365510
C5    C     C_R   0.885008 0.390843 0.151066 0.064817
C6    C     C_R   0.885008 0.609157 0.651065 0.064816
C7    C     C_R   0.385008 0.890843 0.151066 0.064815
C8    C     C_R   0.385008 0.109157 0.651066 0.064815
C9    C     C_R   0.845204 0.357919 0.099466 -0.129103
C10   C     C_R   0.845204 0.642082 0.599465 -0.129108
C11   C     C_R   0.345204 0.857918 0.099465 -0.129108
C12   C     C_R   0.345204 0.142082 0.599465 -0.129108
C13   C     C_R   0.834081 0.317850 0.195955 -0.015366
C14   C     C_R   0.834082 0.682151 0.695954 -0.015364
C15   C     C_R   0.334081 0.817849 0.195954 -0.015364
C16   C     C_R   0.334081 0.182150 0.695954 -0.015364
C17   C     C_R   0.863145 0.312453 0.347269 -0.134731
C18   C     C_R   0.863146 0.687548 0.847268 -0.134728
C19   C     C_R   0.363146 0.812452 0.347268 -0.134728
C20   C     C_R   0.363146 0.187548 0.847268 -0.134728
C21   C     C_R   0.902461 0.345671 0.399021 0.009517
C22   C     C_R   0.902462 0.654330 0.899019 0.009511
C23   C     C_R   0.402462 0.845670 0.399019 0.009511
C24   C     C_R   0.402462 0.154330 0.899019 0.009511
C25   C     C_R   0.795331 0.233253 0.179768 -0.080363
C26   C     C_R   0.795332 0.766748 0.679766 -0.080364
C27   C     C_R   0.295332 0.733253 0.179766 -0.080363
C28   C     C_R   0.295332 0.266747 0.679767 -0.080364
C29   C     C_R   0.254825 0.700808 0.132094 -0.073308
C30   C     C_R   0.254825 0.299192 0.632094 -0.073307
C31   C     C_R   0.754825 0.200808 0.132095 -0.073307
C32   C     C_R   0.754825 0.799192 0.632093 -0.073307
C33   C     C_R   0.208545 0.717098 0.045801 0.061290
C34   C     C_R   0.208545 0.282902 0.545802 0.061289
C35   C     C_R   0.708545 0.217098 0.045802 0.061290
C36   C     C_R   0.708546 0.782902 0.545801 0.061289
C37   C     C_R   0.204135 0.766918 0.008887 -0.080225
C38   C     C_R   0.204135 0.233082 0.508888 -0.080227
C39   C     C_R   0.704135 0.266918 0.008888 -0.080225
C40   C     C_R   0.704135 0.733082 0.508888 -0.080225
C41   C     C_R   0.744606 0.299377 0.056762 -0.073908
C42   C     C_R   0.744607 0.700623 0.556762 -0.073908
C43   C     C_R   0.244607 0.799377 0.056762 -0.073908
C44   C     C_R   0.244606 0.200623 0.556763 -0.073908
C45   C     C_3   0.982107 0.290458 0.083245 0.352997
C46   C     C_3   0.982103 0.709539 0.583213 0.353013
C47   C     C_3   0.482103 0.790461 0.083215 0.353014
C48   C     C_3   0.482103 0.209539 0.583214 0.353015
C49   C     C_R   0.790928 0.283097 0.142943 0.062019
C50   C     C_R   0.790929 0.716904 0.642942 0.062018
C51   C     C_R   0.290929 0.783096 0.142942 0.062018
C52   C     C_R   0.290929 0.216904 0.642942 0.062018
C53   C     C_R   0.136972 0.687221 0.840495 -0.136936
C54   C     C_R   0.136972 0.312779 0.340495 -0.136931
C55   C     C_R   0.636972 0.187221 0.840495 -0.136935
C56   C     C_R   0.636972 0.812779 0.340495 -0.136935
C57   C     C_R   0.097474 0.654158 0.789247 0.001948
C58   C     C_R   0.097475 0.345842 0.289248 0.001953
C59   C     C_R   0.597474 0.154158 0.789247 0.001947
C60   C     C_R   0.597475 0.845842 0.289247 0.001948
C61   C     C_R   0.113555 0.610183 0.040017 0.135398
C62   C     C_R   0.113556 0.389817 0.540017 0.135394
C63   C     C_R   0.613555 0.110183 0.040017 0.135397
C64   C     C_R   0.613556 0.889817 0.540017 0.135397
C65   C     C_R   0.153515 0.643007 0.091115 -0.120359
C66   C     C_R   0.153515 0.356993 0.591116 -0.120367
C67   C     C_R   0.653515 0.143007 0.091115 -0.120360
C68   C     C_R   0.653515 0.856993 0.591115 -0.120360
C69   C     C_R   0.165387 0.682385 0.992935 -0.015179
C70   C     C_R   0.165387 0.317615 0.492936 -0.015180
C71   C     C_R   0.665387 0.182385 0.992936 -0.015178
C72   C     C_R   0.665387 0.817615 0.492935 -0.015179
C73   C     C_R   0.084878 0.616988 0.891375 -0.224238
C74   C     C_R   0.084878 0.383012 0.391375 -0.224223
C75   C     C_R   0.584878 0.116988 0.891375 -0.224237
C76   C     C_R   0.584878 0.883012 0.391375 -0.224238
C77   C     C_3   0.957135 0.240585 0.065196 -0.368999
C78   C     C_3   0.957131 0.759412 0.565172 -0.369003
C79   C     C_3   0.457131 0.740588 0.065176 -0.369005
C80   C     C_3   0.457131 0.259412 0.565171 -0.369004
C81   C     C_3   0.154438 0.468021 0.190737 0.661631
C82   C     C_3   0.154438 0.531979 0.690738 0.661631
C83   C     C_3   0.654438 0.968021 0.190738 0.661632
C84   C     C_3   0.654438 0.031979 0.690738 0.661630
C85   C     C_3   0.191693 0.438632 0.098893 -0.332307
C86   C     C_3   0.191693 0.561368 0.598893 -0.332307
C87   C     C_3   0.691693 0.938632 0.098893 -0.332307
C88   C     C_3   0.691693 0.061368 0.598893 -0.332308
C89   C     C_3   0.852081 0.531198 0.967746 0.313812
C90   C     C_3   0.852080 0.468802 0.467745 0.313814
C91   C     C_3   0.352081 0.031198 0.967746 0.313812
C92   C     C_3   0.352081 0.968802 0.467746 0.313812
C93   C     C_3   0.803244 0.562122 0.950094 -0.392774
C94   C     C_3   0.803243 0.437879 0.450094 -0.392775
C95   C     C_3   0.303244 0.062122 0.950094 -0.392774
C96   C     C_3   0.303244 0.937878 0.450094 -0.392773
C97   C     C_3   0.017079 0.290113 0.607489 0.355775
C98   C     C_3   0.017074 0.709892 0.107453 0.355760
C99   C     C_3   0.517074 0.790108 0.607456 0.355760
C100  C     C_3   0.517074 0.209892 0.107453 0.355762
C101  C     C_R   0.914420 0.383375 0.298084 -0.286564
C102  C     C_R   0.914421 0.616625 0.798083 -0.286555
C103  C     C_R   0.414421 0.883375 0.298083 -0.286555
C104  C     C_R   0.414421 0.116625 0.798083 -0.286555
H1    H     H_    0.041081 0.315958 0.685333 0.081497
H2    H     H_    0.041083 0.684041 0.185251 0.081449
H3    H     H_    0.541083 0.815960 0.685256 0.081452
H4    H     H_    0.541083 0.184041 0.185253 0.081451
H5    H     H_    0.232527 0.446881 0.144170 0.075693
H6    H     H_    0.232527 0.553119 0.644170 0.075693
H7    H     H_    0.732527 0.946881 0.144170 0.075694
H8    H     H_    0.732527 0.053119 0.644170 0.075694
H9    H     H_    0.184809 0.399191 0.113936 0.088544
H10   H     H_    0.184808 0.600809 0.613936 0.088543
H11   H     H_    0.684808 0.899191 0.113936 0.088543
H12   H     H_    0.684808 0.100809 0.613936 0.088543
H13   H     H_    0.186444 0.447647 0.969963 0.127440
H14   H     H_    0.186444 0.552353 0.469963 0.127440
H15   H     H_    0.686444 0.947647 0.969964 0.127440
H16   H     H_    0.686444 0.052353 0.469964 0.127440
H17   H     H_    0.866842 0.527778 0.849550 0.011705
H18   H     H_    0.866840 0.472222 0.349549 0.011705
H19   H     H_    0.366841 0.027778 0.849549 0.011705
H20   H     H_    0.366841 0.972222 0.349550 0.011705
H21   H     H_    0.881403 0.549209 0.054112 0.063424
H22   H     H_    0.881402 0.450791 0.554110 0.063420
H23   H     H_    0.381403 0.049209 0.054112 0.063423
H24   H     H_    0.381403 0.950791 0.554112 0.063423
H25   H     H_    0.773594 0.545200 0.862204 0.123317
H26   H     H_    0.773593 0.454801 0.362206 0.123318
H27   H     H_    0.273594 0.045199 0.862205 0.123317
H28   H     H_    0.273594 0.954800 0.362205 0.123317
H29   H     H_    0.811820 0.598952 0.907615 0.066444
H30   H     H_    0.811819 0.401048 0.407613 0.066443
H31   H     H_    0.311820 0.098952 0.907615 0.066444
H32   H     H_    0.311820 0.901048 0.407615 0.066444
H33   H     H_    0.787483 0.565371 0.067517 0.125361
H34   H     H_    0.787483 0.434629 0.567518 0.125360
H35   H     H_    0.287483 0.065371 0.067518 0.125361
H36   H     H_    0.287483 0.934629 0.567518 0.125361
H37   H     H_    0.016932 0.301040 0.480049 -0.068842
H38   H     H_    0.016916 0.698977 0.979999 -0.068833
H39   H     H_    0.516917 0.801023 0.480002 -0.068833
H40   H     H_    0.516916 0.198976 0.980000 -0.068833
H41   H     H_    0.019193 0.213535 0.549448 0.108956
H42   H     H_    0.082005 0.758376 0.093598 0.069254
H43   H     H_    0.582006 0.741624 0.593610 0.069255
H44   H     H_    0.582005 0.258377 0.093598 0.069255
H45   H     H_    0.082017 0.241635 0.593673 0.069264
H46   H     H_    0.043090 0.771722 0.254274 0.146097
H47   H     H_    0.543089 0.728278 0.754277 0.146098
H48   H     H_    0.543089 0.271723 0.254270 0.146096
H49   H     H_    0.916932 0.242373 0.098679 0.071986
H50   H     H_    0.916925 0.757621 0.598624 0.071989
H51   H     H_    0.416925 0.742379 0.098629 0.071990
H52   H     H_    0.416925 0.257621 0.598625 0.071989
H53   H     H_    0.175714 0.637250 0.206112 0.073160
H54   H     H_    0.175714 0.362750 0.706113 0.073163
H55   H     H_    0.675714 0.137250 0.206113 0.073161
H56   H     H_    0.675714 0.862750 0.706112 0.073160
H57   H     H_    0.260248 0.662686 0.160415 0.061942
H58   H     H_    0.260248 0.337314 0.660415 0.061942
H59   H     H_    0.760247 0.162687 0.160417 0.061942
H60   H     H_    0.760248 0.837314 0.660415 0.061942
H61   H     H_    0.830542 0.219059 0.243671 0.061076
H62   H     H_    0.830543 0.780941 0.743668 0.061076
H63   H     H_    0.330543 0.719059 0.243669 0.061076
H64   H     H_    0.330543 0.280941 0.743668 0.061075
H65   H     H_    0.822789 0.363947 0.985013 0.083457
H66   H     H_    0.822790 0.636054 0.485013 0.083458
H67   H     H_    0.322790 0.863946 0.985013 0.083458
H68   H     H_    0.322790 0.136054 0.485013 0.083458
H69   H     H_    0.168919 0.781065 0.944856 0.061629
H70   H     H_    0.168918 0.218935 0.444857 0.061630
H71   H     H_    0.668918 0.281066 0.944855 0.061629
H72   H     H_    0.668919 0.718935 0.444856 0.061629
H73   H     H_    0.739095 0.337498 0.028652 0.059866
H74   H     H_    0.739096 0.662502 0.528652 0.059866
H75   H     H_    0.239096 0.837498 0.028652 0.059866
H76   H     H_    0.239096 0.162502 0.528653 0.059866
H77   H     H_    0.146509 0.715626 0.759502 0.077288
H78   H     H_    0.146509 0.284374 0.259503 0.077287
H79   H     H_    0.646509 0.215626 0.759502 0.077288
H80   H     H_    0.646509 0.784374 0.259502 0.077288
H81   H     H_    0.854017 0.283712 0.427572 0.076821
H82   H     H_    0.854018 0.716288 0.927570 0.076818
H83   H     H_    0.354018 0.783712 0.427570 0.076818
H84   H     H_    0.354018 0.216288 0.927570 0.076818
H85   H     H_    0.055025 0.591126 0.850116 0.059710
H86   H     H_    0.055026 0.408874 0.350116 0.059708
H87   H     H_    0.555025 0.091126 0.850116 0.059710
H88   H     H_    0.555025 0.908874 0.350116 0.059710
H89   H     H_    0.043072 0.228265 0.754260 0.146091
H90   H     H_    0.019177 0.786478 0.049516 0.108971
H91   H     H_    0.519179 0.713523 0.549516 0.108969
H92   H     H_    0.519177 0.286477 0.049510 0.108970
H93   H     H_    0.944412 0.409103 0.339324 0.064770
H94   H     H_    0.944412 0.590897 0.839323 0.064768
H95   H     H_    0.444412 0.909103 0.339323 0.064768
H96   H     H_    0.444412 0.090897 0.839323 0.064768
H97   H     H_    0.958269 0.316096 0.004085 0.088896
H98   H     H_    0.958271 0.683904 0.504028 0.088926
H99   H     H_    0.458271 0.816096 0.004030 0.088924
H100  H     H_    0.458271 0.183904 0.504030 0.088924
H101  H     H_    0.982232 0.301930 0.210145 -0.059058
H102  H     H_    0.982220 0.698062 0.710105 -0.059062
H103  H     H_    0.482221 0.801938 0.210107 -0.059062
H104  H     H_    0.482221 0.198062 0.710106 -0.059062
H105  H     H_    0.955968 0.228120 0.939101 0.145624
H106  H     H_    0.955974 0.771884 0.439087 0.145628
H107  H     H_    0.455973 0.728116 0.939090 0.145627
H108  H     H_    0.455972 0.271883 0.439085 0.145629
H109  H     H_    0.979611 0.214151 0.144704 0.109309
H110  H     H_    0.979600 0.785843 0.644709 0.109305
H111  H     H_    0.479601 0.714157 0.144712 0.109305
H112  H     H_    0.479601 0.285843 0.644704 0.109305
H113  H     H_    0.114437 0.456110 0.148835 0.052798
H114  H     H_    0.114437 0.543890 0.648837 0.052797
H115  H     H_    0.614437 0.956110 0.148837 0.052797
H116  H     H_    0.614437 0.043890 0.648837 0.052797
O1    O     O_2   0.898940 0.431940 0.867860 -0.459458
O2    O     O_2   0.898940 0.568060 0.367860 -0.459459
O3    O     O_2   0.398940 0.931940 0.867860 -0.459458
O4    O     O_2   0.398940 0.068060 0.367860 -0.459458
O5    O     O_3   0.162992 0.482245 0.666857 -0.630230
O6    O     O_3   0.162992 0.517755 0.166857 -0.630230
O7    O     O_3   0.662991 0.982245 0.666857 -0.630230
O8    O     O_3   0.662991 0.017755 0.166857 -0.630230
O9    O     O_3   0.032718 0.288030 0.038510 -0.598691
O10   O     O_3   0.032718 0.711970 0.538511 -0.598691
O11   O     O_3   0.532718 0.788030 0.038511 -0.598692
O12   O     O_3   0.532718 0.211970 0.538510 -0.598691
O13   O     O_3   0.058810 0.523750 0.066650 -0.491719
O14   O     O_3   0.058810 0.476250 0.566650 -0.491719
O15   O     O_3   0.558810 0.023750 0.066650 -0.491719
O16   O     O_3   0.558810 0.976250 0.566650 -0.491719
O17   O     O_3   0.941140 0.476130 0.123050 -0.494824
O18   O     O_3   0.941140 0.523870 0.623050 -0.494824
O19   O     O_3   0.441140 0.976130 0.123050 -0.494824
O20   O     O_3   0.441140 0.023870 0.623050 -0.494824
O21   O     O_3   0.982430 0.389880 0.635700 -0.497536
O22   O     O_3   0.982430 0.610120 0.135700 -0.497529
O23   O     O_3   0.482430 0.889880 0.635700 -0.497530
O24   O     O_3   0.482430 0.110120 0.135700 -0.497529
O25   O     O_2   0.897179 0.350025 0.729498 -0.483998
O26   O     O_2   0.897179 0.649974 0.229494 -0.484004
O27   O     O_2   0.397179 0.850026 0.729494 -0.484004
O28   O     O_2   0.397178 0.149974 0.229494 -0.484004
O29   O     O_3   0.839255 0.485394 0.023051 -0.635889
O30   O     O_3   0.839255 0.514606 0.523051 -0.635889
O31   O     O_3   0.339255 0.985394 0.023051 -0.635889
O32   O     O_3   0.339255 0.014606 0.523051 -0.635889
O33   O     O_3   0.966501 0.288162 0.652718 -0.597653
O34   O     O_3   0.966502 0.711837 0.152729 -0.597648
O35   O     O_3   0.466502 0.788162 0.652729 -0.597648
O36   O     O_3   0.466502 0.211837 0.152728 -0.597648
O37   O     O_2   0.100770 0.431440 0.821660 -0.478125
O38   O     O_2   0.100770 0.568560 0.321660 -0.478123
O39   O     O_2   0.600770 0.931440 0.821660 -0.478123
O40   O     O_2   0.600770 0.068560 0.321660 -0.478123
O41   O     O_3   0.017130 0.389790 0.053700 -0.491523
O42   O     O_3   0.017130 0.610210 0.553700 -0.491526
O43   O     O_3   0.517130 0.889790 0.053700 -0.491526
O44   O     O_3   0.517130 0.110210 0.553700 -0.491527
O45   O     O_2   0.101815 0.349378 0.957658 -0.494271
O46   O     O_2   0.101814 0.650622 0.457657 -0.494259
O47   O     O_2   0.601814 0.849378 0.957656 -0.494260
O48   O     O_2   0.601814 0.150622 0.457657 -0.494259
P1    P     P_3+3 0.893960 0.447890 0.040050 0.983197
P2    P     P_3+3 0.893960 0.552110 0.540050 0.983195
P3    P     P_3+3 0.393960 0.947890 0.040050 0.983195
P4    P     P_3+3 0.393960 0.052110 0.540050 0.983195
P5    P     P_3+3 0.105800 0.447360 0.649510 1.039332
P6    P     P_3+3 0.105800 0.552640 0.149510 1.039335
P7    P     P_3+3 0.605800 0.947360 0.649510 1.039335
P8    P     P_3+3 0.605800 0.052640 0.149510 1.039335
P9    P     P_3+3 0.063389 0.343603 0.085084 0.938868
P10   P     P_3+3 0.063389 0.656397 0.585084 0.938879
P11   P     P_3+3 0.563389 0.843603 0.085084 0.938878
P12   P     P_3+3 0.563389 0.156397 0.585084 0.938879
P13   P     P_3+3 0.936127 0.656281 0.103808 0.940583
P14   P     P_3+3 0.936126 0.343719 0.603808 0.940591
P15   P     P_3+3 0.436127 0.156281 0.103808 0.940583
P16   P     P_3+3 0.436127 0.843719 0.603808 0.940583
O49   O     O_3   0.164759 0.457595 0.353460 -0.787955
H117  H     H_    0.200666 0.468498 0.388415 0.299663
O50   O     O_3   0.164759 0.542405 0.853461 -0.787955
H118  H     H_    0.200666 0.531502 0.888415 0.299663
O51   O     O_3   0.664759 0.957595 0.353461 -0.787955
H119  H     H_    0.700666 0.968498 0.388415 0.299663
O52   O     O_3   0.664759 0.042405 0.853461 -0.787955
H120  H     H_    0.700666 0.031502 0.888415 0.299663

loop_
_geom_bond_atom_site_label_1
_geom_bond_atom_site_label_2
_ccdc_geom_bond_type
C54   C58   A    
O9    P9    S    
C46   O10   S    
C11   C15   A    
O48   P12   D    
Ba3   P7    S    
C83   C87   S    
C79   H107  S    
C54   H78   S    
C60   C76   A    
C100  H40   S    
C15   C19   A    
O50   H118  S    
O12   P12   S    
C58   P9    S    
C93   H25   S    
C68   C72   A    
O14   P5    S    
O45   P9    D    
C40   H72   S    
C81   H113  S    
C19   H83   S    
O30   P2    S    
C99   H39   S    
C64   P7    S    
C59   C75   A    
C87   H11   S    
C9    H65   S    
C26   C50   A    
C39   H71   S    
C83   O51   S    
C53   C57   A    
C67   H55   S    
O6    P6    S    
O34   P13   S    
C86   H10   S    
C5    P1    S    
C12   C16   A    
C4    H44   S    
C65   H53   S    
O44   P12   S    
C34   C38   A    
Ba2   P6    S    
C90   O30   S    
C74   H86   S    
C78   H50   S    
C5    C9    A    
C89   O29   S    
C7    P3    S    
Ba2   P2    S    
C90   C94   S    
C91   C95   S    
O17   P1    S    
C83   O8    S    
Ba2   O42   S    
C95   H35   S    
C32   H60   S    
C75   H87   S    
C92   H20   S    
C62   P5    S    
C47   O11   S    
Ba1   Ba2   S    
C100  O36   S    
C53   C69   A    
C21   P14   S    
C48   C80   S    
C10   C14   A    
O36   P15   S    
Ba4   O24   S    
O3    P3    D    
C96   H32   S    
C79   H51   S    
C83   H115  S    
C23   P16   S    
C78   H106  S    
C1    H41   S    
C101  H93   S    
O20   P4    S    
O26   P13   D    
C24   P15   S    
C26   H62   S    
C99   O35   S    
C8    C12   A    
C57   C73   A    
O10   P10   S    
C97   O33   S    
C66   C70   A    
C31   H59   S    
C84   H116  S    
C65   C69   A    
C24   C104  A    
C19   C23   A    
C18   H82   S    
C14   C18   A    
C80   H112  S    
Ba4   O19   S    
C53   H77   S    
C44   C52   A    
C16   C52   S    
Ba3   O16   S    
C92   H24   S    
O42   P10   S    
C3    H47   S    
Ba4   O4    S    
C28   H64   S    
C47   H99   S    
C41   C49   A    
C56   H80   S    
O8    P8    S    
C87   H15   S    
C94   H34   S    
C2    C98   S    
O47   P11   D    
C86   H14   S    
C95   H31   S    
C91   O31   S    
C7    C11   A    
C6    P2    S    
Ba2   O2    S    
C89   H21   S    
C66   H54   S    
C93   H29   S    
C40   C42   A    
C59   P12   S    
O39   P7    D    
C85   H5    S    
C90   H18   S    
C37   C43   A    
C76   H88   S    
C1    C97   S    
C67   C71   A    
C77   H49   S    
C5    C101  A    
O41   P9    S    
Ba4   P4    S    
C46   C78   S    
C84   C88   S    
C32   C36   A    
Ba3   O43   S    
C92   O32   S    
C22   P13   S    
C43   H75   S    
C17   C21   A    
C96   H36   S    
Ba3   O3    S    
O52   H120  S    
C44   H76   S    
C81   C85   S    
Ba2   O14   S    
C35   C39   A    
Ba1   O13   S    
C56   C72   A    
O11   P11   S    
C98   O34   S    
O31   P3    S    
C100  H4    S    
C2    H90   S    
C28   C30   A    
C37   H69   S    
C47   C79   S    
C31   C35   A    
C26   C32   A    
C48   H100  S    
C103  H95   S    
O51   H119  S    
C93   H33   S    
C47   H103  S    
C22   C102  A    
C102  H94   S    
C61   C73   A    
C88   H8    S    
C89   C93   S    
C17   H81   S    
C78   H110  S    
C3    H91   S    
C23   C103  A    
C64   C68   A    
C97   H37   S    
C8    P4    S    
C42   C50   A    
C27   C29   A    
O49   H117  S    
C68   H56   S    
O16   P7    S    
C95   H27   S    
C20   H84   S    
C38   C44   A    
O7    P7    S    
O46   P10   D    
C55   H79   S    
Ba3   O15   S    
C4    C100  S    
O1    P1    D    
O18   P2    S    
C2    H46   S    
C3    H43   S    
C46   H98   S    
C62   C74   A    
C48   O12   S    
C89   H17   S    
C45   H97   S    
C27   H63   S    
C35   C71   S    
O25   P14   D    
C91   H19   S    
Ba1   P5    S    
C82   C86   S    
Ba4   P8    S    
Ba1   O37   S    
Ba4   O40   S    
C4    H92   S    
Ba1   O18   S    
Ba4   O44   S    
O27   P16   D    
O19   P3    S    
Ba3   Ba4   S    
C90   H22   S    
O28   P15   D    
C13   C49   S    
O2    P2    D    
Ba3   O39   S    
C54   C70   A    
C43   C51   A    
C34   C70   S    
Ba1   O1    S    
C61   C65   A    
C33   C69   S    
C45   O9    S    
C82   O50   S    
C85   H13   S    
O21   P14   S    
C30   C34   A    
C82   O5    S    
Ba1   P1    S    
C58   C74   A    
C29   H57   S    
C81   O6    S    
C20   C24   A    
C85   H9    S    
O23   P16   S    
C104  H96   S    
C41   H73   S    
O24   P15   S    
C1    H89   S    
C80   H52   S    
Ba2   O13   S    
Ba3   P3    S    
C77   H109  S    
C99   H3    S    
C15   C51   S    
Ba1   O14   S    
Ba4   O16   S    
O43   P11   S    
C81   O49   S    
C25   C31   A    
C94   H26   S    
O4    P4    D    
C55   C59   A    
O15   P8    S    
C11   H67   S    
C56   C60   A    
C84   O52   S    
C25   H61   S    
C57   P10   S    
C42   H74   S    
C88   H16   S    
O13   P6    S    
Ba2   O22   S    
C39   C41   A    
O29   P1    S    
C94   H30   S    
C98   H38   S    
C64   C76   A    
C7    C103  A    
Ba3   O23   S    
C60   P11   S    
C8    C104  A    
Ba2   O38   S    
C91   H23   S    
C25   C49   A    
C38   H70   S    
C1    H45   S    
C92   C96   S    
C3    C99   S    
O5    P5    S    
O33   P14   S    
O40   P8    D    
Ba4   O15   S    
C87   H7    S    
C29   C33   A    
C88   H12   S    
C63   C67   A    
Ba3   O20   S    
C86   H6    S    
C73   H85   S    
C33   C37   A    
O35   P16   S    
C4    H48   S    
Ba2   O17   S    
C13   C17   A    
C21   C101  A    
C55   C71   A    
C98   H2    S    
C12   H68   S    
C14   C50   S    
C77   H105  S    
C96   H28   S    
C9    C13   A    
C2    H42   S    
C36   C72   S    
C36   C40   A    
C84   O7    S    
O37   P5    D    
C62   C66   A    
C46   H102  S    
C10   H66   S    
C79   H111  S    
C18   C22   A    
C45   H101  S    
C61   P6    S    
C48   H104  S    
C6    C102  A    
C28   C52   A    
O32   P4    S    
O22   P13   S    
Ba1   O21   S    
C82   H114  S    
Ba1   O41   S    
C27   C51   A    
C63   P8    S    
C30   H58   S    
C97   H1    S    
C45   C77   S    
C16   C20   A    
C63   C75   A    
C80   H108  S    
C6    C10   A    
O38   P6    D    
