data_mof_unit_7213.cif
_audit_creation_date              2012-12-11T16:26:33-0500
_audit_creation_method            fapswitch 2.2
_symmetry_space_group_name_H-M    P1
_symmetry_Int_Tables_number       1
_space_group_crystal_system       triclinic
_cell_length_a                    14.028995
_cell_length_b                    14.028995
_cell_length_c                    31.917328
_cell_angle_alpha                 90.0
_cell_angle_beta                  90.000011
_cell_angle_gamma                 120.000244
_cell_volume                      5440.12916712

loop_
_atom_site_label
_atom_site_type_symbol
_atom_type_description
_atom_site_fract_x
_atom_site_fract_y
_atom_site_fract_z
_atom_type_partial_charge
C1    C     C_R   0.568061 0.443810 0.810613 0.547191
C2    C     C_R   0.443810 0.568061 0.189387 0.547191
C3    C     C_R   0.431939 0.875749 0.310613 0.547190
C4    C     C_R   0.124250 0.556189 0.189387 0.547190
C5    C     C_1   0.004027 0.523209 0.018726 0.086506
C6    C     C_1   0.519182 0.995973 0.481274 0.086506
C7    C     C_1   0.476790 0.480817 0.018726 0.086506
C8    C     C_1   0.004027 0.523209 0.481274 0.086506
C9    C     C_1   0.519182 0.995973 0.018726 0.086506
C10   C     C_1   0.476791 0.480817 0.481274 0.086506
C11   C     C_1   0.523209 0.004026 0.518726 0.086506
C12   C     C_R   0.875749 0.431939 0.689387 0.547190
C13   C     C_1   0.995973 0.519183 0.981274 0.086506
C14   C     C_1   0.480817 0.476791 0.518726 0.086506
C15   C     C_1   0.523209 0.004027 0.981273 0.086506
C16   C     C_1   0.995973 0.519183 0.518726 0.086506
C17   C     C_1   0.480817 0.476790 0.981274 0.086506
C18   C     C_R   0.929231 0.469392 0.851770 -0.042390
C19   C     C_R   0.540160 0.070768 0.648230 -0.042390
C20   C     C_R   0.530608 0.459840 0.851770 -0.042390
C21   C     C_R   0.929231 0.469392 0.648230 -0.042390
C22   C     C_R   0.540160 0.070768 0.851770 -0.042390
C23   C     C_R   0.556189 0.124250 0.810613 0.547190
C24   C     C_R   0.530608 0.459840 0.648230 -0.042390
C25   C     C_R   0.469392 0.929231 0.351770 -0.042390
C26   C     C_R   0.070768 0.540160 0.148230 -0.042390
C27   C     C_R   0.459840 0.530608 0.351770 -0.042390
C28   C     C_R   0.469392 0.929231 0.148230 -0.042390
C29   C     C_R   0.070769 0.540160 0.351770 -0.042390
C30   C     C_R   0.459840 0.530608 0.148230 -0.042390
C31   C     C_R   0.927177 0.557045 0.872380 -0.138780
C32   C     C_R   0.629867 0.072822 0.627620 -0.138780
C33   C     C_R   0.442955 0.370132 0.872380 -0.138780
C34   C     C_R   0.568061 0.443810 0.689387 0.547191
C35   C     C_R   0.927177 0.557045 0.627620 -0.138780
C36   C     C_R   0.629867 0.072822 0.872380 -0.138780
C37   C     C_R   0.442955 0.370132 0.627620 -0.138780
C38   C     C_R   0.557045 0.927177 0.372380 -0.138780
C39   C     C_R   0.072822 0.629867 0.127620 -0.138780
C40   C     C_R   0.370132 0.442955 0.372380 -0.138780
C41   C     C_R   0.557045 0.927177 0.127620 -0.138780
C42   C     C_R   0.072822 0.629867 0.372380 -0.138780
C43   C     C_R   0.370132 0.442955 0.127620 -0.138780
C44   C     C_R   0.954174 0.576719 0.914743 -0.158240
C45   C     C_R   0.875749 0.431939 0.810613 0.547190
C46   C     C_R   0.622545 0.045826 0.585257 -0.158240
C47   C     C_R   0.423281 0.377454 0.914743 -0.158239
C48   C     C_R   0.954174 0.576719 0.585256 -0.158240
C49   C     C_R   0.622545 0.045826 0.914743 -0.158240
C50   C     C_R   0.423281 0.377454 0.585256 -0.158239
C51   C     C_R   0.576719 0.954173 0.414743 -0.158240
C52   C     C_R   0.045826 0.622545 0.085257 -0.158240
C53   C     C_R   0.377454 0.423281 0.414743 -0.158240
C54   C     C_R   0.576719 0.954173 0.085256 -0.158240
C55   C     C_R   0.045826 0.622545 0.414743 -0.158240
C56   C     C_R   0.556189 0.124250 0.689387 0.547190
C57   C     C_R   0.377454 0.423281 0.085256 -0.158240
C58   C     C_R   0.984254 0.509715 0.936739 0.041141
C59   C     C_R   0.525460 0.015746 0.563261 0.041141
C60   C     C_R   0.490285 0.474539 0.936739 0.041141
C61   C     C_R   0.984254 0.509715 0.563261 0.041141
C62   C     C_R   0.525460 0.015746 0.936739 0.041141
C63   C     C_R   0.490285 0.474539 0.563261 0.041141
C64   C     C_R   0.509714 0.984253 0.436739 0.041141
C65   C     C_R   0.015746 0.525460 0.063261 0.041141
C66   C     C_R   0.474539 0.490286 0.436739 0.041141
C67   C     C_R   0.443810 0.568061 0.310613 0.547191
C68   C     C_R   0.509714 0.984253 0.063261 0.041141
C69   C     C_R   0.015746 0.525460 0.436739 0.041141
C70   C     C_R   0.474539 0.490285 0.063261 0.041141
C71   C     C_R   0.993975 0.427241 0.915860 0.404450
C72   C     C_R   0.433265 0.006025 0.584140 0.404450
C73   C     C_R   0.572760 0.566734 0.915860 0.404450
C74   C     C_R   0.993975 0.427241 0.584140 0.404450
C75   C     C_R   0.433266 0.006026 0.915860 0.404450
C76   C     C_R   0.572759 0.566734 0.584140 0.404450
C77   C     C_R   0.427241 0.993975 0.415860 0.404450
C78   C     C_R   0.431939 0.875749 0.189387 0.547190
C79   C     C_R   0.006026 0.433266 0.084140 0.404450
C80   C     C_R   0.566734 0.572759 0.415860 0.404450
C81   C     C_R   0.427241 0.993975 0.084140 0.404450
C82   C     C_R   0.006026 0.433266 0.415860 0.404450
C83   C     C_R   0.566734 0.572759 0.084140 0.404450
C84   C     C_R   0.966810 0.407320 0.873511 -0.090087
C85   C     C_R   0.440509 0.033190 0.626489 -0.090087
C86   C     C_R   0.592681 0.559491 0.873511 -0.090086
C87   C     C_R   0.966810 0.407319 0.626489 -0.090086
C88   C     C_R   0.440509 0.033190 0.873511 -0.090086
C89   C     C_R   0.124250 0.556189 0.310613 0.547190
C90   C     C_R   0.592681 0.559491 0.626489 -0.090086
C91   C     C_R   0.407319 0.966810 0.373511 -0.090086
C92   C     C_R   0.033191 0.440509 0.126489 -0.090086
C93   C     C_R   0.559491 0.592681 0.373511 -0.090087
C94   C     C_R   0.407319 0.966810 0.126489 -0.090086
C95   C     C_R   0.033191 0.440509 0.373511 -0.090086
C96   C     C_R   0.559491 0.592681 0.126489 -0.090086
Cr1   Cr    Cr6+3 0.504240 0.249200 0.750000 1.030896
Cr2   Cr    Cr6+3 0.744960 0.495760 0.750000 1.030897
Cr3   Cr    Cr6+3 0.750800 0.255040 0.750000 1.030897
Cr4   Cr    Cr6+3 0.249200 0.504240 0.250000 1.030897
Cr5   Cr    Cr6+3 0.495760 0.744960 0.250000 1.030897
Cr6   Cr    Cr6+3 0.255040 0.750800 0.250000 1.030896
F1    F     F_    0.976182 0.338380 0.063026 -0.594369
F2    F     F_    0.338380 0.976181 0.936973 -0.594369
F3    F     F_    0.023819 0.362200 0.563027 -0.594369
F4    F     F_    0.637801 0.661620 0.936973 -0.594369
F5    F     F_    0.362200 0.023820 0.436973 -0.594369
F6    F     F_    0.661620 0.637801 0.063027 -0.594369
F7    F     F_    0.976182 0.338380 0.436974 -0.594369
F8    F     F_    0.362200 0.023819 0.063027 -0.594369
F9    F     F_    0.661620 0.637801 0.436973 -0.594369
F10   F     F_    0.338380 0.976181 0.563026 -0.594369
F11   F     F_    0.023820 0.362200 0.936973 -0.594369
F12   F     F_    0.637800 0.661620 0.563027 -0.594369
H1    H     H_    0.898405 0.606221 0.856539 0.158716
H2    H     H_    0.606220 0.898405 0.143461 0.158716
H3    H     H_    0.101593 0.707814 0.356538 0.158716
H4    H     H_    0.292184 0.393779 0.143461 0.158716
H5    H     H_    0.053276 0.694090 0.069253 0.163065
H6    H     H_    0.640814 0.946723 0.430748 0.163065
H7    H     H_    0.305908 0.359185 0.069252 0.163066
H8    H     H_    0.053276 0.694090 0.430747 0.163065
H9    H     H_    0.640814 0.946723 0.069252 0.163065
H10   H     H_    0.305908 0.359186 0.430748 0.163066
H11   H     H_    0.694091 0.053276 0.569253 0.163065
H12   H     H_    0.707815 0.101594 0.643462 0.158716
H13   H     H_    0.946723 0.640814 0.930748 0.163065
H14   H     H_    0.359186 0.305908 0.569252 0.163065
H15   H     H_    0.694091 0.053276 0.930747 0.163065
H16   H     H_    0.946723 0.640814 0.569252 0.163065
H17   H     H_    0.359185 0.305908 0.930747 0.163066
H18   H     H_    0.030622 0.370075 0.141544 0.158147
H19   H     H_    0.339455 0.969379 0.358455 0.158147
H20   H     H_    0.629925 0.660546 0.141544 0.158147
H21   H     H_    0.030622 0.370075 0.358456 0.158147
H22   H     H_    0.339454 0.969379 0.141545 0.158147
H23   H     H_    0.393779 0.292184 0.856539 0.158716
H24   H     H_    0.629925 0.660546 0.358455 0.158147
H25   H     H_    0.370075 0.030621 0.641544 0.158147
H26   H     H_    0.969379 0.339455 0.858455 0.158147
H27   H     H_    0.660546 0.629925 0.641545 0.158147
H28   H     H_    0.370075 0.030622 0.858456 0.158147
H29   H     H_    0.969379 0.339454 0.641545 0.158147
H30   H     H_    0.660547 0.629925 0.858455 0.158147
H31   H     H_    0.898406 0.606221 0.643461 0.158716
H32   H     H_    0.707814 0.101594 0.856538 0.158716
H33   H     H_    0.393779 0.292184 0.643461 0.158716
H34   H     H_    0.606220 0.898405 0.356539 0.158716
H35   H     H_    0.101593 0.707814 0.143461 0.158716
H36   H     H_    0.292184 0.393779 0.356539 0.158716
O1    O     O_R   0.480350 0.140770 0.796330 -0.515210
O2    O     O_R   0.140770 0.480350 0.203670 -0.515210
O3    O     O_R   0.519650 0.660420 0.296330 -0.515211
O4    O     O_R   0.339580 0.859230 0.203670 -0.515210
O5    O     O_R   0.514930 0.348530 0.793250 -0.495698
O6    O     O_R   0.833600 0.485070 0.706750 -0.495699
O7    O     O_R   0.651470 0.166400 0.793250 -0.495698
O8    O     O_R   0.514930 0.348530 0.706750 -0.495699
O9    O     O_R   0.833600 0.485070 0.793250 -0.495699
O10   O     O_R   0.651470 0.166400 0.706750 -0.495698
O11   O     O_R   0.348530 0.514930 0.293250 -0.495698
O12   O     O_R   0.660420 0.519650 0.703670 -0.515210
O13   O     O_R   0.485070 0.833600 0.206750 -0.495699
O14   O     O_R   0.166400 0.651470 0.293250 -0.495698
O15   O     O_R   0.348530 0.514930 0.206750 -0.495698
O16   O     O_R   0.485070 0.833600 0.293250 -0.495699
O17   O     O_R   0.166400 0.651470 0.206750 -0.495698
O18   O     O_3   0.666667 0.333333 0.750000 -0.239337
O19   O     O_3   0.333333 0.666667 0.250000 -0.239337
O20   O     O_R   0.859230 0.339580 0.796330 -0.515210
O21   O     O_R   0.480350 0.140770 0.703670 -0.515210
O22   O     O_R   0.660420 0.519650 0.796330 -0.515211
O23   O     O_R   0.859230 0.339580 0.703670 -0.515210
O24   O     O_R   0.140770 0.480350 0.296330 -0.515210
O25   O     O_R   0.519650 0.660420 0.203670 -0.515210
O26   O     O_R   0.339580 0.859230 0.296330 -0.515210

loop_
_geom_bond_atom_site_label_1
_geom_bond_atom_site_label_2
_ccdc_geom_bond_type
C19   C56   S    
C54   H9    S    
C21   C87   A    
C44   H13   S    
Cr6   O17   S    
C65   C79   A    
C29   C42   A    
C64   C77   A    
C60   C73   A    
C46   H11   S    
C45   O9    A    
C79   F1    S    
C45   O20   A    
C7    C70   S    
C29   C89   S    
C72   C85   A    
C48   C61   A    
C86   H30   S    
Cr3   O20   S    
Cr4   O2    S    
C8    C69   S    
C3    O26   A    
C68   C81   A    
C92   H18   S    
C71   C84   A    
C38   C51   A    
C25   C38   A    
Cr2   O9    S    
C58   C71   A    
C54   C68   A    
C63   C76   A    
C19   C32   A    
Cr6   O26   S    
C28   C41   A    
C83   F6    S    
C71   F11   S    
C28   C94   A    
C35   H31   S    
C88   H28   S    
C1    O5    A    
C30   C96   A    
C93   H24   S    
C47   C60   A    
C33   H23   S    
C7    C17   T    
C20   C86   A    
C94   H22   S    
Cr5   O19   S    
Cr4   O11   S    
C82   C95   A    
C22   C88   A    
C57   C70   A    
C28   C78   S    
C85   H25   S    
C89   O14   A    
C5    C13   T    
C59   C72   A    
Cr2   O22   S    
Cr6   O19   S    
C39   C52   A    
C55   H8    S    
C78   O13   A    
C8    C16   T    
Cr3   O10   S    
C77   F5    S    
C50   C63   A    
C48   H16   S    
C89   O24   A    
C12   O6    A    
C11   C59   S    
C35   C48   A    
C31   H1    S    
Cr2   O12   S    
C51   H6    S    
C10   C66   S    
C4    O2    A    
Cr2   O6    S    
C25   C91   A    
C31   C44   A    
C82   F7    S    
Cr5   O13   S    
C5    C65   S    
C10   C14   T    
C44   C58   A    
C6    C11   T    
C29   C95   A    
C78   O4    A    
C96   H20   S    
C13   C58   S    
C17   C60   S    
C34   O12   A    
C49   H15   S    
C12   C21   S    
C24   C34   S    
C47   H17   S    
Cr4   O15   S    
C36   C49   A    
C70   C83   A    
C2    O25   A    
C67   O11   A    
C76   F12   S    
Cr3   O23   S    
C27   C93   A    
Cr5   O3    S    
C27   C40   A    
C95   H21   S    
C24   C37   A    
Cr1   O1    S    
C40   H36   S    
C37   H33   S    
C53   C66   A    
C2    O15   A    
C38   H34   S    
C79   C92   A    
C55   C69   A    
C32   H12   S    
C91   H19   S    
C20   C33   A    
C34   O8    A    
C36   H32   S    
Cr3   O7    S    
C56   O21   A    
Cr4   O24   S    
C75   F2    S    
C74   C87   A    
C30   C43   A    
Cr5   O25   S    
C50   H14   S    
C16   C61   S    
C41   H2    S    
C18   C45   S    
C66   C80   A    
C52   C65   A    
Cr3   O18   S    
C23   O1    A    
C77   C91   A    
C1    C20   S    
C49   C62   A    
Cr4   O19   S    
C32   C46   A    
C51   C64   A    
C19   C85   A    
C53   H10   S    
C24   C90   A    
C4    C26   S    
C42   H3    S    
C6    C64   S    
C21   C35   A    
C61   C74   A    
Cr1   O18   S    
C22   C36   A    
C39   H35   S    
C1    O22   A    
Cr1   O21   S    
C4    O17   A    
C2    C30   S    
C67   O3    A    
C72   F10   S    
C9    C15   T    
C9    C68   S    
C18   C84   A    
C56   O10   A    
Cr6   O4    S    
Cr1   O8    S    
C74   F3    S    
C81   C94   A    
C73   F4    S    
C42   C55   A    
C33   C47   A    
C83   C96   A    
C23   O7    A    
C80   F9    S    
C37   C50   A    
C15   C62   S    
C69   C82   A    
C14   C63   S    
Cr1   O5    S    
C41   C54   A    
Cr5   O16   S    
C26   C39   A    
C73   C86   A    
C90   H27   S    
C27   C67   S    
C43   C57   A    
C43   H4    S    
C57   H7    S    
C52   H5    S    
C75   C88   A    
C3    C25   S    
C81   F8    S    
C84   H26   S    
C46   C59   A    
Cr6   O14   S    
C40   C53   A    
C22   C23   S    
C18   C31   A    
C87   H29   S    
C80   C93   A    
C26   C92   A    
Cr2   O18   S    
C62   C75   A    
C3    O16   A    
C76   C90   A    
C12   O23   A    
