data_mof_unit_59294.cif
_audit_creation_date              2012-12-11T16:47:47-0500
_audit_creation_method            fapswitch 2.2
_symmetry_space_group_name_H-M    P1
_symmetry_Int_Tables_number       1
_space_group_crystal_system       triclinic
_cell_length_a                    26.186567
_cell_length_b                    7.182727
_cell_length_c                    23.942101
_cell_angle_alpha                 90.000232
_cell_angle_beta                  101.650474
_cell_angle_gamma                 90.00015
_cell_volume                      4410.51476196

loop_
_atom_site_label
_atom_site_type_symbol
_atom_type_description
_atom_site_fract_x
_atom_site_fract_y
_atom_site_fract_z
_atom_type_partial_charge
O1    O     O_R   0.797620 0.601060 0.203310 -0.506629
O2    O     O_R   0.202380 0.398940 0.796690 -0.502632
O3    O     O_R   0.702380 0.101060 0.296690 -0.506627
O4    O     O_R   0.297620 0.898940 0.703310 -0.502635
O5    O     O_R   0.692070 0.267810 0.186600 -0.534725
O6    O     O_R   0.307930 0.732190 0.813400 -0.534570
O7    O     O_R   0.807930 0.767810 0.313400 -0.534733
O8    O     O_R   0.192070 0.232190 0.686600 -0.534566
C1    C     C_R   0.673853 0.439806 0.171493 0.696659
C2    C     C_R   0.326095 0.560165 0.828588 0.701322
C3    C     C_R   0.826148 0.939807 0.328506 0.696672
C4    C     C_R   0.173905 0.060164 0.671412 0.701329
O9    O     O_R   0.796590 0.271120 0.196480 -0.542107
O10   O     O_R   0.203410 0.728880 0.803520 -0.545016
O11   O     O_R   0.703410 0.771120 0.303520 -0.542106
O12   O     O_R   0.296590 0.228880 0.696480 -0.545019
O13   O     O_R   0.807640 0.104280 0.306650 -0.534516
O14   O     O_R   0.192360 0.895720 0.693350 -0.534730
O15   O     O_R   0.692360 0.604280 0.193350 -0.534482
O16   O     O_R   0.307640 0.395720 0.806650 -0.534741
C5    C     C_R   0.813089 0.440141 0.185143 0.748944
C6    C     C_R   0.188085 0.559126 0.816380 0.751777
C7    C     C_R   0.686911 0.940142 0.314857 0.748971
C8    C     C_R   0.311915 0.059126 0.683621 0.751759
O17   O     O_3   0.753500 0.435660 0.286130 -0.370676
O18   O     O_3   0.246500 0.564340 0.713870 -0.373411
O19   O     O_3   0.746500 0.935660 0.213870 -0.370659
O20   O     O_3   0.253500 0.064340 0.786130 -0.373416
V1    V     V_3+5 0.749350 0.159470 0.243300 1.470939
V2    V     V_3+5 0.250650 0.840530 0.756700 1.470883
V3    V     V_3+5 0.750650 0.659470 0.256700 1.470944
V4    V     V_3+5 0.249350 0.340530 0.743300 1.470881
C9    C     C_R   0.368605 0.868654 0.629913 0.365028
C10   C     C_R   0.616916 0.113657 0.354148 0.350961
C11   C     C_R   0.131396 0.368653 0.870088 0.365038
C12   C     C_R   0.883085 0.613654 0.145853 0.350981
C13   C     C_R   0.409874 0.859014 0.599866 0.234496
C14   C     C_R   0.581626 0.123168 0.392011 0.238224
C15   C     C_R   0.090127 0.359013 0.900135 0.234509
C16   C     C_R   0.918375 0.623163 0.107990 0.238236
C17   C     C_R   0.424529 0.018906 0.573179 -0.053520
C18   C     C_R   0.574845 0.967561 0.425500 -0.043287
C19   C     C_R   0.075472 0.518904 0.926822 -0.053522
C20   C     C_R   0.925156 0.467556 0.074501 -0.043305
C21   C     C_R   0.400087 0.189552 0.580236 0.481887
C22   C     C_R   0.604345 0.805217 0.422679 0.466587
C23   C     C_R   0.099913 0.689551 0.919765 0.481889
C24   C     C_R   0.895656 0.305211 0.077322 0.466586
C25   C     C_R   0.366115 0.203226 0.618616 -0.350844
C26   C     C_R   0.639775 0.797426 0.385862 -0.337821
C27   C     C_R   0.133885 0.703226 0.881385 -0.350833
C28   C     C_R   0.860225 0.297423 0.114138 -0.337812
H1    H     H_    0.351508 0.338148 0.626982 0.206695
H2    H     H_    0.661650 0.670223 0.384256 0.191897
H3    H     H_    0.148492 0.838148 0.873018 0.206694
H4    H     H_    0.838349 0.170221 0.115744 0.191906
C29   C     C_R   0.349437 0.044021 0.643876 -0.244580
C30   C     C_R   0.647533 0.951203 0.352212 -0.235862
C31   C     C_R   0.150563 0.544021 0.856124 -0.244579
C32   C     C_R   0.852468 0.451201 0.147788 -0.235873
C33   C     C_R   0.509188 0.117103 0.546293 0.423301
C34   C     C_R   0.491956 0.863464 0.454192 0.416265
C35   C     C_R   0.990811 0.617089 0.953705 0.423324
C36   C     C_R   0.008046 0.363466 0.045810 0.416268
C37   C     C_R   0.545120 0.101904 0.509851 -0.298674
C38   C     C_R   0.455813 0.879763 0.490292 -0.297571
C39   C     C_R   0.954879 0.601889 0.990147 -0.298685
C40   C     C_R   0.044190 0.379768 0.009711 -0.297568
H5    H     H_    0.579883 0.187656 0.517297 0.141880
H6    H     H_    0.420723 0.795921 0.482185 0.140297
H7    H     H_    0.920114 0.687633 0.982700 0.141876
H8    H     H_    0.079281 0.295933 0.017820 0.140288
C41   C     C_R   0.536820 0.976171 0.464004 0.119800
C42   C     C_R   0.463974 0.005559 0.536200 0.108161
C43   C     C_R   0.963180 0.476163 0.035997 0.119797
C44   C     C_R   0.036027 0.505557 0.963801 0.108163
C45   C     C_3   0.958926 0.950592 0.523389 -0.357710
C46   C     C_3   0.041663 0.049271 0.475799 -0.364644
C47   C     C_3   0.541075 0.450588 0.976606 -0.357964
C48   C     C_3   0.458338 0.549218 0.024205 -0.364541
C49   C     C_3   0.992380 0.130703 0.536114 0.480150
C50   C     C_3   0.008187 0.869164 0.463052 0.476674
C51   C     C_3   0.507617 0.630696 0.963890 0.479913
C52   C     C_3   0.491816 0.369113 0.036940 0.476609
H9    H     H_    0.925788 0.907346 0.542912 0.151457
H10   H     H_    0.074810 0.092505 0.456289 0.148300
H11   H     H_    0.574215 0.407368 0.957082 0.151454
H12   H     H_    0.425194 0.592440 0.043720 0.148289
C53   C     C_1   0.128408 0.049616 0.625305 -0.174054
C54   C     C_1   0.871857 0.950252 0.374323 -0.192304
C55   C     C_1   0.371591 0.549618 0.874696 -0.174087
C56   C     C_1   0.628144 0.450246 0.125675 -0.192251
C57   C     C_3   0.010225 0.840060 0.527005 0.327771
C58   C     C_3   0.990354 0.159812 0.472165 0.322451
C59   C     C_3   0.489777 0.340044 0.972985 0.327761
C60   C     C_3   0.509647 0.659763 0.027841 0.322696
C61   C     C_3   0.043291 0.018613 0.540653 -0.102570
C62   C     C_3   0.957283 0.981245 0.458540 -0.103071
C63   C     C_3   0.456707 0.518601 0.959348 -0.102655
C64   C     C_3   0.542718 0.481206 0.041457 -0.102823
C65   C     C_1   0.090158 0.036994 0.587061 0.051783
C66   C     C_1   0.910289 0.962824 0.412323 0.045925
C67   C     C_1   0.409841 0.536993 0.912940 0.051642
C68   C     C_1   0.589713 0.462806 0.087674 0.046267
O21   O     O_3   0.346062 0.705096 0.643379 -0.543037
C69   C     C_3   0.302830 0.667179 0.598973 -0.208986
H13   H     H_    0.315792 0.633865 0.558650 0.123604
H14   H     H_    0.274456 0.784560 0.591830 0.103827
H15   H     H_    0.281639 0.544596 0.610904 0.155585
O22   O     O_3   0.621942 0.265283 0.320004 -0.552033
C70   C     C_3   0.585767 0.245896 0.267987 -0.183060
H16   H     H_    0.544974 0.239418 0.274746 0.138704
H17   H     H_    0.594493 0.121050 0.244020 0.130978
H18   H     H_    0.588778 0.369810 0.241201 0.153099
O23   O     O_3   0.153939 0.205096 0.856621 -0.543032
C71   C     C_3   0.197171 0.167181 0.901027 -0.208993
H19   H     H_    0.184210 0.133869 0.941350 0.123601
H20   H     H_    0.225545 0.284562 0.908170 0.103826
H21   H     H_    0.218362 0.044597 0.889096 0.155585
O24   O     O_3   0.878061 0.765281 0.179998 -0.552021
C72   C     C_3   0.914232 0.745888 0.232016 -0.183146
H22   H     H_    0.955024 0.739310 0.225261 0.138677
H23   H     H_    0.905488 0.621098 0.255992 0.130973
H24   H     H_    0.911240 0.869838 0.258792 0.153099
O25   O     O_3   0.436145 0.694784 0.595649 -0.595868
H25   H     H_    0.428456 0.606246 0.624592 0.360154
O26   O     O_3   0.552144 0.280543 0.396202 -0.609466
H26   H     H_    0.562628 0.382471 0.373101 0.358954
O27   O     O_3   0.063857 0.194781 0.904353 -0.595860
H27   H     H_    0.071546 0.106244 0.875409 0.360162
O28   O     O_3   0.947858 0.780536 0.103799 -0.609461
H28   H     H_    0.937381 0.882456 0.126909 0.358951
O29   O     O_3   0.410382 0.345593 0.550778 -0.507843
C73   C     C_3   0.374814 0.349978 0.498048 -0.201807
H29   H     H_    0.333724 0.353429 0.503953 0.095947
H30   H     H_    0.380755 0.229659 0.470783 0.118212
H31   H     H_    0.381677 0.478658 0.475084 0.159161
O30   O     O_3   0.596795 0.650203 0.454258 -0.516722
C74   C     C_3   0.636969 0.643018 0.503213 -0.211032
H32   H     H_    0.637538 0.770951 0.529624 0.118397
H33   H     H_    0.675630 0.620964 0.491727 0.118296
H34   H     H_    0.629630 0.522978 0.529664 0.160146
O31   O     O_3   0.089618 0.845593 0.949223 -0.507840
C75   C     C_3   0.125187 0.849984 0.001953 -0.201801
H35   H     H_    0.166276 0.853438 0.996047 0.095944
H36   H     H_    0.119246 0.729665 0.029218 0.118209
H37   H     H_    0.118323 0.978664 0.024916 0.159164
O32   O     O_3   0.903205 0.150194 0.045744 -0.516714
C76   C     C_3   0.863039 0.143040 0.996780 -0.211002
H38   H     H_    0.862487 0.270968 0.970368 0.118398
H39   H     H_    0.824370 0.121037 0.008255 0.118279
H40   H     H_    0.870374 0.022980 0.970334 0.160151
O33   O     O_3   0.517845 0.237283 0.592276 -0.611100
H41   H     H_    0.550859 0.305752 0.593005 0.295515
O34   O     O_3   0.483708 0.741883 0.408552 -0.618803
H42   H     H_    0.450880 0.672399 0.407976 0.291478
O35   O     O_3   0.982153 0.737261 0.907721 -0.611084
H43   H     H_    0.949129 0.805684 0.906980 0.295502
O36   O     O_3   0.016295 0.241892 0.091452 -0.618810
H44   H     H_    0.049124 0.172416 0.092030 0.291472
O37   O     O_3   0.987807 0.273966 0.575138 -0.515371
C77   C     C_3   0.934909 0.320317 0.570813 -0.110940
H45   H     H_    0.913813 0.206490 0.588023 0.099640
H46   H     H_    0.915447 0.354098 0.526272 0.106988
H47   H     H_    0.932575 0.446146 0.597047 0.173234
O38   O     O_3   0.012689 0.725723 0.424060 -0.519462
C78   C     C_3   0.065615 0.681183 0.427698 -0.137665
H48   H     H_    0.085739 0.649546 0.472163 0.108868
H49   H     H_    0.086027 0.795133 0.409681 0.099020
H50   H     H_    0.067979 0.554602 0.401799 0.170632
O39   O     O_3   0.512187 0.774081 0.924905 -0.515296
C79   C     C_3   0.565099 0.819780 0.929019 -0.111391
H51   H     H_    0.585942 0.706007 0.911475 0.100157
H52   H     H_    0.584794 0.852569 0.973544 0.106163
H53   H     H_    0.567463 0.946003 0.902968 0.173307
O40   O     O_3   0.487316 0.225672 0.075933 -0.519495
C80   C     C_3   0.434394 0.180944 0.072237 -0.137475
H54   H     H_    0.414328 0.149091 0.027764 0.109053
H55   H     H_    0.413915 0.294882 0.090181 0.098895
H56   H     H_    0.432040 0.054434 0.098171 0.170644
O41   O     O_3   0.980475 0.330122 0.443718 -0.593941
H57   H     H_    0.942233 0.348459 0.437176 0.295474
O42   O     O_3   0.020154 0.669797 0.555458 -0.590609
H58   H     H_    0.058274 0.649896 0.560982 0.296822
O43   O     O_3   0.519541 0.830036 0.056304 -0.593956
H59   H     H_    0.557740 0.848899 0.062515 0.295726
O44   O     O_3   0.479853 0.169786 0.944527 -0.590564
H60   H     H_    0.441720 0.150031 0.938906 0.296763

loop_
_geom_bond_atom_site_label_1
_geom_bond_atom_site_label_2
_ccdc_geom_bond_type
O17   V3    S    
C7    C30   S    
C63   C67   S    
O39   C79   S    
O1    C5    A    
O35   H43   S    
O29   C73   S    
O19   V1    S    
O13   V1    S    
O3    C7    A    
C70   H16   S    
C64   C68   S    
C48   C52   S    
O15   V3    S    
C73   H31   S    
C47   H11   S    
O37   C77   S    
C39   C43   A    
C59   O44   S    
C78   H49   S    
O41   H57   S    
C79   H51   S    
O7    C3    A    
C24   O32   S    
C26   H2    S    
C69   H14   S    
C36   C40   A    
C11   C31   A    
C14   C18   A    
C76   H39   S    
C50   O38   S    
O4    C8    A    
C74   H34   S    
C59   C63   S    
C35   C44   A    
C58   C62   S    
O31   C75   S    
C38   C42   A    
C23   O31   S    
O1    V3    S    
C37   C41   A    
C34   O34   S    
O2    V4    S    
C18   C22   A    
O3    V1    S    
C46   C50   S    
O22   C70   S    
C54   C66   T    
C72   H24   S    
C28   C32   A    
C17   C42   S    
C1    O15   A    
C2    O16   A    
C8    C29   S    
C80   H55   S    
C51   O39   S    
O2    C6    A    
C34   C41   A    
C11   O23   S    
O14   V2    S    
C58   O41   S    
C45   C49   S    
C48   C60   S    
C16   C20   A    
C13   O25   S    
C79   H53   S    
C40   H8    S    
C22   O30   S    
C46   H10   S    
O11   C7    A    
O25   H25   S    
C45   H9    S    
O12   C8    A    
C50   C57   S    
C51   C63   S    
C50   C62   S    
O10   V2    S    
C75   H37   S    
C1    C56   S    
C79   H52   S    
C14   O26   S    
C78   H50   S    
C77   H46   S    
C35   C39   A    
O7    V3    S    
C34   C38   A    
C28   H4    S    
C52   C64   S    
C4    C53   S    
C12   C16   A    
C9    O21   S    
O32   C76   S    
C5    C32   S    
C75   H36   S    
C76   H40   S    
C6    C31   S    
O18   V4    S    
C23   C27   A    
C15   O27   S    
C27   H3    S    
C62   C66   S    
C77   H45   S    
C9    C13   A    
C52   C59   S    
O8    V4    S    
C47   C59   S    
C20   C43   S    
C11   C15   A    
O42   H58   S    
O5    C1    A    
C77   H47   S    
C47   C64   S    
O36   H44   S    
C21   C25   A    
O8    C4    A    
C80   H56   S    
C46   C61   S    
C26   C30   A    
O9    C5    A    
C45   C62   S    
C70   H17   S    
C72   H22   S    
C71   H20   S    
O40   C80   S    
O6    V2    S    
C16   O28   S    
C2    C55   S    
C48   C63   S    
O38   C78   S    
C10   O22   S    
C40   C44   A    
C35   O35   S    
O26   H26   S    
O5    V1    S    
C57   C61   S    
C78   H48   S    
O24   C72   S    
O27   H27   S    
O16   V4    S    
O9    V1    S    
C19   C44   S    
C37   H5    S    
C3    O13   A    
C18   C41   S    
C9    C29   A    
C53   C65   T    
C10   C14   A    
C49   O37   S    
C60   O43   S    
C55   C67   T    
C75   H35   S    
C12   C32   A    
C33   O33   S    
O6    C2    A    
C25   C29   A    
C15   C19   A    
C74   H32   S    
O11   V3    S    
C73   H29   S    
C33   C42   A    
O12   V4    S    
O21   C69   S    
C22   C26   A    
C21   O29   S    
C71   H21   S    
O10   C6    A    
O20   V2    S    
O44   H60   S    
C48   H12   S    
C76   H38   S    
C47   C51   S    
C49   C58   S    
C74   H33   S    
C3    C54   S    
O43   H59   S    
C38   H6    S    
C49   C61   S    
C46   C58   S    
C25   H1    S    
C51   C60   S    
C60   C64   S    
C36   O36   S    
C45   C57   S    
C36   C43   A    
C73   H30   S    
C71   H19   S    
C70   H18   S    
C39   H7    S    
C13   C17   A    
O28   H28   S    
C12   O24   S    
O4    V2    S    
C72   H23   S    
O30   C74   S    
C56   C68   T    
C33   C37   A    
C24   C28   A    
C27   C31   A    
C80   H54   S    
C69   H13   S    
C4    O14   A    
O34   H42   S    
C10   C30   A    
C17   C21   A    
O23   C71   S    
O33   H41   S    
C52   O40   S    
C57   O42   S    
C19   C23   A    
C61   C65   S    
C20   C24   A    
C69   H15   S    
