data_mof_unit_48775.cif
_audit_creation_date              2012-12-11T16:22:19-0500
_audit_creation_method            fapswitch 2.2
_symmetry_space_group_name_H-M    P1
_symmetry_Int_Tables_number       1
_space_group_crystal_system       triclinic
_cell_length_a                    13.533266
_cell_length_b                    14.080394
_cell_length_c                    29.994032
_cell_angle_alpha                 97.977832
_cell_angle_beta                  90.480795
_cell_angle_gamma                 118.678469
_cell_volume                      4947.27384475

loop_
_atom_site_label
_atom_site_type_symbol
_atom_type_description
_atom_site_fract_x
_atom_site_fract_y
_atom_site_fract_z
_atom_type_partial_charge
C1    C     C_R   0.723790 0.100687 0.568311 0.563845
C2    C     C_1   0.342933 0.670938 0.765141 0.072542
C3    C     C_3   0.096934 0.674138 0.678267 0.027698
C4    C     C_3   0.088931 0.695206 0.729187 -0.296019
C5    C     C_3   0.009558 0.742375 0.739935 -0.448273
C6    C     C_3   0.449062 0.378169 0.443030 0.019347
C7    C     C_3   0.428330 0.455882 0.418144 -0.256871
C8    C     C_3   0.377000 0.514538 0.448129 -0.451234
C9    C     C_3   0.561368 0.390301 0.205647 0.024852
C10   C     C_3   0.620749 0.491551 0.182048 -0.250871
C11   C     C_3   0.538648 0.524727 0.163135 -0.390974
C12   C     C_3   0.554385 0.246066 0.063825 0.023724
C13   C     C_1   0.342859 0.673613 0.725336 0.080298
C14   C     C_3   0.663231 0.317175 0.043041 -0.254432
C15   C     C_3   0.701659 0.246977 0.012664 -0.469280
C16   C     C_3   0.619882 0.336169 0.329711 0.037378
C17   C     C_3   0.710870 0.451166 0.351715 -0.206986
C18   C     C_3   0.750713 0.532225 0.318519 -0.428992
C19   C     C_3   0.884037 0.475831 0.184497 0.001277
C20   C     C_3   0.982014 0.589970 0.181985 -0.273583
C21   C     C_3   0.939996 0.666356 0.169194 -0.471458
C22   C     C_R   0.383479 0.786630 0.550556 0.568430
C23   C     C_R   0.298784 0.604385 0.898396 0.010361
C24   C     C_3   0.311693 0.204671 0.734166 -0.076239
C25   C     C_3   0.236544 0.106163 0.757826 0.084987
C26   C     C_1   0.304627 0.187926 0.879959 0.048213
C27   C     C_1   0.376700 0.127575 0.617430 0.018800
C28   C     C_3   0.409817 0.239498 0.770350 0.089078
C29   C     C_3   0.334155 0.142587 0.793808 0.056692
C30   C     C_R   0.345020 0.679742 0.678097 0.017880
C31   C     C_3   0.451408 0.167736 0.742067 -0.072164
C32   C     C_3   0.352546 0.132117 0.706115 -0.008818
C33   C     C_3   0.374733 0.070179 0.766210 0.105344
C34   C     C_R   0.400277 0.116910 0.570873 0.543181
C35   C     C_3   0.276684 0.033027 0.729300 -0.088696
C36   C     C_1   0.319718 0.161214 0.841919 0.049039
C37   C     C_1   0.363656 0.130339 0.657302 -0.013742
C38   C     C_3   0.878875 0.290479 0.734911 -0.128688
C39   C     C_3   0.779906 0.226899 0.763745 -0.148883
C40   C     C_1   0.898944 0.206032 0.876992 0.025132
C41   C     C_R   0.247643 0.655932 0.651616 0.285702
C42   C     C_1   0.782353 0.140763 0.612195 0.045259
C43   C     C_3   0.953752 0.255855 0.760158 0.094513
C44   C     C_3   0.855388 0.192674 0.788493 0.032389
C45   C     C_3   0.912773 0.150888 0.724586 -0.070331
C46   C     C_R   0.717899 0.093123 0.441895 0.568958
C47   C     C_3   0.838344 0.185205 0.700221 0.005422
C48   C     C_3   0.814547 0.088379 0.753144 0.159019
C49   C     C_3   0.739650 0.121987 0.728051 0.123203
C50   C     C_1   0.873177 0.198045 0.837446 0.017323
C51   C     C_1   0.816890 0.167611 0.651329 0.008952
C52   C     C_R   0.256656 0.675764 0.606504 0.070973
C53   C     C_3   0.236327 0.625307 0.256618 -0.150277
C54   C     C_3   0.289949 0.718411 0.227573 -0.160136
C55   C     C_1   0.311204 0.607348 0.111205 -0.001596
C56   C     C_1   0.363476 0.735873 0.378225 0.019278
C57   C     C_3   0.288449 0.562275 0.228819 0.134223
C58   C     C_R   0.381759 0.784506 0.424468 0.537966
C59   C     C_3   0.342609 0.655314 0.200499 -0.024415
C60   C     C_3   0.396296 0.621345 0.261906 0.096771
C61   C     C_3   0.344726 0.684384 0.289013 0.056296
C62   C     C_3   0.451794 0.714064 0.232953 -0.096472
C63   C     C_R   0.245632 0.660677 0.833109 -0.096765
C64   C     C_3   0.398232 0.775811 0.260310 0.299364
C65   C     C_1   0.331376 0.634713 0.151340 -0.044612
C66   C     C_1   0.351959 0.707302 0.338122 0.024286
C67   C     C_R   0.359090 0.138583 0.401626 -0.074824
C68   C     C_R   0.427711 0.239861 0.386872 0.261356
C69   C     C_R   0.430517 0.243195 0.340535 0.242337
C70   C     C_R   0.395344 0.115832 0.443587 0.545736
C71   C     C_R   0.347987 0.154702 0.310284 0.013115
C72   C     C_R   0.263942 0.060533 0.325365 0.242537
C73   C     C_R   0.272848 0.052566 0.371686 -0.194923
C74   C     C_R   0.223381 0.629217 0.875764 0.277186
C75   C     C_R   0.235016 0.114972 0.153025 0.070514
C76   C     C_R   0.221938 0.132286 0.109514 -0.157834
C77   C     C_R   0.424703 0.249870 0.110154 0.255611
C78   C     C_R   0.437706 0.239400 0.155322 0.262523
C79   C     C_R   0.342224 0.171252 0.176652 -0.011880
C80   C     C_1   0.350760 0.165189 0.223545 0.053671
C81   C     C_1   0.351097 0.160258 0.263054 0.095536
C82   C     C_R   0.364857 0.726926 0.589660 -0.016609
C83   C     C_R   0.315179 0.204513 0.088702 -0.049987
C84   C     C_R   0.774920 0.125106 0.400223 0.003475
C85   C     C_R   0.398372 0.619809 0.878973 -0.135889
C86   C     C_R   0.769740 0.043509 0.364355 0.104494
C87   C     C_R   0.803471 0.072856 0.321849 0.126469
C88   C     C_R   0.835852 0.179519 0.314567 -0.007456
C89   C     C_R   0.851075 0.261056 0.350199 -0.140528
C90   C     C_R   0.823943 0.235581 0.393207 0.044693
C91   C     C_R   0.895107 0.315061 0.167448 0.300810
C92   C     C_R   0.919837 0.318584 0.122146 -0.107447
C93   C     C_R   0.853409 0.122542 0.108879 -0.141613
C94   C     C_R   0.458114 0.733944 0.615114 0.069963
C95   C     C_R   0.829841 0.118689 0.153838 -0.150996
C96   C     C_R   0.418656 0.650318 0.836247 0.132933
C97   C     C_R   0.855251 0.215173 0.183270 0.066317
C98   C     C_1   0.850199 0.211905 0.230483 0.065754
C99   C     C_1   0.846289 0.202622 0.269547 0.023309
C100  C     C_R   0.902802 0.223236 0.093158 -0.023563
C101  C     C_R   0.285035 0.231173 0.922857 0.551494
C102  C     C_R   0.265714 0.547916 0.938203 0.565168
C103  C     C_R   0.946230 0.222512 0.922363 0.546151
C104  C     C_R   0.293238 0.242545 0.048465 0.557165
C105  C     C_R   0.275690 0.558751 0.065057 0.547683
C106  C     C_R   0.447217 0.712263 0.659139 -0.108800
C107  C     C_R   0.338513 0.664279 0.812318 0.027753
C108  C     C_R   0.955021 0.233968 0.050090 0.543588
C109  C     C_3   0.027669 0.546851 0.870045 0.018032
C110  C     C_3   0.962080 0.603475 0.856958 -0.274583
C111  C     C_3   0.856486 0.524282 0.825595 -0.463252
C112  C     C_3   0.456552 0.958862 0.254158 0.015720
C113  C     C_3   0.531963 0.972531 0.214927 -0.289820
C114  C     C_3   0.538927 0.061497 0.189363 -0.462294
C115  C     C_3   0.099543 0.884790 0.308517 0.033745
C116  C     C_3   0.144327 0.804660 0.312761 -0.288912
C117  C     C_3   0.058752 0.703861 0.331307 -0.478388
Cr1   Cr    Cr6+3 0.583430 0.162610 0.509470 1.095454
Cr2   Cr    Cr6+3 0.584210 0.916680 0.495400 1.093500
Cr3   Cr    Cr6+3 0.332380 0.920740 0.495100 1.058298
Cr4   Cr    Cr6+3 0.086810 0.177030 0.983130 1.053692
Cr5   Cr    Cr6+3 0.337180 0.419300 0.994610 1.048398
Cr6   Cr    Cr6+3 0.084840 0.422330 0.995830 1.026542
H1    H     H_    0.285597 0.259961 0.721051 0.168981
H2    H     H_    0.539496 0.750608 0.222707 0.144601
H3    H     H_    0.137010 0.094285 0.093259 0.178106
H4    H     H_    0.218694 0.978337 0.384668 0.138242
H5    H     H_    0.961065 0.397409 0.110831 0.135893
H6    H     H_    0.882696 0.344586 0.344329 0.137324
H7    H     H_    0.797691 0.041373 0.166279 0.152802
H8    H     H_    0.839572 0.048194 0.087255 0.147710
H9    H     H_    0.458228 0.603615 0.896037 0.164898
H10   H     H_    0.520298 0.723983 0.679285 0.189673
H11   H     H_    0.976006 0.485124 0.891433 0.168542
H12   H     H_    0.222599 0.948215 0.711328 0.127518
H13   H     H_    0.038853 0.500159 0.839119 0.141452
H14   H     H_    0.937049 0.636611 0.887994 0.188621
H15   H     H_    0.016906 0.673148 0.839650 0.171950
H16   H     H_    0.880197 0.493696 0.793591 0.144683
H17   H     H_    0.810028 0.567543 0.817430 0.204180
H18   H     H_    0.800037 0.453597 0.842139 0.171748
H19   H     H_    0.489298 0.040159 0.275960 0.149908
H20   H     H_    0.368575 0.934571 0.241960 0.144141
H21   H     H_    0.618336 0.995139 0.228358 0.198527
H22   H     H_    0.497693 0.894428 0.190822 0.159274
H23   H     H_    0.541014 0.197203 0.735355 0.157854
H24   H     H_    0.453490 0.039212 0.174794 0.160806
H25   H     H_    0.593946 0.069705 0.161295 0.153064
H26   H     H_    0.575260 0.141496 0.212372 0.183733
H27   H     H_    0.025918 0.843101 0.282730 0.185696
H28   H     H_    0.065421 0.905239 0.339804 0.141972
H29   H     H_    0.161899 0.778359 0.278734 0.164867
H30   H     H_    0.224752 0.844585 0.334653 0.184746
H31   H     H_    0.029914 0.728159 0.363307 0.168049
H32   H     H_    0.097998 0.653401 0.338259 0.163363
H33   H     H_    0.985688 0.653738 0.305839 0.145004
H34   H     H_    0.724751 0.256975 0.780199 0.138984
H35   H     H_    0.010315 0.631947 0.660855 0.188751
H36   H     H_    0.144360 0.754514 0.666040 0.128754
H37   H     H_    0.056990 0.617183 0.742936 0.180993
H38   H     H_    0.174538 0.753933 0.745922 0.178801
H39   H     H_    0.033215 0.815111 0.723294 0.183923
H40   H     H_    0.014582 0.767531 0.776982 0.178933
H41   H     H_    0.921006 0.679587 0.728009 0.175582
H42   H     H_    0.504928 0.426428 0.474362 0.174003
H43   H     H_    0.368287 0.315453 0.454074 0.118402
H44   H     H_    0.509655 0.517987 0.407572 0.210759
H45   H     H_    0.906818 0.373658 0.726690 0.143597
H46   H     H_    0.369673 0.408510 0.387387 0.200809
H47   H     H_    0.295714 0.453974 0.459270 0.164887
H48   H     H_    0.360468 0.567817 0.428769 0.167052
H49   H     H_    0.436121 0.566457 0.478261 0.168197
H50   H     H_    0.618075 0.402595 0.235219 0.146185
H51   H     H_    0.482933 0.383913 0.219812 0.182844
H52   H     H_    0.682832 0.562020 0.207062 0.122298
H53   H     H_    0.668294 0.476699 0.154455 0.201683
H54   H     H_    0.475199 0.458828 0.137296 0.209424
H55   H     H_    0.586291 0.599229 0.147393 0.142151
H56   H     H_    0.967149 0.121146 0.707205 0.166769
H57   H     H_    0.493690 0.543588 0.190631 0.169783
H58   H     H_    0.488458 0.189457 0.036117 0.127232
H59   H     H_    0.571872 0.197123 0.085818 0.142070
H60   H     H_    0.649028 0.370493 0.022712 0.183798
H61   H     H_    0.730934 0.370549 0.070470 0.155095
H62   H     H_    0.714710 0.191664 0.032069 0.145819
H63   H     H_    0.782562 0.300854 0.999195 0.164695
H64   H     H_    0.637394 0.196834 0.983775 0.158141
H65   H     H_    0.642946 0.313906 0.295901 0.120269
H66   H     H_    0.620380 0.276652 0.350692 0.134996
H67   H     H_    0.186980 0.676902 0.815251 0.115472
H68   H     H_    0.677975 0.482233 0.380706 0.227975
H69   H     H_    0.785143 0.446971 0.364985 0.139204
H70   H     H_    0.793981 0.507761 0.291732 0.119264
H71   H     H_    0.810177 0.615497 0.336769 0.154935
H72   H     H_    0.678785 0.535414 0.302649 0.214618
H73   H     H_    0.829702 0.483851 0.210610 0.145454
H74   H     H_    0.830034 0.441042 0.151833 0.116325
H75   H     H_    0.031410 0.625954 0.215420 0.168836
H76   H     H_    0.038762 0.583399 0.156635 0.178638
H77   H     H_    0.888598 0.631687 0.136126 0.150009
H78   H     H_    0.246012 0.755842 0.211463 0.104240
H79   H     H_    0.013555 0.747170 0.166497 0.189065
H80   H     H_    0.888293 0.678871 0.195523 0.159629
H81   H     H_    0.148584 0.586602 0.266711 0.148037
I1    I     I_    0.415440 0.966045 0.798728 -0.377322
I2    I     I_    0.704015 0.872399 0.369468 -0.253945
I3    I     I_    0.104617 0.614179 0.563590 -0.280635
I4    I     I_    0.805894 0.957677 0.267120 -0.357168
I5    I     I_    0.620535 0.773896 0.592580 -0.282579
I6    I     I_    0.570091 0.672772 0.809277 -0.255278
I7    I     I_    0.068662 0.046092 0.776128 -0.369461
I8    I     I_    0.528204 0.395771 0.806061 -0.373585
I9    I     I_    0.574858 0.009236 0.694843 -0.368512
I10   I     I_    0.754648 0.925157 0.764801 -0.216376
I11   I     I_    0.127680 0.360068 0.783736 -0.410217
I12   I     I_    0.470673 0.544674 0.295524 -0.402609
I13   I     I_    0.201710 0.390587 0.202228 -0.328212
I14   I     I_    0.086838 0.011964 0.182807 -0.339195
I15   I     I_    0.863317 0.370862 0.445273 -0.319879
O1    O     O_R   0.493980 0.188910 0.559650 -0.500563
O2    O     O_R   0.170560 0.527890 0.952050 -0.459624
O3    O     O_R   0.987620 0.318470 0.945550 -0.515467
O4    O     O_R   0.678640 0.153520 0.554450 -0.488154
O5    O     O_R   0.976400 0.159270 0.031530 -0.508735
O6    O     O_R   0.194000 0.188570 0.028560 -0.512977
O7    O     O_R   0.365260 0.335720 0.039020 -0.470769
O8    O     O_R   0.330440 0.515580 0.044910 -0.496715
O9    O     O_R   0.177310 0.536200 0.050190 -0.511527
O10   O     O_R   0.993870 0.326170 0.036530 -0.512776
O11   O     O_3   0.169610 0.339550 0.991190 -0.254026
O12   O     O_R   0.480180 0.824400 0.444640 -0.477235
O13   O     O_R   0.698130 0.004030 0.549500 -0.473546
O14   O     O_R   0.481060 0.827210 0.535360 -0.472656
O15   O     O_R   0.309260 0.811560 0.537660 -0.477777
O16   O     O_R   0.341620 0.023400 0.546290 -0.491179
O17   O     O_R   0.493030 0.185890 0.461780 -0.454282
O18   O     O_R   0.677760 0.150720 0.463730 -0.468844
O19   O     O_R   0.697180 0.001010 0.451640 -0.481328
O20   O     O_3   0.129843 0.625432 0.895941 -0.540191
O21   O     O_3   0.460659 0.886649 0.281526 -0.549308
O22   O     O_3   0.182099 0.978855 0.292523 -0.540471
O23   O     O_R   0.308310 0.808540 0.439800 -0.509718
O24   O     O_3   0.143323 0.602986 0.668716 -0.545670
O25   O     O_3   0.505585 0.331608 0.416306 -0.535762
O26   O     O_3   0.544920 0.293582 0.177506 -0.584004
O27   O     O_3   0.518816 0.314671 0.089146 -0.547244
O28   O     O_3   0.514089 0.333693 0.324641 -0.540028
O29   O     O_3   0.927482 0.410046 0.198419 -0.562570
O30   O     O_R   0.340740 0.020600 0.455570 -0.509060
O31   O     O_3   0.500010 0.000010 0.499990 -0.274091
O32   O     O_R   0.969650 0.150960 0.933380 -0.478753
O33   O     O_R   0.187740 0.180870 0.937580 -0.485615
O34   O     O_R   0.358510 0.327410 0.940870 -0.500143
O35   O     O_R   0.324180 0.507870 0.953930 -0.507842

loop_
_geom_bond_atom_site_label_1
_geom_bond_atom_site_label_2
_ccdc_geom_bond_type
C44   C48   S    
C87   C88   A    
C6    H43   S    
C4    H38   S    
C82   C94   A    
C29   C33   S    
C18   H71   S    
C52   I3    S    
C76   H3    S    
C21   H80   S    
C19   C20   S    
C43   C44   S    
C43   I11   S    
C86   I2    S    
Cr5   O34   S    
C24   C32   S    
C14   H60   S    
C89   H6    S    
C7    C8    S    
C47   C49   S    
C105  O8    A    
C53   C54   S    
C17   H68   S    
C38   H45   S    
C15   H62   S    
C29   C36   S    
C33   I1    S    
C57   I13   S    
Cr3   O16   S    
C41   O24   S    
C5    H40   S    
C112  H20   S    
C28   C29   S    
C84   C86   A    
C114  H24   S    
C70   O17   A    
C26   C101  S    
C38   C39   S    
C108  O5    A    
C85   C96   A    
C34   O1    A    
C87   I4    S    
C57   C59   S    
C23   C102  S    
C77   C83   A    
C112  H19   S    
C115  C116  S    
Cr5   O7    S    
C49   I9    S    
C2    C107  S    
C24   H1    S    
C78   O26   S    
Cr4   O6    S    
C116  C117  S    
C60   C62   S    
C77   O27   S    
C105  O9    A    
C113  H22   S    
C74   O20   S    
C25   I7    S    
C2    C13   T    
C110  C111  S    
C62   C64   S    
C58   O12   A    
Cr3   O15   S    
C115  O22   S    
C31   H23   S    
C53   C61   S    
C61   C66   S    
Cr2   O14   S    
C106  H10   S    
C12   H59   S    
C12   H58   S    
C16   C17   S    
C112  O21   S    
C110  H14   S    
C111  H17   S    
C95   H7    S    
C27   C37   T    
C31   C33   S    
C30   C41   A    
C9    H50   S    
C11   H54   S    
C9    O26   S    
C9    C10   S    
C41   C52   A    
C8    H48   S    
Cr2   O12   S    
C42   C51   T    
C108  O10   A    
C109  O20   S    
C18   H72   S    
C6    H42   S    
C69   C71   A    
C19   H73   S    
C93   C95   A    
C22   O15   A    
C39   H34   S    
C109  H13   S    
C3    H36   S    
C85   H9    S    
C6    O25   S    
C27   C34   S    
C84   C90   A    
C34   O16   A    
C92   H5    S    
C76   C83   A    
C112  C113  S    
C55   C65   T    
C8    H47   S    
C19   O29   S    
C97   C98   S    
C45   H56   S    
C54   C59   S    
C45   C47   S    
C17   H69   S    
C25   C29   S    
Cr5   O11   S    
Cr6   O3    S    
C48   I10   S    
C100  C108  S    
C10   H53   S    
C19   H74   S    
C83   C104  S    
C111  H16   S    
C67   C68   A    
C53   H81   S    
C32   C35   S    
C13   C30   S    
C104  O6    A    
C96   I6    S    
Cr3   O30   S    
C16   H65   S    
Cr2   O31   S    
C35   H12   S    
C91   C92   A    
C53   C57   S    
C86   C87   A    
C4    C5    S    
Cr4   O33   S    
C47   C51   S    
Cr6   O9    S    
C75   I14   S    
C77   C78   A    
C15   H64   S    
C91   C97   A    
C60   C61   S    
C102  O35   A    
C61   C64   S    
C101  O34   A    
C75   C76   A    
C5    H41   S    
C20   H76   S    
C117  H32   S    
C33   C35   S    
C3    H35   S    
C22   O14   A    
Cr6   O2    S    
C31   C32   S    
Cr6   O10   S    
C110  H15   S    
C20   C21   S    
C117  H33   S    
C17   C18   S    
C116  H30   S    
C9    H51   S    
C40   C50   T    
C11   H55   S    
Cr3   O23   S    
C32   C37   S    
C24   C25   S    
C52   C82   A    
C43   C45   S    
C93   C100  A    
C20   H75   S    
C38   C47   S    
C6    C7    S    
Cr2   O13   S    
C25   C35   S    
C67   C73   A    
Cr1   O18   S    
C26   C36   T    
C48   C49   S    
C39   C49   S    
C96   C107  A    
C12   C14   S    
C7    H46   S    
Cr1   O31   S    
C46   C84   S    
C12   O27   S    
C101  O33   A    
C69   O28   S    
C21   H77   S    
C63   C107  A    
C3    C4    S    
C54   H78   S    
C22   C82   S    
C116  H29   S    
C92   C100  A    
C113  C114  S    
C45   C48   S    
C44   C50   S    
C10   H52   S    
C7    H44   S    
C91   O29   S    
C94   C106  A    
C59   C62   S    
Cr4   O11   S    
C16   O28   S    
C109  H11   S    
C78   C79   A    
C70   O30   A    
C21   H79   S    
C68   C69   A    
C28   C31   S    
C24   C28   S    
Cr3   O31   S    
C72   C73   A    
C57   C60   S    
Cr5   O35   S    
C62   H2    S    
C14   H61   S    
C95   C97   A    
Cr2   O19   S    
C104  O7    A    
C39   C44   S    
C63   C74   A    
C28   I8    S    
C63   H67   S    
C3    O24   S    
C113  H21   S    
C15   H63   S    
C1    O4    A    
C67   C70   S    
Cr1   O4    S    
C5    H39   S    
C60   I12   S    
C103  O32   A    
C38   C43   S    
C46   O18   A    
C73   H4    S    
C109  C110  S    
C59   C65   S    
C40   C103  S    
Cr1   O1    S    
C103  O3    A    
C1    O13   A    
C58   O23   A    
C4    H37   S    
Cr6   O11   S    
C54   C64   S    
C68   O25   S    
C56   C66   T    
Cr5   O8    S    
C115  H27   S    
C55   C105  S    
Cr4   O5    S    
C56   C58   S    
C46   O19   A    
C72   O22   S    
C80   C81   T    
C64   O21   S    
C88   C99   S    
Cr4   O32   S    
C10   C11   S    
C111  H18   S    
C114  H25   S    
C79   C80   S    
Cr1   O17   S    
C1    C42   S    
C71   C72   A    
C88   C89   A    
C94   I5    S    
C90   I15   S    
C98   C99   T    
C23   C85   A    
C115  H28   S    
C117  H31   S    
C14   C15   S    
C11   H57   S    
C23   C74   A    
C114  H26   S    
C71   C81   S    
C89   C90   A    
C93   H8    S    
C75   C79   A    
C16   H66   S    
C30   C106  A    
C8    H49   S    
C102  O2    A    
C18   H70   S    
