data_mof_unit_37667.cif
_audit_creation_date              2012-12-11T15:29:39-0500
_audit_creation_method            fapswitch 2.2
_symmetry_space_group_name_H-M    P1
_symmetry_Int_Tables_number       1
_space_group_crystal_system       triclinic
_cell_length_a                    21.403658
_cell_length_b                    7.246158
_cell_length_c                    14.718424
_cell_angle_alpha                 90.000458
_cell_angle_beta                  74.445505
_cell_angle_gamma                 90.001472
_cell_volume                      2199.13992759

loop_
_atom_site_label
_atom_site_type_symbol
_atom_type_description
_atom_site_fract_x
_atom_site_fract_y
_atom_site_fract_z
_atom_type_partial_charge
O1    O     O_R   0.464160 0.506670 0.130070 -0.525304
O2    O     O_R   0.535840 0.006670 0.869930 -0.525245
O3    O     O_R   0.589710 0.179080 0.006710 -0.547823
O4    O     O_R   0.410290 0.679080 0.993290 -0.547914
C1    C     C_R   0.616229 0.344566 0.002121 0.747506
C2    C     C_R   0.383780 0.844567 0.997829 0.747741
O5    O     O_R   0.467940 0.177220 0.138010 -0.530896
O6    O     O_R   0.532060 0.677220 0.861990 -0.531115
O7    O     O_R   0.413200 0.002810 0.002170 -0.539795
O8    O     O_R   0.586800 0.502810 0.997830 -0.539961
C3    C     C_R   0.456043 0.345557 0.174500 0.726109
C4    C     C_R   0.543959 0.845560 0.825498 0.725982
O9    O     O_3   0.482180 0.337850 0.955280 -0.377532
O10   O     O_3   0.517820 0.837850 0.044720 -0.377455
V1    V     V_3+5 0.503310 0.064600 0.008300 1.518291
V2    V     V_3+5 0.496690 0.564600 0.991700 1.517833
C5    C     C_R   0.571913 0.854606 0.723574 -0.172322
C6    C     C_R   0.428091 0.354560 0.276422 -0.172441
C7    C     C_R   0.929061 0.862320 0.276874 -0.256398
C8    C     C_R   0.070938 0.362337 0.723124 -0.256392
C9    C     C_R   0.559356 0.893392 0.566777 0.794803
C10   C     C_R   0.440719 0.391872 0.433261 0.795097
C11   C     C_R   0.532850 0.891909 0.664096 -0.186107
C12   C     C_R   0.467220 0.390695 0.335942 -0.185913
C13   C     C_R   0.638459 0.830442 0.686422 -0.045879
C14   C     C_R   0.361509 0.331147 0.313543 -0.045940
C15   C     C_R   0.668168 0.850594 0.588764 -0.012421
C16   C     C_R   0.331831 0.350861 0.411236 -0.012477
C17   C     C_R   0.626832 0.865007 0.527445 -0.198826
C18   C     C_R   0.373193 0.364299 0.472571 -0.198944
C19   C     C_R   0.737211 0.850953 0.550321 -0.099592
C20   C     C_R   0.262788 0.351544 0.449686 -0.099473
C21   C     C_R   0.763750 0.839821 0.450466 -0.139293
C22   C     C_R   0.236243 0.339960 0.549525 -0.139060
C23   C     C_R   0.720456 0.817537 0.393313 0.608193
C24   C     C_R   0.279517 0.317078 0.606663 0.607796
C25   C     C_R   0.653754 0.841549 0.429658 0.277128
C26   C     C_R   0.346241 0.340649 0.570344 0.277415
C27   C     C_R   0.780889 0.867391 0.607576 0.669823
C28   C     C_R   0.219111 0.368602 0.392459 0.669704
C29   C     C_R   0.847342 0.851424 0.569312 -0.092018
C30   C     C_R   0.152657 0.352487 0.430690 -0.091987
C31   C     C_R   0.874364 0.839861 0.472103 -0.135864
C32   C     C_R   0.125636 0.340373 0.527882 -0.135873
C33   C     C_R   0.832762 0.846988 0.411356 0.075993
C34   C     C_R   0.167235 0.347214 0.588634 0.076059
C35   C     C_R   0.942567 0.831356 0.434092 0.303367
C36   C     C_R   0.057436 0.331652 0.565886 0.303422
C37   C     C_R   0.969259 0.838560 0.336502 0.602724
C38   C     C_R   0.030744 0.338657 0.663483 0.602678
C39   C     C_R   0.861968 0.870873 0.313888 -0.145396
C40   C     C_R   0.138033 0.370884 0.686116 -0.145484
H1    H     H_    0.834223 0.904125 0.264900 0.240470
H2    H     H_    0.165789 0.404016 0.735112 0.240207
H3    H     H_    0.877695 0.859443 0.617267 0.208326
H4    H     H_    0.122302 0.360909 0.382753 0.208366
H5    H     H_    0.481275 0.914544 0.693054 0.165425
H6    H     H_    0.518837 0.412606 0.307009 0.165192
H7    H     H_    0.665118 0.789038 0.735495 0.201486
H8    H     H_    0.334801 0.290518 0.264407 0.201699
C41   C     C_3   0.229018 0.764937 0.909770 1.139674
C42   C     C_3   0.770883 0.266929 0.090678 1.139795
C43   C     C_3   0.301894 0.760772 0.909156 -0.425616
C44   C     C_3   0.698026 0.262413 0.091191 -0.425781
H9    H     H_    0.331596 0.833362 0.845498 0.187925
H10   H     H_    0.668305 0.335975 0.154505 0.187994
H11   H     H_    0.319257 0.615371 0.904153 0.174165
H12   H     H_    0.680619 0.117027 0.096789 0.174274
H13   H     H_    0.176965 0.614977 0.089476 0.187400
H14   H     H_    0.822715 0.112962 0.911936 0.186745
H15   H     H_    0.284332 0.600274 0.082271 0.138171
H16   H     H_    0.715421 0.098820 0.918765 0.137457
C45   C     C_3   0.196507 0.757575 0.087990 -0.378315
C46   C     C_3   0.803418 0.255674 0.912508 -0.379067
C47   C     C_3   0.215539 0.061167 0.003325 -0.348809
C48   C     C_3   0.784685 0.561088 0.995436 -0.349877
C49   C     C_3   0.187564 0.863047 0.000450 -0.150713
C50   C     C_3   0.812451 0.363054 0.999463 -0.149856
H17   H     H_    0.188096 0.133927 0.068453 0.192709
H18   H     H_    0.812175 0.632277 0.929835 0.192717
H19   H     H_    0.209878 0.143534 0.942177 0.240777
H20   H     H_    0.790480 0.644923 0.056040 0.239968
C51   C     C_3   0.312444 0.852673 0.999340 -0.126120
C52   C     C_3   0.687572 0.352666 0.000572 -0.125754
C53   C     C_3   0.269452 0.747928 0.086702 0.170253
C54   C     C_3   0.730483 0.246344 0.913717 0.170532
C55   C     C_3   0.287933 0.055245 0.001385 -0.308721
C56   C     C_3   0.712261 0.555197 0.997555 -0.308588
H21   H     H_    0.316631 0.130649 0.937952 0.190222
H22   H     H_    0.683682 0.631683 0.060688 0.189966
H23   H     H_    0.294966 0.129515 0.064048 0.202669
H24   H     H_    0.705216 0.628387 0.934605 0.202819
H25   H     H_    0.167724 0.827195 0.153158 0.238755
H26   H     H_    0.832364 0.323665 0.846947 0.238972
O11   O     O_R   0.913210 0.208550 0.002110 -0.517209
O12   O     O_R   0.086790 0.708550 0.997890 -0.516776
O13   O     O_R   0.032060 0.539960 0.861980 -0.532731
O14   O     O_R   0.967940 0.039960 0.138020 -0.532719
C57   C     C_R   0.043674 0.372400 0.825261 0.806744
C58   C     C_R   0.956323 0.872400 0.174738 0.806833
O15   O     O_R   0.910290 0.538020 0.993280 -0.549979
O16   O     O_R   0.089710 0.038020 0.006720 -0.550007
O17   O     O_R   0.964160 0.712340 0.130090 -0.532673
O18   O     O_R   0.035840 0.212340 0.869910 -0.532759
C59   C     C_R   0.883918 0.370105 0.998280 0.761194
C60   C     C_R   0.116091 0.870109 0.001670 0.761129
O19   O     O_3   0.017820 0.379210 0.044690 -0.385056
O20   O     O_3   0.982180 0.879210 0.955310 -0.385377
V3    V     V_3+5 0.996690 0.652500 0.991710 1.599041
V4    V     V_3+5 0.003310 0.152500 0.008290 1.598817
Br1   Br    Br    0.602241 0.819400 0.340614 -0.342819
Br2   Br    Br    0.397700 0.317738 0.659424 -0.343111
Br3   Br    Br    0.001772 0.810735 0.511914 -0.396834
Br4   Br    Br    0.998249 0.310849 0.488047 -0.396762
F1    F     F_    0.207556 0.585243 0.905654 -0.692937
F2    F     F_    0.792245 0.087475 0.095928 -0.692510
F3    F     F_    0.222483 0.857430 0.830325 -0.643844
F4    F     F_    0.777400 0.361401 0.169589 -0.643014
Br5   Br    Br    0.281916 0.839596 0.205654 -0.468236
Br6   Br    Br    0.718214 0.336175 0.794324 -0.467699
F5    F     F_    0.034558 0.828138 0.299746 -0.656720
F6    F     F_    0.965445 0.328131 0.700234 -0.656734
F7    F     F_    0.518262 0.926898 0.512836 -0.601979
F8    F     F_    0.481890 0.424080 0.487226 -0.601976
F9    F     F_    0.741249 0.757495 0.302869 -0.625038
F10   F     F_    0.258666 0.256787 0.697060 -0.626007
F11   F     F_    0.761593 0.912440 0.700254 -0.678313
F12   F     F_    0.238411 0.414409 0.299878 -0.678373

loop_
_geom_bond_atom_site_label_1
_geom_bond_atom_site_label_2
_ccdc_geom_bond_type
C51   C55   S    
C43   H9    S    
C3    C6    S    
O4    V2    S    
O14   V4    S    
C55   H23   S    
C15   C17   A    
C21   C33   A    
C46   H26   S    
O1    C3    A    
C45   H25   S    
O2    C4    A    
C2    O7    A    
C35   C37   A    
O5    C3    A    
C53   Br5   S    
C5    C11   A    
C50   C59   S    
C6    C12   A    
C44   H12   S    
C49   C60   S    
C23   C25   A    
C48   C50   S    
C33   C39   A    
O15   V3    S    
C28   F12   S    
C34   C40   A    
O20   V3    S    
C18   C26   A    
C23   F9    S    
C41   C43   S    
C44   C52   S    
C8    C38   A    
O11   C59   A    
C30   H4    S    
H15   C53   S    
C29   H3    S    
C56   H24   S    
C32   C34   A    
C6    C14   A    
C4    C5    S    
H14   C46   S    
C42   C44   S    
C19   C21   A    
H13   C45   S    
C22   C34   A    
C31   C35   A    
C48   C56   S    
C36   C38   A    
C57   O18   A    
O6    V2    S    
C29   C31   A    
C30   C32   A    
O13   C57   A    
C40   H2    S    
O15   C59   A    
C43   H11   S    
C27   F11   S    
C15   C19   A    
C12   H6    S    
C48   H18   S    
C16   C20   A    
C27   C29   A    
C48   H20   S    
C1    C52   S    
C41   F1    S    
C47   H19   S    
O5    V1    S    
C9    C17   A    
C58   O17   A    
C43   C51   S    
C39   H1    S    
C20   C22   A    
C9    F7    S    
C42   F2    S    
O13   V3    S    
C7    C37   A    
O6    C4    A    
C37   F5    S    
O1    V2    S    
C46   C54   S    
O2    V1    S    
C47   C49   S    
C45   C53   S    
C11   H5    S    
C47   C55   S    
C51   C53   S    
C56   H22   S    
C41   C49   S    
C9    C11   A    
O19   V4    S    
C10   C12   A    
O16   V4    S    
O4    C2    A    
C26   Br2   S    
C24   C26   A    
O3    V1    S    
C36   Br4   S    
C35   Br3   S    
O12   C60   A    
C2    C51   S    
C10   C18   A    
C14   C16   A    
C42   C50   S    
C24   F10   S    
C52   C56   S    
C52   C54   S    
O3    C1    A    
O11   V4    S    
H16   C54   S    
C7    C58   S    
C10   F8    S    
C13   C15   A    
O12   V3    S    
O14   C58   A    
O17   V3    S    
C5    C13   A    
C16   C18   A    
O7    V1    S    
C1    O8    A    
C31   C33   A    
C41   F3    S    
O8    V2    S    
O18   V4    S    
C8    C57   S    
C14   H8    S    
C28   C30   A    
C21   C23   A    
C19   C27   A    
O16   C60   A    
C22   C24   A    
C20   C28   A    
C42   F4    S    
C7    C39   A    
C25   Br1   S    
C38   F6    S    
C8    C40   A    
C46   C50   S    
O9    V2    S    
C17   C25   A    
C55   H21   S    
C45   C49   S    
O10   V1    S    
C54   Br6   S    
C13   H7    S    
C47   H17   S    
C32   C36   A    
C44   H10   S    
