data_mof_unit_21906.cif
_audit_creation_date              2012-12-10T17:17:27-0500
_audit_creation_method            fapswitch 2.2
_symmetry_space_group_name_H-M    P1
_symmetry_Int_Tables_number       1
_space_group_crystal_system       triclinic
_cell_length_a                    10.233134
_cell_length_b                    10.352583
_cell_length_c                    12.832435
_cell_angle_alpha                 92.940238
_cell_angle_beta                  111.005452
_cell_angle_gamma                 94.05269
_cell_volume                      1261.65212122

loop_
_atom_site_label
_atom_site_type_symbol
_atom_type_description
_atom_site_fract_x
_atom_site_fract_y
_atom_site_fract_z
_atom_type_partial_charge
C1    C     C_R   0.048983 0.735229 0.492811 0.974754
C2    C     C_R   0.453861 0.574478 0.984904 -0.110470
C3    C     C_R   0.375413 0.562055 0.869648 -0.101888
C4    C     C_R   0.586740 0.521647 0.020436 -0.011492
C5    C     C_R   0.620454 0.435184 0.945461 -0.008917
C6    C     C_R   0.551509 0.444659 0.830842 0.296041
C7    C     C_R   0.448948 0.532746 0.798978 0.394902
C8    C     C_R   0.687212 0.551424 0.126015 -0.298623
C9    C     C_R   0.802804 0.360205 0.104711 0.121049
C10   C     C_R   0.229481 0.580476 0.828407 -0.170955
C11   C     C_2   0.077545 0.876272 0.500004 0.027106
C12   C     C_R   0.140283 0.530966 0.711158 0.950349
C13   C     C_2   0.087069 0.941677 0.596777 0.337865
C14   C     C_2   0.948866 0.129539 0.539105 -0.010656
C15   C     C_2   0.071133 0.082408 0.602210 0.083488
C16   C     C_2   0.420973 0.532458 0.471665 0.364067
C17   C     C_2   0.566259 0.492316 0.478496 0.384555
C18   C     C_R   0.954583 0.265303 0.512446 0.876787
C19   C     C_R   0.864418 0.485575 0.288497 0.901900
C20   C     C_R   0.726587 0.349784 0.988246 0.201454
C21   C     C_R   0.787946 0.467443 0.170053 -0.125440
C22   C     C_R   0.173113 0.644547 0.901060 0.081571
C23   C     C_R   0.260098 0.679572 0.013442 0.213742
C24   C     C_R   0.394151 0.635666 0.057090 0.386863
H1    H     H_    0.686692 0.637684 0.176913 0.213319
N1    N     N_2   0.313640 0.446500 0.454900 0.032999
N2    N     N_2   0.686360 0.553430 0.545150 0.010443
O1    O     O_R   0.936910 0.692950 0.509080 -0.604843
O2    O     O_R   0.138320 0.658600 0.480130 -0.589951
O3    O     O_R   0.002900 0.525670 0.675280 -0.626483
O4    O     O_R   0.204310 0.491320 0.646330 -0.541702
O5    O     O_R   0.861680 0.341400 0.519870 -0.620995
O6    O     O_R   0.063090 0.307050 0.490920 -0.604355
O7    O     O_R   0.795690 0.508680 0.353670 -0.608268
O8    O     O_R   0.997100 0.474330 0.324720 -0.595877
Zn1   Zn    Zn3+2 0.865520 0.522940 0.519330 0.968333
Zn2   Zn    Zn3+2 0.134480 0.477060 0.480670 1.010347
N3    N     N_2   0.888486 0.262006 0.157811 -0.296291
H2    H     H_    0.938941 0.216364 0.112055 0.228454
C25   C     C_3   0.821330 0.171114 0.209414 -0.803935
H3    H     H_    0.736963 0.106756 0.144118 0.233027
H4    H     H_    0.775304 0.222845 0.264005 0.232326
H5    H     H_    0.900423 0.110904 0.262324 0.262048
O9    O     O_3   0.112499 0.875373 0.691823 -0.815908
H6    H     H_    0.108103 0.935590 0.752687 0.333153
N4    N     N_2   0.822119 0.046331 0.486447 -0.314669
H7    H     H_    0.751817 0.082137 0.416833 0.220060
C26   C     C_3   0.755606 0.002485 0.562271 -0.717516
H8    H     H_    0.661836 0.933916 0.515488 0.256464
H9    H     H_    0.721560 0.086570 0.600142 0.238915
H10   H     H_    0.828767 0.951147 0.629801 0.251936
N5    N     N_2   0.069143 0.942864 0.402995 -0.345169
H11   H     H_    0.141505 0.022509 0.416928 0.229030
C27   C     C_3   0.034731 0.866848 0.297081 -0.831783
H12   H     H_    0.026455 0.932534 0.229789 0.242124
H13   H     H_    0.931872 0.808295 0.275096 0.241912
H14   H     H_    0.117631 0.801731 0.301441 0.263027
N6    N     N_2   0.573925 0.378570 0.413528 -0.265956
H15   H     H_    0.606141 0.299550 0.458572 0.251340
C28   C     C_3   0.474222 0.347575 0.300081 -0.759582
H16   H     H_    0.531977 0.345711 0.241588 0.232676
H17   H     H_    0.394325 0.418306 0.274711 0.231357
H18   H     H_    0.418379 0.249583 0.292733 0.250006
N7    N     N_2   0.397084 0.666444 0.473457 -0.291395
H19   H     H_    0.447893 0.721462 0.547933 0.290628
C29   C     C_3   0.403581 0.731360 0.378564 -0.747061
H20   H     H_    0.377013 0.832877 0.385086 0.237232
H21   H     H_    0.325700 0.680606 0.300433 0.280226
H22   H     H_    0.511398 0.734065 0.376671 0.281937
O10   O     O_3   0.681844 0.665659 0.599749 -0.780358
H23   H     H_    0.780516 0.704282 0.631625 0.375358
O11   O     O_3   0.345912 0.322962 0.462961 -0.751098
H24   H     H_    0.255911 0.269150 0.443640 0.374138
O12   O     O_3   0.593983 0.381163 0.753032 -0.763944
H25   H     H_    0.522429 0.386431 0.677477 0.361281
N8    N     N_2   0.739662 0.242893 0.918895 -0.248089
H26   H     H_    0.731405 0.154178 0.950184 0.219944
C30   C     C_3   0.857239 0.257381 0.881194 -0.721477
H27   H     H_    0.958538 0.278469 0.952751 0.196176
H28   H     H_    0.844860 0.336475 0.824724 0.287829
H29   H     H_    0.861202 0.166273 0.833228 0.227849
N9    N     N_2   0.034856 0.685766 0.860874 -0.300621
H30   H     H_    0.001177 0.722349 0.783713 0.277904
C31   C     C_3   0.927177 0.610175 0.886435 -0.773356
H31   H     H_    0.849934 0.558424 0.808524 0.282804
H32   H     H_    0.870440 0.676450 0.922069 0.241694
H33   H     H_    0.972492 0.538531 0.948069 0.235389
O13   O     O_3   0.460677 0.652366 0.171018 -0.800621
H34   H     H_    0.488169 0.566483 0.195914 0.338444
N10   N     N_2   0.212460 0.756075 0.086008 -0.282738
H35   H     H_    0.106014 0.745883 0.069524 0.245042
C32   C     C_3   0.270180 0.890630 0.106424 -0.746682
H36   H     H_    0.235120 0.941122 0.168774 0.224750
H37   H     H_    0.233296 0.939871 0.027430 0.227676
H38   H     H_    0.386962 0.897942 0.140646 0.275178
O14   O     O_3   0.439204 0.610359 0.713292 -0.749057
H39   H     H_    0.527988 0.609126 0.699427 0.352973
N11   N     N_2   0.190148 0.167687 0.671189 -0.282591
H40   H     H_    0.285030 0.129734 0.685459 0.249875
C33   C     C_3   0.178992 0.221932 0.773592 -0.782396
H41   H     H_    0.271039 0.293166 0.817747 0.231662
H42   H     H_    0.178318 0.144735 0.830297 0.221100
H43   H     H_    0.081680 0.271953 0.755320 0.236332

loop_
_geom_bond_atom_site_label_1
_geom_bond_atom_site_label_2
_ccdc_geom_bond_type
C29   H21   S    
N1    O11   S    
C14   C18   S    
C1    C11   S    
C31   H33   S    
C4    C8    A    
C14   N4    S    
C5    C20   A    
C10   C22   A    
C7    O14   S    
C28   H18   S    
C22   N9    S    
C19   C21   S    
C31   H32   S    
C3    C7    A    
C5    C6    A    
C30   H28   S    
C29   H22   S    
N6    C28   S    
C20   N8    S    
C28   H17   S    
C33   H41   S    
C11   N5    S    
N4    H7    S    
C26   H10   S    
C16   C17   S    
C1    O1    A    
C23   C24   A    
O10   H23   S    
C17   N6    S    
C26   H9    S    
C29   H20   S    
C8    H1    S    
C32   H37   S    
N5    C27   S    
C6    O12   S    
N4    C26   S    
C25   H5    S    
C16   N1    D    
C27   H13   S    
O12   H25   S    
C17   N2    D    
N8    H26   S    
C30   H27   S    
O11   H24   S    
N6    H15   S    
C33   H43   S    
O6    Zn2   S    
O4    Zn2   S    
C28   H16   S    
N7    C29   S    
C2    C4    A    
C9    C20   A    
N10   C32   S    
O14   H39   S    
C1    O2    A    
C8    C21   A    
C23   N10   S    
C31   H31   S    
C24   O13   S    
N2    O10   S    
C10   C12   S    
C25   H3    S    
N9    H30   S    
N11   C33   S    
C13   C15   S    
C12   O4    A    
C2    C24   A    
C18   O5    A    
C15   N11   S    
O5    Zn1   S    
N5    H11   S    
O8    Zn2   S    
C33   H42   S    
C27   H12   S    
C26   H8    S    
C12   O3    A    
C14   C15   D    
O9    H6    S    
N8    C30   S    
C4    C5    A    
C19   O7    A    
N1    Zn2   S    
C6    C7    A    
N2    Zn1   S    
N9    C31   S    
O3    Zn1   S    
N7    H19   S    
C2    C3    A    
C3    C10   A    
C19   O8    A    
N3    C25   S    
C11   C13   D    
C30   H29   S    
C9    C21   A    
N10   H35   S    
N3    H2    S    
C25   H4    S    
C32   H36   S    
O7    Zn1   S    
C32   H38   S    
C18   O6    A    
O13   H34   S    
O1    Zn1   S    
N11   H40   S    
O2    Zn2   S    
C22   C23   A    
C9    N3    S    
C16   N7    S    
C13   O9    S    
C27   H14   S    
