data_mof_unit_31489.cif
_audit_creation_date              2012-12-10T18:35:24-0500
_audit_creation_method            fapswitch 2.2
_symmetry_space_group_name_H-M    P1
_symmetry_Int_Tables_number       1
_space_group_crystal_system       triclinic
_cell_length_a                    14.952669
_cell_length_b                    15.473398
_cell_length_c                    16.809431
_cell_angle_alpha                 91.859635
_cell_angle_beta                  99.894697
_cell_angle_gamma                 97.935396
_cell_volume                      3788.34221203

loop_
_atom_site_label
_atom_site_type_symbol
_atom_type_description
_atom_site_fract_x
_atom_site_fract_y
_atom_site_fract_z
_atom_type_partial_charge
C1    C     C_R   0.557472 0.662462 0.515092 0.912658
C2    C     C_R   0.467574 0.190455 0.527475 -0.331477
C3    C     C_R   0.547081 0.898652 0.557082 0.031472
C4    C     C_R   0.440413 0.101161 0.532331 0.026605
C5    C     C_R   0.638438 0.931466 0.593634 0.009724
C6    C     C_R   0.347452 0.066052 0.501960 -0.012179
C7    C     C_R   0.478496 0.953972 0.547492 0.129370
C8    C     C_R   0.505198 0.045095 0.560803 0.121088
C9    C     C_R   0.596306 0.076513 0.599661 -0.266640
C10   C     C_R   0.384183 0.920944 0.524206 -0.264034
C11   C     C_R   0.661093 0.020299 0.617050 -0.179010
C12   C     C_R   0.442417 0.337503 0.489595 0.912593
C13   C     C_R   0.319856 0.976210 0.502267 -0.191722
C14   C     C_R   0.167455 0.635528 0.379797 -0.410546
C15   C     C_R   0.831493 0.363240 0.619072 -0.400808
C16   C     C_R   0.511864 0.499441 0.350052 0.829438
C17   C     C_R   0.488982 0.502711 0.649988 0.835805
C18   C     C_R   0.255320 0.611052 0.397427 0.650138
C19   C     C_R   0.745391 0.390754 0.603831 0.629153
C20   C     C_R   0.205850 0.513864 0.492988 -0.135461
C21   C     C_R   0.794690 0.488115 0.508739 -0.120371
C22   C     C_R   0.114856 0.530500 0.471899 -0.034475
C23   C     C_R   0.591311 0.754966 0.539092 -0.213880
C24   C     C_R   0.885816 0.472222 0.530659 -0.043081
C25   C     C_R   0.098014 0.599321 0.420571 0.048806
C26   C     C_R   0.902012 0.401745 0.580446 0.049376
C27   C     C_R   0.041571 0.483225 0.502971 -0.010397
C28   C     C_R   0.959214 0.520057 0.500047 -0.012615
C29   C     C_R   0.952981 0.602809 0.465901 0.145973
C30   C     C_R   0.047310 0.399803 0.535568 0.128771
C31   C     C_R   0.014892 0.634131 0.415340 0.222579
C32   C     C_R   0.984927 0.366895 0.585063 0.227750
C33   C     C_R   0.525742 0.517400 0.269075 -0.006813
C34   C     C_R   0.406828 0.244549 0.491706 -0.253267
C35   C     C_R   0.487877 0.518602 0.734310 -0.008069
C36   C     C_R   0.500503 0.594390 0.236592 -0.165388
C37   C     C_R   0.547076 0.589524 0.776013 -0.205111
C38   C     C_R   0.518902 0.616340 0.161278 -0.158158
C39   C     C_R   0.541793 0.611269 0.855403 -0.132366
C40   C     C_R   0.560645 0.560057 0.117397 0.112255
C41   C     C_R   0.479166 0.560029 0.893932 0.106026
C42   C     C_R   0.589597 0.484954 0.151358 -0.153659
C43   C     C_R   0.418012 0.490450 0.851152 -0.150311
C44   C     C_R   0.572912 0.464014 0.227699 -0.222110
C45   C     C_R   0.705614 0.875016 0.605066 0.325229
C46   C     C_R   0.421666 0.470330 0.770801 -0.221310
C47   C     C_2   0.562947 0.572571 0.031680 0.300740
C48   C     C_2   0.482271 0.573452 0.981156 0.303330
C49   C     C_3   0.996248 0.709313 0.361994 -0.943350
C50   C     C_3   0.002703 0.289775 0.636074 -0.950740
C51   C     C_3   0.696351 0.363235 0.725222 0.091803
C52   C     C_3   0.686210 0.274158 0.761158 -0.880917
C53   C     C_3   0.331498 0.730310 0.340543 0.069533
C54   C     C_3   0.298856 0.743198 0.251194 -0.886009
C55   C     C_3   0.895173 0.666128 0.495424 -0.876474
C56   C     C_R   0.284136 0.121117 0.469705 0.353689
C57   C     C_3   0.103603 0.336906 0.503476 -0.842351
C58   C     C_3   0.346957 0.627883 0.979925 0.071520
C59   C     C_3   0.262964 0.623181 0.020220 -0.799046
C60   C     C_3   0.718209 0.616956 0.043663 0.080349
C61   C     C_3   0.796234 0.620873 0.995951 -0.822417
C62   C     C_3   0.259246 0.260479 0.339803 0.154538
C63   C     C_3   0.200278 0.324748 0.299081 -0.811625
C64   C     C_3   0.766491 0.722327 0.686674 0.164278
C65   C     C_3   0.785644 0.630686 0.707038 -0.888567
C66   C     C_3   0.851314 0.915115 0.583408 0.102496
C67   C     C_R   0.680053 0.784674 0.583135 0.359587
C68   C     C_3   0.950774 0.937774 0.625418 -0.854773
C69   C     C_3   0.141678 0.094917 0.501271 0.124943
C70   C     C_3   0.040134 0.076043 0.464729 -0.845300
C71   C     C_R   0.315012 0.209479 0.460603 0.361726
C72   C     C_R   0.527472 0.812553 0.525795 -0.364048
H1    H     H_    0.468209 0.638098 0.270228 0.172399
H2    H     H_    0.594861 0.405608 0.253712 0.145045
H3    H     H_    0.621838 0.441151 0.117568 0.157975
H4    H     H_    0.369188 0.450734 0.880502 0.163452
H5    H     H_    0.587817 0.666472 0.887435 0.136205
H6    H     H_    0.497633 0.675246 0.135811 0.125595
H7    H     H_    0.729923 0.047449 0.646616 0.187589
H8    H     H_    0.248897 0.947566 0.482183 0.179719
H9    H     H_    0.537791 0.218952 0.548054 0.224665
H10   H     H_    0.461471 0.789051 0.489852 0.183346
H11   H     H_    0.926671 0.727058 0.360085 0.249695
H12   H     H_    0.595606 0.628986 0.746421 0.130916
H13   H     H_    0.047225 0.768069 0.383877 0.242361
H14   H     H_    0.000446 0.690461 0.298594 0.237728
H15   H     H_    0.072805 0.273060 0.638602 0.245999
H16   H     H_    0.996397 0.305826 0.699544 0.239198
H17   H     H_    0.952630 0.231247 0.611509 0.242402
H18   H     H_    0.646886 0.401527 0.747006 0.191396
H19   H     H_    0.766149 0.399302 0.749719 0.116743
H20   H     H_    0.734232 0.233462 0.740283 0.244055
H21   H     H_    0.701909 0.282342 0.828205 0.227476
H22   H     H_    0.614760 0.240364 0.742354 0.262160
H23   H     H_    0.619468 0.144126 0.618930 0.173262
H24   H     H_    0.405098 0.758596 0.354903 0.162363
H25   H     H_    0.296090 0.768675 0.379524 0.116053
H26   H     H_    0.228434 0.708415 0.229756 0.254024
H27   H     H_    0.299383 0.813944 0.241784 0.223630
H28   H     H_    0.345560 0.717894 0.214463 0.248755
H29   H     H_    0.936510 0.731926 0.509327 0.242303
H30   H     H_    0.834021 0.671612 0.449043 0.237934
H31   H     H_    0.873612 0.647004 0.552836 0.275851
H32   H     H_    0.060929 0.272082 0.487928 0.249695
H33   H     H_    0.124680 0.357587 0.446196 0.275399
H34   H     H_    0.358035 0.852235 0.523329 0.143996
H35   H     H_    0.164844 0.329445 0.549014 0.235752
H36   H     H_    0.322732 0.615472 0.913636 0.151342
H37   H     H_    0.386336 0.694964 0.992404 0.123126
H38   H     H_    0.284438 0.633810 0.086753 0.261292
H39   H     H_    0.221165 0.674235 0.997635 0.200403
H40   H     H_    0.220436 0.557980 0.006229 0.256159
H41   H     H_    0.741387 0.591001 0.103476 0.155452
H42   H     H_    0.702963 0.684826 0.052554 0.121824
H43   H     H_    0.775335 0.647266 0.935979 0.246587
H44   H     H_    0.857535 0.664059 0.029470 0.204904
H45   H     H_    0.774813 0.530624 0.461387 0.178269
H46   H     H_    0.814249 0.554409 0.986913 0.258802
H47   H     H_    0.233149 0.194133 0.310393 0.159820
H48   H     H_    0.330936 0.280643 0.330121 0.111614
H49   H     H_    0.224181 0.391459 0.327955 0.267182
H50   H     H_    0.205350 0.325947 0.233986 0.208177
H51   H     H_    0.127420 0.304737 0.304446 0.245852
H52   H     H_    0.711968 0.738375 0.720077 0.107618
H53   H     H_    0.830203 0.768645 0.708994 0.191086
H54   H     H_    0.846394 0.615447 0.682620 0.246841
H55   H     H_    0.799491 0.626097 0.773705 0.206579
H56   H     H_    0.225769 0.471510 0.540519 0.177639
H57   H     H_    0.725514 0.581763 0.680936 0.281667
H58   H     H_    0.833741 0.968289 0.543082 0.137193
H59   H     H_    0.845220 0.853151 0.545955 0.169123
H60   H     H_    0.968800 0.887178 0.668318 0.259023
H61   H     H_    0.996684 0.940222 0.579960 0.209539
H62   H     H_    0.961330 0.002380 0.659087 0.255546
H63   H     H_    0.155568 0.161745 0.531529 0.149448
H64   H     H_    0.157228 0.046820 0.547648 0.126203
H65   H     H_    0.022396 0.007503 0.439136 0.249882
H66   H     H_    0.998433 0.085881 0.512037 0.206395
H67   H     H_    0.154245 0.683149 0.335593 0.177957
H68   H     H_    0.023625 0.120960 0.415860 0.267269
H69   H     H_    0.840845 0.310539 0.658897 0.176783
H70   H     H_    0.374133 0.416835 0.737515 0.133697
N1    N     N_R   0.271750 0.551950 0.454510 -0.143360
N2    N     N_R   0.728250 0.448050 0.545490 -0.139604
O1    O     O_R   0.615140 0.606020 0.522930 -0.568444
O2    O     O_3   0.324762 0.640050 0.354913 -0.590469
O3    O     O_3   0.400815 0.564648 0.011612 -0.617109
O4    O     O_3   0.641164 0.561489 0.000234 -0.626062
O5    O     O_3   0.254159 0.261336 0.422938 -0.593806
O6    O     O_3   0.741743 0.725869 0.601732 -0.606900
O7    O     O_3   0.794422 0.906998 0.642495 -0.629342
O8    O     O_3   0.193649 0.087498 0.439379 -0.604765
O9    O     O_R   0.384860 0.393980 0.477070 -0.577002
O10   O     O_R   0.468580 0.639400 0.493740 -0.606670
O11   O     O_R   0.531420 0.360600 0.506260 -0.582752
O12   O     O_R   0.581950 0.481350 0.400520 -0.629182
O13   O     O_R   0.418050 0.518650 0.599480 -0.621638
O14   O     O_R   0.435380 0.514730 0.371330 -0.563427
O15   O     O_R   0.564620 0.485270 0.628670 -0.604484
O16   O     O_3   0.674002 0.352676 0.639616 -0.602171
Zn1   Zn    Zn3+2 0.597860 0.477710 0.519490 0.976456
Zn2   Zn    Zn3+2 0.402140 0.522290 0.480510 0.980839

loop_
_geom_bond_atom_site_label_1
_geom_bond_atom_site_label_2
_ccdc_geom_bond_type
C25   C31   A    
C40   C47   S    
C66   C68   S    
C48   O3    S    
C26   C32   A    
C19   N2    A    
C62   O5    S    
N2    Zn1   S    
C7    C10   A    
C58   H37   S    
C14   C18   A    
C60   H42   S    
C12   O9    A    
C4    C8    A    
C33   C36   A    
C7    C8    A    
C39   C41   A    
C53   C54   S    
O11   Zn1   S    
C70   H68   S    
C55   H30   S    
C42   H3    S    
C19   O16   S    
C39   H5    S    
C17   C35   S    
C28   C29   A    
C35   C37   A    
C24   C26   A    
C20   H56   S    
C3    C7    A    
C51   H18   S    
C30   C57   S    
C55   H31   S    
C51   O16   S    
C59   H38   S    
C23   C67   A    
C68   H60   S    
C21   H45   S    
C51   H19   S    
C15   H69   S    
C1    O1    A    
C8    C9    A    
C69   O8    S    
C22   C25   A    
C45   C67   A    
C59   H39   S    
O15   Zn1   S    
C37   H12   S    
C52   H22   S    
C56   O8    S    
C17   O13   A    
C9    H23   S    
N1    Zn2   S    
C62   H48   S    
C50   H16   S    
C3    C5    A    
C2    C34   A    
C40   C42   A    
C13   H8    S    
C69   H63   S    
C67   O6    S    
C41   C43   A    
C20   N1    A    
C54   H28   S    
C60   H41   S    
C1    O10   A    
C42   C44   A    
C31   C49   S    
C49   H14   S    
C63   H49   S    
C57   H33   S    
C16   O14   A    
C51   C52   S    
C30   C32   A    
C49   H13   S    
C46   H70   S    
C58   O3    S    
C15   C26   A    
C38   H6    S    
C53   H25   S    
C58   C59   S    
C64   H52   S    
C5    C45   A    
C64   O6    S    
C60   C61   S    
C45   O7    S    
C15   C19   A    
C16   O12   A    
C62   C63   S    
C16   C33   S    
C50   H17   S    
C63   H51   S    
C47   C48   D    
C56   C71   A    
C61   H44   S    
C59   H40   S    
C52   H21   S    
C44   H2    S    
C9    C11   A    
C32   C50   S    
C62   H47   S    
C11   H7    S    
C50   H15   S    
C68   H61   S    
C4    C6    A    
C57   H35   S    
C20   C22   A    
O12   Zn1   S    
C70   H66   S    
C69   H64   S    
C22   C27   A    
C54   H27   S    
C10   H34   S    
C12   O11   A    
C12   C34   S    
C65   H55   S    
C63   H50   S    
C66   H59   S    
C43   H4    S    
C57   H32   S    
C47   O4    S    
C18   N1    A    
C61   H46   S    
C33   C44   A    
C23   C72   A    
O10   Zn2   S    
C24   C28   A    
C21   N2    A    
C6    C56   A    
C18   O2    S    
C10   C13   A    
C65   H57   S    
C5    C11   A    
C29   C55   S    
C55   H29   S    
C53   H24   S    
O9    Zn2   S    
C64   C65   S    
C49   H11   S    
C68   H62   S    
C3    C72   A    
C66   O7    S    
C37   C39   A    
C61   H43   S    
C65   H54   S    
C6    C13   A    
C38   C40   A    
C71   O5    S    
O1    Zn1   S    
C2    C4    A    
C34   C71   A    
C36   C38   A    
C53   O2    S    
C41   C48   S    
C1    C23   S    
C58   H36   S    
C14   C25   A    
C69   C70   S    
C17   O15   A    
C43   C46   A    
C52   H20   S    
C36   H1    S    
O14   Zn2   S    
C14   H67   S    
C70   H65   S    
C29   C31   A    
C64   H53   S    
C21   C24   A    
C27   C28   A    
C54   H26   S    
C2    H9    S    
C60   O4    S    
C66   H58   S    
C35   C46   A    
O13   Zn2   S    
C72   H10   S    
C27   C30   A    
