data_mof_unit_39183.cif
_audit_creation_date              2012-12-11T15:30:37-0500
_audit_creation_method            fapswitch 2.2
_symmetry_space_group_name_H-M    P1
_symmetry_Int_Tables_number       1
_space_group_crystal_system       triclinic
_cell_length_a                    6.990811
_cell_length_b                    20.417401
_cell_length_c                    24.412598
_cell_angle_alpha                 89.896119
_cell_angle_beta                  90.982402
_cell_angle_gamma                 88.927097
_cell_volume                      3483.38148934

loop_
_atom_site_label
_atom_site_type_symbol
_atom_type_description
_atom_site_fract_x
_atom_site_fract_y
_atom_site_fract_z
_atom_type_partial_charge
O1    O     O_R   0.507310 0.423620 0.460450 -0.518876
O2    O     O_R   0.170760 0.556060 0.437190 -0.534278
O3    O     O_R   0.004040 0.576380 0.539550 -0.543493
C1    C     C_R   0.337289 0.576253 0.421316 0.722638
O4    O     O_R   0.177350 0.422870 0.454070 -0.531395
O5    O     O_R   0.010680 0.442240 0.556560 -0.530863
C2    C     C_R   0.346319 0.399106 0.442988 0.864135
O6    O     O_R   0.500670 0.557760 0.443440 -0.527891
O7    O     O_3   0.340380 0.506510 0.533610 -0.384333
V1    V     V_3+5 0.064130 0.498790 0.493770 1.575706
O8    O     O_R   0.681170 0.443940 0.562810 -0.533306
C3    C     C_R   0.851877 0.423832 0.578498 0.717350
O9    O     O_R   0.674570 0.577130 0.545930 -0.544662
C4    C     C_R   0.842756 0.601007 0.556626 0.674076
V2    V     V_3+5 0.564560 0.501210 0.506230 1.568667
O10   O     O_3   0.838170 0.493490 0.466390 -0.354065
C5    C     C_R   0.979082 0.837738 0.911346 -0.209684
C6    C     C_R   0.851721 0.661821 0.589005 -0.058809
C7    C     C_R   0.046412 0.721036 0.907775 0.305687
C8    C     C_R   0.040676 0.779723 0.936800 -0.291229
C9    C     C_R   0.931997 0.837626 0.855099 0.620926
C10   C     C_R   0.965789 0.780705 0.822732 -0.053122
C11   C     C_R   0.005158 0.720783 0.850858 -0.023077
C12   C     C_R   0.953545 0.780377 0.763864 0.010932
C13   C     C_R   0.932925 0.719178 0.735607 0.011679
C14   C     C_R   0.955223 0.660818 0.766208 -0.149940
C15   C     C_R   0.999024 0.661811 0.821877 -0.073116
C16   C     C_R   0.977805 0.837629 0.731685 0.356986
C17   C     C_R   0.939319 0.836706 0.675550 -0.193326
C18   C     C_R   0.898145 0.778534 0.648320 0.046026
C19   C     C_R   0.900983 0.718294 0.677325 0.085269
C20   C     C_R   0.867809 0.779914 0.591293 -0.082539
C21   C     C_R   0.845304 0.722081 0.561951 -0.144275
C22   C     C_R   0.876259 0.659814 0.646311 -0.180971
H1    H     H_    0.022577 0.615211 0.842253 0.193053
H2    H     H_    0.877083 0.612000 0.665046 0.097467
H3    H     H_    0.826707 0.724241 0.517819 0.151465
H4    H     H_    0.955103 0.881459 0.652196 0.191613
H5    H     H_    0.079141 0.779778 0.980002 0.165773
H6    H     H_    0.948473 0.612995 0.747878 0.134469
H7    H     H_    0.866377 0.825930 0.569062 0.163306
C23   C     C_3   0.713937 0.238580 0.787618 0.700616
C24   C     C_3   0.069938 0.263078 0.798526 0.419731
C25   C     C_3   0.053669 0.312232 0.749844 -0.538006
H8    H     H_    0.216784 0.241045 0.799301 0.183889
H9    H     H_    0.022061 0.362341 0.765519 0.282397
H10   H     H_    0.193871 0.314997 0.729289 0.247832
C26   C     C_1   0.866629 0.378057 0.624017 -0.083733
C27   C     C_3   0.920893 0.207461 0.792086 -0.318331
C28   C     C_3   0.702879 0.290471 0.739935 1.048754
C29   C     C_3   0.895092 0.291569 0.708265 -0.305231
C30   C     C_3   0.942715 0.220527 0.687464 0.725252
C31   C     C_3   0.968128 0.172135 0.737087 0.024411
C32   C     C_1   0.879831 0.339321 0.661848 0.263050
C33   C     C_1   0.940994 0.160493 0.838697 0.236103
C34   C     C_1   0.956816 0.121925 0.876426 -0.075366
H11   H     H_    0.120340 0.155345 0.740041 0.153949
C35   C     C_3   0.540162 0.682311 0.252300 0.788630
C36   C     C_3   0.198290 0.721123 0.256976 0.054649
C37   C     C_3   0.236462 0.767959 0.208006 -0.496297
H12   H     H_    0.562449 0.710778 0.165035 0.172378
H13   H     H_    0.141744 0.674166 0.241214 0.206705
H14   H     H_    0.213729 0.740730 0.169036 0.194240
H15   H     H_    0.131720 0.809613 0.206833 0.247213
C38   C     C_1   0.481874 0.878596 0.125033 -0.109343
C39   C     C_3   0.383833 0.709187 0.292090 -0.156766
C40   C     C_3   0.580466 0.733464 0.206140 -0.396877
C41   C     C_3   0.443891 0.794127 0.210297 -0.090000
C42   C     C_3   0.482622 0.827492 0.267144 0.784828
C43   C     C_3   0.441323 0.778291 0.314936 0.112728
C44   C     C_1   0.470457 0.840587 0.163429 0.117928
C45   C     C_1   0.355017 0.661182 0.337867 0.199289
C46   C     C_1   0.342555 0.622258 0.375579 -0.048197
H16   H     H_    0.320502 0.798984 0.338160 0.162521
H17   H     H_    0.731619 0.749070 0.208594 0.243080
C47   C     C_R   0.464150 0.161628 0.089598 -0.241624
C48   C     C_R   0.349324 0.336603 0.412080 -0.309319
C49   C     C_R   0.414817 0.279287 0.090772 0.727787
C50   C     C_R   0.433029 0.220844 0.061915 -0.265120
C51   C     C_R   0.471957 0.160839 0.147536 0.323925
C52   C     C_R   0.422195 0.218844 0.177528 0.006740
C53   C     C_R   0.409834 0.278869 0.148324 -0.173975
C54   C     C_R   0.381585 0.219861 0.234960 -0.203716
C55   C     C_R   0.381883 0.280285 0.264608 -0.111433
C56   C     C_R   0.374462 0.339036 0.233533 0.749519
C57   C     C_R   0.385771 0.337748 0.176675 -0.152843
C58   C     C_R   0.307601 0.164757 0.261279 0.633610
C59   C     C_R   0.267812 0.165327 0.316820 0.663395
C60   C     C_R   0.299128 0.221460 0.349240 -0.331519
C61   C     C_R   0.362801 0.279674 0.323272 -0.125044
C62   C     C_R   0.260699 0.221929 0.406365 0.373254
C63   C     C_R   0.276695 0.280301 0.436403 0.126863
C64   C     C_R   0.403907 0.334865 0.357001 0.681031
H18   H     H_    0.371162 0.383710 0.154584 0.233944
H19   H     H_    0.427976 0.221962 0.017523 0.183069
O11   O     O_R   0.323590 0.942280 0.056590 -0.541072
O12   O     O_R   0.647030 0.077140 0.045940 -0.529770
O13   O     O_R   0.813570 0.057750 0.943430 -0.530967
C65   C     C_R   0.477528 0.100906 0.056886 0.790358
O14   O     O_R   0.653510 0.943950 0.062820 -0.534822
O15   O     O_R   0.820100 0.923600 0.960440 -0.530385
C66   C     C_R   0.486973 0.923895 0.078793 0.726338
O16   O     O_R   0.317060 0.076430 0.039590 -0.535888
O17   O     O_3   0.483830 0.993520 0.966410 -0.365398
V3    V     V_3+5 0.760140 0.001200 0.006230 1.578332
O18   O     O_R   0.149560 0.922820 0.954030 -0.543485
C67   C     C_R   0.981682 0.898997 0.943284 0.790188
O19   O     O_R   0.143080 0.056020 0.937150 -0.536356
C68   C     C_R   0.972337 0.076172 0.921656 0.736446
V4    V     V_3+5 0.259690 0.998730 0.993720 1.556190
O20   O     O_3   0.986120 0.006480 0.033580 -0.369903
F1    F     F_    0.664011 0.352632 0.760334 -0.648756
Br1   Br    Br    0.630952 0.276632 0.857233 -0.253450
F2    F     F_    0.048673 0.296079 0.847642 -0.564732
Br2   Br    Br    0.831162 0.090135 0.725591 -0.162236
F3    F     F_    0.796362 0.200358 0.652711 -0.516648
F4    F     F_    0.583910 0.189705 0.776604 -0.611751
F5    F     F_    0.553983 0.275670 0.704105 -0.580634
Br3   Br    Br    0.175863 0.217382 0.644515 -0.214418
Br4   Br    Br    0.467342 0.598959 0.218914 -0.370569
Br5   Br    Br    0.997891 0.758455 0.300776 -0.322806
Br6   Br    Br    0.624861 0.776906 0.375984 -0.306787
F6    F     F_    0.670685 0.847215 0.269996 -0.567458
F7    F     F_    0.705590 0.667811 0.281736 -0.594532
Br7   Br    Br    0.326185 0.907439 0.275208 -0.224582
F8    F     F_    0.506836 0.385679 0.338205 -0.610693
Br8   Br    Br    0.202860 0.283581 0.512140 -0.349732
F9    F     F_    0.188957 0.110441 0.337147 -0.536997
F10   F     F_    0.395155 0.336216 0.062170 -0.606034
Br9   Br    Br    0.594998 0.085602 0.182477 -0.332589
F11   F     F_    0.323143 0.397352 0.255918 -0.588544
F12   F     F_    0.241624 0.113289 0.231821 -0.578423
Br10  Br    Br    0.185235 0.144581 0.446022 -0.154755
Br11  Br    Br    0.117242 0.643262 0.948401 -0.407683
F13   F     F_    0.838605 0.890972 0.833774 -0.638476
Br12  Br    Br    0.120559 0.912479 0.756063 -0.351065

loop_
_geom_bond_atom_site_label_1
_geom_bond_atom_site_label_2
_ccdc_geom_bond_type
O15   C67   A    
C65   O16   A    
C58   C59   A    
C48   C63   A    
C36   Br5   S    
O11   C66   A    
C4    C6    S    
C54   C58   A    
C7    C8    A    
C47   C50   A    
C1    O6    A    
C52   C53   A    
C56   C57   A    
C47   C65   S    
C26   C32   T    
C14   C15   A    
O13   V3    S    
C37   H14   S    
C16   C17   A    
C49   F10   S    
C5    C67   S    
C24   F2    S    
O5    C3    A    
C18   C19   A    
O18   C67   A    
C42   F6    S    
V2    O10   S    
C5    C8    A    
O19   C68   A    
C49   C53   A    
C64   F8    S    
C57   H18   S    
O12   C65   A    
V4    O20   S    
O8    V2    S    
C35   C39   S    
C39   C45   S    
C41   C42   S    
C17   H4    S    
C43   H16   S    
C20   H7    S    
O1    V2    S    
C11   C15   A    
C60   C62   A    
O7    V1    S    
C25   H10   S    
C3    C26   S    
C2    C48   S    
O12   V3    S    
V3    O20   S    
C42   Br7   S    
C36   C37   S    
O13   C68   A    
C28   F5    S    
O9    C4    A    
C55   C61   A    
C38   C66   S    
O14   C66   A    
O17   V3    S    
C52   C54   A    
C25   H9    S    
C30   F3    S    
O15   V3    S    
C51   Br9   S    
C40   C41   S    
C18   C20   A    
C12   C16   A    
C12   C13   A    
C45   C46   T    
C62   C63   A    
O4    C2    A    
C8    H5    S    
C31   H11   S    
C49   C50   A    
C24   C27   S    
C15   H1    S    
C13   C14   A    
C53   C57   A    
O11   V4    S    
C21   H3    S    
C29   C30   S    
C7    Br11  S    
C58   F12   S    
C7    C11   A    
C24   C25   S    
C50   H19   S    
C17   C18   A    
C6    C22   A    
C43   Br6   S    
C23   Br1   S    
C54   C55   A    
C62   Br10  S    
C27   C33   S    
C33   C34   T    
C35   Br4   S    
C28   C29   S    
O14   V3    S    
C19   C22   A    
C55   C56   A    
C24   H8    S    
C1    C46   S    
O3    C4    A    
H12   C40   S    
C23   C28   S    
C25   C29   S    
O6    V2    S    
O16   V4    S    
C10   C12   A    
C40   H17   S    
O2    V1    S    
C63   Br8   S    
C34   C68   S    
C30   C31   S    
C61   C64   A    
O18   V4    S    
C36   H13   S    
C16   Br12  S    
C13   C19   A    
C47   C51   A    
C51   C52   A    
O5    V1    S    
O8    C3    A    
C23   F4    S    
C35   F7    S    
C37   H15   S    
C29   C32   S    
C20   C21   A    
O9    V2    S    
C28   F1    S    
O7    V2    S    
O4    V1    S    
C36   C39   S    
O3    V1    S    
C38   C44   T    
C56   F11   S    
O17   V4    S    
C14   H6    S    
C39   C43   S    
C41   C44   S    
C27   C31   S    
O2    C1    A    
C48   C64   A    
O19   V4    S    
C22   H2    S    
C42   C43   S    
C6    C21   A    
C5    C9    A    
C23   C27   S    
C30   Br3   S    
C35   C40   S    
C59   C60   A    
C37   C41   S    
C59   F9    S    
C10   C11   A    
O1    C2    A    
V1    O10   S    
C60   C61   A    
C9    C10   A    
C9    F13   S    
C31   Br2   S    
