data_mof_unit_50526.cif
_audit_creation_date              2013-03-05T16:19:45-0500
_audit_creation_method            fapswitch 2.2
_symmetry_space_group_name_H-M    P1
_symmetry_Int_Tables_number       1
_space_group_crystal_system       triclinic
_cell_length_a                    10.80095
_cell_length_b                    9.878882
_cell_length_c                    27.597602
_cell_angle_alpha                 88.505918
_cell_angle_beta                  87.971949
_cell_angle_gamma                 91.630987
_cell_volume                      2940.58245672

loop_
_atom_site_label
_atom_site_type_symbol
_atom_site_description
_atom_site_fract_x
_atom_site_fract_y
_atom_site_fract_z
_atom_type_partial_charge
O1    O     O_R   0.314910 0.616040 0.499990 -0.588030
O2    O     O_R   0.314910 0.383960 0.499990 -0.598931
C1    C     C_R   0.258421 0.498465 0.499693 0.823050
O3    O     O_R   0.500140 0.616020 0.428740 -0.604706
O4    O     O_R   0.500140 0.383980 0.428740 -0.622618
C2    C     C_R   0.496426 0.501061 0.406187 0.941237
Zn1   Zn    Zn3+2 0.500150 0.654960 0.499980 0.981244
Zn2   Zn    Zn3+2 0.500150 0.345040 0.499980 0.948771
O5    O     O_R   0.685320 0.616040 0.499970 -0.618472
O6    O     O_R   0.685320 0.383960 0.499970 -0.639575
O7    O     O_R   0.500090 0.616050 0.571230 -0.535817
O8    O     O_R   0.500090 0.383950 0.571230 -0.573014
C3    C     C_R   0.742451 0.501940 0.501942 0.820656
C4    C     C_R   0.496008 0.497914 0.593832 0.968814
C5    C     C_R   0.363106 0.458847 0.179038 0.521513
O9    O     O_2   0.259821 0.490126 0.204756 -0.559791
N1    N     N_R   0.474583 0.464349 0.200846 -0.320400
C6    C     C_R   0.583492 0.447262 0.175347 0.605987
C7    C     C_R   0.546059 0.586341 0.272213 0.414566
C8    C     C_R   0.556974 0.590043 0.323163 0.246326
C9    C     C_R   0.402360 0.404229 0.332693 0.062268
C10   C     C_R   0.406421 0.390168 0.282729 -0.215599
C11   C     C_R   0.476426 0.480535 0.252414 0.190988
C12   C     C_R   0.468836 0.417639 0.102255 -0.135341
C13   C     C_R   0.356557 0.423908 0.130110 -0.036732
C14   C     C_R   0.242663 0.393705 0.108095 0.212329
C15   C     C_R   0.584400 0.433799 0.124579 -0.052626
C16   C     C_R   0.482759 0.500875 0.353443 -0.135034
H1    H     H_    0.351074 0.310557 0.266915 0.185998
C17   C     C_R   0.480878 0.489720 0.646876 -0.182504
C18   C     C_R   0.349867 0.400427 0.977627 0.034469
C19   C     C_R   0.571226 0.355370 0.974117 0.002018
C20   C     C_R   0.461045 0.382299 0.950184 0.047195
C21   C     C_R   0.242183 0.433145 0.953379 -0.207113
C22   C     C_R   0.242356 0.450934 0.903142 0.203266
C23   C     C_R   0.354540 0.435535 0.875471 -0.045102
C24   C     C_R   0.462549 0.393269 0.899034 -0.137081
C25   C     C_R   0.572937 0.366324 0.871714 -0.098866
C26   C     C_R   0.570542 0.382820 0.820663 0.632224
N2    N     N_R   0.469609 0.434706 0.799397 -0.296515
C27   C     C_R   0.364099 0.462872 0.825167 0.622048
C28   C     C_R   0.398857 0.370045 0.720068 0.427514
C29   C     C_R   0.397826 0.391068 0.669370 0.007641
C30   C     C_R   0.552419 0.576823 0.675080 0.249636
C31   C     C_R   0.549404 0.557684 0.726034 0.315649
C32   C     C_R   0.472197 0.455255 0.747759 0.163060
O10   O     O_2   0.270183 0.518785 0.801577 -0.549115
C33   C     C_R   0.350787 0.391537 0.028900 0.020895
C34   C     C_R   0.465298 0.396702 0.051811 0.082530
C35   C     C_R   0.576218 0.384389 0.024080 0.019284
C36   C     C_R   0.241238 0.380427 0.057908 -0.217189
H2    H     H_    0.157439 0.453648 0.973383 0.139879
H3    H     H_    0.153357 0.357160 0.042085 0.139954
O11   O     O_2   0.689382 0.440464 0.199602 -0.543686
C37   C     C_R   0.695318 0.437788 0.095217 0.204646
C38   C     C_R   0.672676 0.303300 0.947286 0.171136
C39   C     C_R   0.679032 0.319989 0.896198 0.185344
O12   O     O_2   0.666566 0.346654 0.791783 -0.556443
C40   C     C_R   0.689052 0.414185 0.045696 -0.212277
H4    H     H_    0.773297 0.424911 0.023445 0.164376
C41   C     C_3   0.080912 0.645216 0.494323 -0.324727
C42   C     C_3   0.071655 0.440166 0.550656 -0.406436
H5    H     H_    0.130009 0.693897 0.461900 0.227874
H6    H     H_    0.101944 0.333778 0.554966 0.180910
H7    H     H_    0.115467 0.701072 0.525788 0.199286
H8    H     H_    0.116160 0.496568 0.580149 0.152294
C43   C     C_3   0.939800 0.654527 0.490221 0.380897
C44   C     C_3   0.927343 0.447943 0.554700 0.360285
H9    H     H_    0.104728 0.453597 0.424120 0.174758
H10   H     H_    0.103203 0.305511 0.463182 0.238568
H11   H     H_    0.892675 0.435972 0.427034 0.182327
H12   H     H_    0.894367 0.303118 0.469179 0.197892
C45   C     C_3   0.070927 0.411058 0.460040 -0.422370
C46   C     C_3   0.122308 0.497486 0.500937 0.017893
C47   C     C_3   0.880492 0.505736 0.503607 0.124067
C48   C     C_3   0.928797 0.408880 0.463090 -0.476690
C49   C     C_3   0.403326 0.078975 0.466799 0.237043
C50   C     C_3   0.393163 0.918314 0.472054 0.222881
H13   H     H_    0.431296 0.101763 0.428494 0.144037
H14   H     H_    0.394468 0.877113 0.435071 0.159328
C51   C     C_3   0.621299 0.086365 0.479026 -0.008904
C52   C     C_3   0.616246 0.925089 0.475543 -0.099774
C53   C     C_3   0.476016 0.073775 0.548836 0.187860
C54   C     C_3   0.490904 0.914114 0.549285 0.278744
N3    N     N_3   0.499750 0.138610 0.498940 -0.123750
N4    N     N_3   0.499750 0.861390 0.498940 -0.133932
H15   H     H_    0.378999 0.090636 0.560706 0.087593
H16   H     H_    0.407593 0.866946 0.568297 0.142281
H17   H     H_    0.695563 0.111471 0.504216 0.135218
H18   H     H_    0.694837 0.888034 0.495344 0.189623
C55   C     C_3   0.309230 0.315175 0.361578 -0.796437
H19   H     H_    0.217209 0.321030 0.345013 0.233231
H20   H     H_    0.338520 0.208507 0.360998 0.241908
H21   H     H_    0.295654 0.346482 0.399490 0.263039
O13   O     O_3   0.601597 0.683333 0.240997 -0.742041
H22   H     H_    0.613876 0.768180 0.258789 0.337985
C56   C     C_3   0.820990 0.473290 0.114370 -0.802625
H23   H     H_    0.817938 0.571017 0.133301 0.275503
H24   H     H_    0.849710 0.391238 0.139353 0.270872
H25   H     H_    0.893620 0.485215 0.084923 0.202520
C57   C     C_3   0.761965 0.209652 0.971900 -0.914384
H26   H     H_    0.854233 0.260466 0.975020 0.228805
H27   H     H_    0.726802 0.174424 0.008481 0.254851
H28   H     H_    0.772616 0.116422 0.950675 0.258326
O14   O     O_3   0.624596 0.678192 0.651970 -0.721980
H29   H     H_    0.631048 0.756115 0.673682 0.368137
C58   C     C_3   0.800080 0.291734 0.868964 -0.768213
H30   H     H_    0.832114 0.382838 0.847119 0.267138
H31   H     H_    0.877824 0.269818 0.892705 0.216621
H32   H     H_    0.787558 0.203009 0.845573 0.271799
O15   O     O_3   0.622717 0.633883 0.755693 -0.737648
H33   H     H_    0.699981 0.662471 0.737411 0.352779
C59   C     C_3   0.897110 0.773465 0.523408 -0.859269
H34   H     H_    0.894069 0.870879 0.502702 0.223969
H35   H     H_    0.807865 0.754198 0.543131 0.276702
H36   H     H_    0.961254 0.799728 0.552305 0.205334
C60   C     C_3   0.889644 0.536664 0.598166 -0.848753
H37   H     H_    0.791327 0.564968 0.596406 0.271625
H38   H     H_    0.900048 0.481504 0.633361 0.255670
H39   H     H_    0.949918 0.627931 0.600705 0.231493
C61   C     C_3   0.915428 0.695877 0.436179 -0.857030
H40   H     H_    0.979654 0.646971 0.410153 0.224220
H41   H     H_    0.822467 0.662949 0.425599 0.245515
H42   H     H_    0.929261 0.806264 0.428641 0.241701
C62   C     C_3   0.873304 0.304014 0.568826 -0.880205
H43   H     H_    0.892347 0.227127 0.541375 0.218652
H44   H     H_    0.915005 0.265471 0.602592 0.240442
H45   H     H_    0.772533 0.308156 0.576816 0.261640
O16   O     O_3   0.287482 0.139666 0.471575 -0.745778
H46   H     H_    0.258118 0.136902 0.505837 0.328412
O17   O     O_3   0.277818 0.872887 0.492531 -0.760824
H47   H     H_    0.258699 0.921201 0.522649 0.298382
C63   C     C_3   0.671435 0.157774 0.430798 -0.779575
H48   H     H_    0.616198 0.133873 0.398935 0.224823
H49   H     H_    0.681016 0.267609 0.431695 0.281062
H50   H     H_    0.767979 0.126944 0.423047 0.198866
C64   C     C_3   0.644394 0.874404 0.424172 -0.746563
H51   H     H_    0.573680 0.900846 0.397720 0.232122
H52   H     H_    0.735917 0.912641 0.409601 0.220722
H53   H     H_    0.655186 0.766069 0.426257 0.317320
O18   O     O_3   0.544193 0.135336 0.585165 -0.703016
H54   H     H_    0.631843 0.144570 0.574584 0.329145
O19   O     O_3   0.589773 0.870359 0.577264 -0.673773
H55   H     H_    0.664042 0.929474 0.570540 0.314786
C65   C     C_3   0.122398 0.367272 0.136759 -0.797894
H56   H     H_    0.051508 0.317564 0.114512 0.206100
H57   H     H_    0.136960 0.296985 0.167965 0.257955
H58   H     H_    0.084992 0.464052 0.149553 0.279893
C66   C     C_3   0.301644 0.315551 0.640832 -0.833943
H59   H     H_    0.289770 0.360533 0.604274 0.226835
H60   H     H_    0.327258 0.208247 0.637229 0.262779
H61   H     H_    0.209285 0.319808 0.659672 0.236239
O20   O     O_3   0.328728 0.268599 0.744452 -0.738203
H62   H     H_    0.304069 0.197949 0.721695 0.352853
C67   C     C_3   0.120031 0.483862 0.881063 -0.784691
H63   H     H_    0.097376 0.409361 0.853026 0.269077
H64   H     H_    0.041641 0.478794 0.908293 0.199851
H65   H     H_    0.124189 0.588451 0.865285 0.274378
O21   O     O_3   0.643618 0.673332 0.343963 -0.810638
H66   H     H_    0.712644 0.694243 0.320124 0.352401

loop_
_geom_bond_atom_site_label_1
_geom_bond_atom_site_label_2
_geom_bond_distance
_ccdc_geom_bond_type
C53   H15   1.105262 S    
C57   H26   1.110150 S    
C10   H1    1.084419 S    
C37   C40   1.396072 A    
C67   H64   1.111179 S    
C45   C46   1.542222 S    
O13   H22   0.990448 S    
C12   C15   1.418178 A    
H12   C48   1.105642 S    
C65   H58   1.109726 S    
C65   H56   1.109927 S    
C66   H59   1.104930 S    
C30   O14   1.380008 S    
C44   C47   1.610964 S    
Zn1   O7    1.993664 S    
C64   H52   1.106479 S    
N1    C11   1.437026 S    
C53   C54   1.589768 S    
O4    C2    1.301406 A    
C35   C40   1.402844 A    
C23   C24   1.423182 A    
C54   N4    1.497353 S    
C38   C57   1.520456 S    
Zn2   N3    2.040132 S    
C52   C64   1.538906 S    
C66   H60   1.109212 S    
H11   C48   1.110638 S    
O7    C4    1.307742 A    
C15   C37   1.421393 A    
C5    C13   1.406088 A    
Zn1   N4    2.038882 S    
O19   H55   0.987984 S    
C38   C39   1.414243 A    
C5    N1    1.365354 A    
C21   C22   1.392908 A    
C28   C32   1.399469 A    
C41   H5    1.114708 S    
C1    C46   1.469089 S    
O5    C3    1.301170 A    
C63   H48   1.106738 S    
C61   H42   1.109721 S    
C42   H6    1.114260 S    
C56   H24   1.108582 S    
C33   C36   1.404977 A    
C2    C16   1.468297 S    
C3    C47   1.492741 S    
C8    O21   1.378828 S    
C63   H50   1.109759 S    
C58   H30   1.110132 S    
C18   C20   1.415141 A    
H9    C45   1.111981 S    
C29   C66   1.516733 S    
C59   H36   1.105874 S    
C51   H17   1.106930 S    
C50   N4    1.505879 S    
C64   H51   1.106970 S    
C49   N3    1.508722 S    
C40   H4    1.080672 S    
C57   H27   1.109758 S    
C9    C10   1.388749 A    
C67   H65   1.109805 S    
C58   H31   1.105985 S    
C17   C30   1.408200 A    
C23   C27   1.406961 A    
C4    C17   1.467087 S    
O3    Zn1   2.013156 S    
C43   C61   1.569302 S    
C65   H57   1.110494 S    
C56   H23   1.110400 S    
C49   H13   1.104803 S    
C64   H53   1.080122 S    
C42   H8    1.113600 S    
C28   O20   1.384378 S    
C12   C13   1.416423 A    
O3    C2    1.309492 A    
C60   H39   1.102162 S    
C26   N2    1.362739 A    
C53   O18   1.405655 S    
C8    C16   1.410971 A    
C54   O19   1.410890 S    
C13   C14   1.418776 A    
C49   C50   1.590308 S    
C26   O12   1.347594 S    
C51   C52   1.598125 S    
O1    C1    1.296894 A    
C22   C23   1.423233 A    
C14   C65   1.509461 S    
C7    C11   1.403886 A    
C47   C48   1.575112 S    
C24   C25   1.423296 A    
C41   H7    1.110866 S    
C44   C60   1.553555 S    
C55   H20   1.109168 S    
C25   C39   1.430999 A    
C41   C43   1.537511 S    
O21   H66   0.990343 S    
Zn2   O8    2.013344 S    
C37   C56   1.509376 S    
H10   C45   1.111015 S    
N1    C6    1.366138 A    
C27   O10   1.348258 S    
C18   C21   1.403669 A    
C49   O16   1.406256 S    
C19   C35   1.418196 A    
C61   H40   1.110146 S    
N2    C27   1.361227 A    
C53   N3    1.513868 S    
C9    C16   1.417777 A    
O8    C4    1.302323 A    
C57   H28   1.110852 S    
C18   C33   1.415854 A    
C62   H43   1.105010 S    
C58   H32   1.110039 S    
C17   C29   1.420957 A    
C66   H61   1.110877 S    
C14   C36   1.395218 A    
C43   C47   1.615151 S    
C28   C29   1.409594 A    
N2    C32   1.433400 S    
O17   H47   0.987663 S    
C55   H19   1.110976 S    
C56   H25   1.111000 S    
C7    O13   1.381206 S    
C30   C31   1.413050 A    
C62   H44   1.112273 S    
C59   H34   1.108237 S    
C9    C55   1.509153 S    
C12   C34   1.414432 A    
Zn1   O5    2.047344 S    
C33   C34   1.409100 A    
O15   H33   0.989996 S    
C39   C58   1.521302 S    
O1    Zn1   2.026590 S    
C50   O17   1.406402 S    
O2    Zn2   2.048086 S    
C6    C15   1.410543 A    
C54   H16   1.110000 S    
C22   C67   1.514535 S    
O6    C3    1.306483 A    
O4    Zn2   1.993470 S    
C31   O15   1.381200 S    
C51   C63   1.562263 S    
C41   C46   1.546648 S    
O14   H29   0.990156 S    
C21   H2    1.078986 S    
C52   H18   1.092368 S    
C42   C44   1.562973 S    
C19   C20   1.409888 A    
C7    C8    1.416506 A    
C60   H38   1.112021 S    
O2    C1    1.300411 A    
O16   H46   0.986067 S    
C52   N4    1.507449 S    
O18   H54   0.981810 S    
C55   H21   1.104749 S    
C25   C26   1.415290 A    
C62   H45   1.104980 S    
C45   C48   1.533977 S    
C50   H14   1.108410 S    
C43   C59   1.577676 S    
C20   C24   1.412418 A    
C61   H41   1.098329 S    
C6    O11   1.347911 S    
C31   C32   1.401335 A    
Zn2   O6    2.025848 S    
C34   C35   1.408570 A    
C67   H63   1.110443 S    
C63   H49   1.088050 S    
C10   C11   1.395149 A    
C42   C46   1.546415 S    
C36   H3    1.080118 S    
O20   H62   0.988246 S    
C60   H37   1.108173 S    
C44   C62   1.556312 S    
C19   C38   1.417085 A    
C51   N3    1.514684 S    
C5    O9    1.348610 S    
C59   H35   1.099394 S    
