data_mof_unit_55460.cif
_audit_creation_date              2012-12-11T15:36:02-0500
_audit_creation_method            fapswitch 2.2
_symmetry_space_group_name_H-M    P1
_symmetry_Int_Tables_number       1
_space_group_crystal_system       triclinic
_cell_length_a                    7.035854
_cell_length_b                    11.904858
_cell_length_c                    35.874833
_cell_angle_alpha                 89.99996
_cell_angle_beta                  90.660525
_cell_angle_gamma                 89.999781
_cell_volume                      3004.70656899

loop_
_atom_site_label
_atom_site_type_symbol
_atom_type_description
_atom_site_fract_x
_atom_site_fract_y
_atom_site_fract_z
_atom_type_partial_charge
O1    O     O_R   0.379730 0.148600 0.662710 -0.543469
O2    O     O_R   0.620270 0.851400 0.337290 -0.541018
O3    O     O_R   0.120270 0.648600 0.337290 -0.543467
O4    O     O_R   0.879730 0.351400 0.662710 -0.541034
O5    O     O_R   0.722480 0.134490 0.741330 -0.544206
O6    O     O_R   0.277520 0.865510 0.258670 -0.531032
O7    O     O_R   0.777520 0.634490 0.258670 -0.544204
O8    O     O_R   0.222480 0.365510 0.741330 -0.531035
O9    O     O_R   0.892880 0.345890 0.741600 -0.523495
O10   O     O_R   0.107120 0.654110 0.258400 -0.530296
O11   O     O_R   0.607120 0.845890 0.258400 -0.523497
O12   O     O_R   0.392880 0.154110 0.741600 -0.530297
C1    C     C_R   0.552697 0.108139 0.752885 0.749977
C2    C     C_R   0.446425 0.885460 0.244971 0.726763
C3    C     C_R   0.947304 0.608139 0.247115 0.749975
C4    C     C_R   0.053575 0.385459 0.755029 0.726762
O13   O     O_R   0.709490 0.135560 0.662990 -0.543854
O14   O     O_R   0.290510 0.864440 0.337010 -0.542580
O15   O     O_R   0.790510 0.635560 0.337010 -0.543863
O16   O     O_R   0.209490 0.364440 0.662990 -0.542569
C5    C     C_R   0.540358 0.107655 0.651042 0.678567
C6    C     C_R   0.459642 0.892341 0.348959 0.686633
C7    C     C_R   0.959643 0.607659 0.348959 0.678571
C8    C     C_R   0.040361 0.392341 0.651041 0.686645
O17   O     O_3   0.552800 0.316610 0.702160 -0.365137
O18   O     O_3   0.447200 0.683390 0.297840 -0.375842
O19   O     O_3   0.947200 0.816610 0.297840 -0.365134
O20   O     O_3   0.052800 0.183390 0.702160 -0.375837
V1    V     V_3+5 0.827630 0.234380 0.702160 1.446295
V2    V     V_3+5 0.172370 0.765620 0.297840 1.459248
V3    V     V_3+5 0.672370 0.734380 0.297840 1.446301
V4    V     V_3+5 0.327630 0.265620 0.702160 1.459237
C9    C     C_R   0.977205 0.622235 0.923599 0.691951
C10   C     C_R   0.983948 0.303396 0.097724 0.711337
C11   C     C_R   0.522802 0.122245 0.076404 0.691948
C12   C     C_R   0.516069 0.803400 0.902276 0.711345
O21   O     O_2   0.929428 0.513753 0.928041 -0.451472
O22   O     O_2   0.987058 0.414692 0.090905 -0.436787
O23   O     O_2   0.570580 0.013763 0.071962 -0.451474
O24   O     O_2   0.512964 0.914695 0.909095 -0.436787
N1    N     N_R   0.021186 0.662171 0.888630 -0.571502
N2    N     N_R   0.967883 0.265115 0.133713 -0.545904
N3    N     N_R   0.478819 0.162182 0.111372 -0.571502
N4    N     N_R   0.532122 0.765117 0.866287 -0.545902
C13   C     C_R   0.064315 0.774264 0.884664 0.631794
C14   C     C_R   0.966187 0.151256 0.140462 0.575434
C15   C     C_R   0.435693 0.274276 0.115338 0.631783
C16   C     C_R   0.533811 0.651257 0.859538 0.575441
C17   C     C_R   0.942954 0.625670 0.821106 -0.098617
C18   C     C_R   0.075229 0.340352 0.195887 -0.078322
C19   C     C_R   0.557042 0.125679 0.178897 -0.098612
C20   C     C_R   0.424764 0.840357 0.804114 -0.078310
C21   C     C_R   0.951757 0.560132 0.788647 -0.142302
C22   C     C_R   0.078984 0.427372 0.222325 -0.210637
C23   C     C_R   0.548236 0.060138 0.211355 -0.142307
C24   C     C_R   0.421008 0.927377 0.777676 -0.210642
C25   C     C_R   0.120546 0.416966 0.822932 -0.150407
C26   C     C_R   0.827809 0.522545 0.188647 -0.203761
C27   C     C_R   0.379461 0.916972 0.177068 -0.150410
C28   C     C_R   0.672202 0.022540 0.811352 -0.203770
C29   C     C_R   0.106638 0.480710 0.855796 0.674472
C30   C     C_R   0.828453 0.438395 0.161754 0.700525
C31   C     C_R   0.393365 0.980720 0.144205 0.674472
C32   C     C_R   0.671559 0.938390 0.838244 0.700519
C33   C     C_R   0.021488 0.588596 0.855519 0.170472
C34   C     C_R   0.954740 0.346444 0.164186 0.218505
C35   C     C_R   0.478512 0.088607 0.144483 0.170474
C36   C     C_R   0.545262 0.846445 0.835814 0.218508
C37   C     C_R   0.017728 0.809114 0.950883 -0.237575
C38   C     C_R   0.990926 0.111819 0.073956 -0.205028
C39   C     C_R   0.482284 0.309123 0.049119 -0.237562
C40   C     C_R   0.509084 0.611823 0.926044 -0.205042
C41   C     C_R   0.975978 0.694426 0.955207 -0.195175
C42   C     C_R   0.002843 0.228193 0.067650 -0.232432
C43   C     C_R   0.524032 0.194435 0.044795 -0.195184
C44   C     C_R   0.497179 0.728197 0.932351 -0.232433
C45   C     C_R   0.931945 0.655020 0.991009 0.683739
C46   C     C_R   0.032054 0.267197 0.031329 0.662415
C47   C     C_R   0.568065 0.155027 0.008993 0.683736
C48   C     C_R   0.467985 0.767203 0.968672 0.662422
C49   C     C_R   0.064900 0.848875 0.915309 -0.088313
C50   C     C_R   0.963673 0.073067 0.110585 -0.097112
C51   C     C_R   0.435110 0.348886 0.084692 -0.088290
C52   C     C_R   0.536328 0.573069 0.889415 -0.097125
C53   C     C_R   0.043871 0.456080 0.789088 -0.116433
C54   C     C_R   0.955658 0.519442 0.218604 -0.143476
C55   C     C_R   0.456130 0.956084 0.210912 -0.116424
C56   C     C_R   0.544344 0.019443 0.781396 -0.143479
H1    H     H_    0.188945 0.335473 0.824079 0.167534
H2    H     H_    0.729033 0.591913 0.185609 0.177195
H3    H     H_    0.311066 0.835477 0.175921 0.167531
H4    H     H_    0.770987 0.091903 0.814388 0.177196
C57   C     C_R   0.971588 0.918179 0.049409 0.089463
C58   C     C_R   0.054832 0.999606 0.976824 0.082624
C59   C     C_R   0.528419 0.418184 0.950592 0.089465
C60   C     C_R   0.445180 0.499614 0.023176 0.082636
C61   C     C_R   0.039224 0.075766 0.007132 0.030442
C62   C     C_R   0.972325 0.842726 0.018248 0.024533
C63   C     C_R   0.460793 0.575773 0.992869 0.030432
C64   C     C_R   0.527687 0.342732 0.981753 0.024538
C65   C     C_R   0.002290 0.034749 0.043483 0.149799
C66   C     C_R   0.014450 0.884019 0.982107 0.158099
C67   C     C_R   0.497721 0.534754 0.956518 0.149791
C68   C     C_R   0.485562 0.384027 0.017895 0.158128
C69   C     C_R   0.936513 0.882146 0.086352 -0.098191
C70   C     C_R   0.111237 0.035444 0.941152 -0.177837
C71   C     C_R   0.563485 0.382149 0.913649 -0.098183
C72   C     C_R   0.388772 0.535455 0.058849 -0.177840
C73   C     C_R   0.932905 0.957528 0.116263 0.717044
C74   C     C_R   0.114786 0.962589 0.911085 0.835832
C75   C     C_R   0.567092 0.457529 0.883738 0.717033
C76   C     C_R   0.385223 0.462601 0.088916 0.835844
O25   O     O_2   0.966318 0.113172 0.175831 -0.508855
O26   O     O_2   0.107756 0.815013 0.850947 -0.497518
O27   O     O_2   0.533669 0.613174 0.824169 -0.508857
O28   O     O_2   0.392251 0.315026 0.149055 -0.497519
C77   C     C_R   0.931098 0.727031 0.021696 -0.270728
C78   C     C_R   0.051184 0.192999 0.001937 -0.289031
C79   C     C_R   0.568917 0.227038 0.978307 -0.270726
C80   C     C_R   0.448848 0.693006 0.998064 -0.289038
H5    H     H_    0.175358 0.421762 0.246013 0.130322
H6    H     H_    0.888287 0.591474 0.763039 0.122874
H7    H     H_    0.324627 0.921771 0.753989 0.130326
H8    H     H_    0.611702 0.091480 0.236964 0.122868
H9    H     H_    0.171283 0.270320 0.199770 0.191030
H10   H     H_    0.870942 0.705619 0.819172 0.171632
H11   H     H_    0.328703 0.770329 0.800232 0.191037
H12   H     H_    0.629052 0.205627 0.180832 0.171631
H13   H     H_    0.913343 0.795366 0.093370 0.143606
H14   H     H_    0.159080 0.119575 0.935504 0.147012
H15   H     H_    0.586645 0.295368 0.906630 0.143610
H16   H     H_    0.340924 0.619586 0.064496 0.147007
H17   H     H_    0.893675 0.688989 0.047820 0.182085
H18   H     H_    0.068289 0.231473 0.975034 0.184885
H19   H     H_    0.606344 0.188995 0.952183 0.182085
H20   H     H_    0.431755 0.731479 0.024968 0.184885
C81   C     C_R   0.966761 0.528619 0.379986 -0.030584
C82   C     C_R   0.033289 0.471382 0.620011 -0.033031
C83   C     C_R   0.533261 0.028605 0.620019 -0.030605
C84   C     C_R   0.466769 0.971356 0.379993 -0.032930
C85   C     C_R   0.910625 0.343310 0.404688 -0.167725
C86   C     C_R   0.089936 0.656606 0.595297 -0.168371
C87   C     C_R   0.589672 0.843346 0.595314 -0.167795
C88   C     C_R   0.411139 0.156715 0.404693 -0.168337
C89   C     C_R   0.920893 0.415815 0.374363 -0.184880
C90   C     C_R   0.079514 0.584126 0.625623 -0.182513
C91   C     C_R   0.579324 0.915843 0.625638 -0.184846
C92   C     C_R   0.421274 0.084204 0.374369 -0.182591
C93   C     C_R   0.001552 0.569394 0.415905 -0.218284
C94   C     C_R   0.998352 0.430636 0.584093 -0.219309
C95   C     C_R   0.498391 0.069352 0.584101 -0.218317
C96   C     C_R   0.501316 0.930543 0.415916 -0.219232
C97   C     C_R   0.986364 0.498547 0.447384 0.079555
C98   C     C_R   0.013851 0.501426 0.552609 0.080141
C99   C     C_R   0.513836 0.998548 0.552618 0.079578
C100  C     C_R   0.486349 0.001412 0.447394 0.080166
C101  C     C_R   0.940982 0.383757 0.441033 0.128171
C102  C     C_R   0.059473 0.616176 0.558955 0.128364
C103  C     C_R   0.559288 0.883778 0.558970 0.128152
C104  C     C_R   0.441305 0.116242 0.441039 0.128332
C105  C     C_R   0.010764 0.538213 0.484778 0.051922
C106  C     C_R   0.989537 0.461743 0.515214 0.051953
C107  C     C_R   0.489618 0.038235 0.515222 0.051950
C108  C     C_R   0.510679 0.961740 0.484789 0.051960
C109  C     C_R   0.945986 0.348114 0.507232 -0.195750
C110  C     C_R   0.054538 0.651806 0.492756 -0.195901
C111  C     C_R   0.554291 0.848128 0.492771 -0.195820
C112  C     C_R   0.446364 0.151899 0.507237 -0.195893
C113  C     C_R   0.922762 0.310336 0.470927 -0.197624
C114  C     C_R   0.077868 0.689567 0.529060 -0.197707
C115  C     C_R   0.577587 0.810369 0.529076 -0.197736
C116  C     C_R   0.423260 0.189686 0.470931 -0.197692
H21   H     H_    0.888310 0.222600 0.466241 0.140801
H22   H     H_    0.112542 0.777264 0.533743 0.140823
H23   H     H_    0.612148 0.722657 0.533762 0.140811
H24   H     H_    0.389068 0.277453 0.466242 0.140774
H25   H     H_    0.966075 0.342477 0.581880 0.098228
H26   H     H_    0.033438 0.657617 0.418125 0.098274
H27   H     H_    0.532860 0.842283 0.418138 0.098123
H28   H     H_    0.466170 0.157519 0.581887 0.098325
H29   H     H_    0.109155 0.615593 0.653426 0.105145
H30   H     H_    0.891410 0.384324 0.346555 0.104762
H31   H     H_    0.391982 0.115732 0.346560 0.105098
H32   H     H_    0.608876 0.884376 0.653445 0.104774
H33   H     H_    0.874802 0.255904 0.399807 0.127736
H34   H     H_    0.125997 0.743969 0.600173 0.127293
H35   H     H_    0.625600 0.755967 0.600194 0.127744
H36   H     H_    0.375608 0.244156 0.399810 0.127264
H37   H     H_    0.927731 0.285177 0.528399 0.129961
H38   H     H_    0.073036 0.714703 0.471588 0.129961
H39   H     H_    0.572727 0.785216 0.471605 0.129996
H40   H     H_    0.428309 0.214869 0.528400 0.129947
F1    F     F_    0.178522 0.435727 0.887526 -0.681207
F2    F     F_    0.707659 0.449505 0.132724 -0.659126
F3    F     F_    0.321479 0.935739 0.112475 -0.681211
F4    F     F_    0.792363 0.949495 0.867273 -0.659118
F5    F     F_    0.884790 0.546358 0.996761 -0.596424
F6    F     F_    0.048172 0.378006 0.023786 -0.601899
F7    F     F_    0.615208 0.046364 0.003242 -0.596413
F8    F     F_    0.451897 0.878012 0.976214 -0.601878
F9    F     F_    0.898557 0.915922 0.150786 -0.665594
F10   F     F_    0.170297 0.005049 0.877757 -0.612884
F11   F     F_    0.601430 0.415922 0.849214 -0.665593
F12   F     F_    0.329712 0.505062 0.122244 -0.612890

loop_
_geom_bond_atom_site_label_1
_geom_bond_atom_site_label_2
_ccdc_geom_bond_type
C91   H32   S    
C26   C30   A    
C63   C67   A    
C39   C68   A    
C48   C80   A    
O1    C5    A    
C76   F12   S    
O13   V1    S    
C86   C90   A    
O3    C7    A    
C107  C108  A    
C10   N2    A    
C88   C92   A    
C77   H17   S    
C84   C92   A    
C105  C106  A    
C28   C56   A    
C38   C65   A    
C37   C66   A    
C82   C94   A    
C87   C91   A    
C17   H10   S    
C116  H24   S    
C83   C91   A    
C18   C22   A    
C17   C33   A    
C19   H12   S    
C32   C36   A    
C81   C89   A    
O20   V1    S    
C46   C78   A    
O9    C4    A    
C2    C55   S    
C98   C102  A    
C45   C77   A    
C21   H6    S    
C114  H22   S    
O4    C8    A    
O11   C2    A    
C24   C56   A    
C90   H29   S    
C48   F8    S    
C60   C63   A    
C6    C84   S    
C64   C68   A    
N2    C14   A    
C83   C95   A    
C61   C78   A    
C93   C97   A    
C12   C44   A    
C57   C69   A    
C63   C80   A    
C14   C50   A    
C13   O26   S    
C113  H21   S    
C96   C100  A    
C59   C67   A    
C23   C55   A    
C47   C79   A    
C74   F10   S    
C38   C42   A    
C109  H37   S    
C37   C41   A    
O14   V2    S    
C15   C51   A    
C88   C104  A    
C11   N3    A    
C84   C96   A    
O5    C1    A    
O4    V1    S    
C20   C36   A    
O9    V1    S    
C101  C113  A    
O17   V4    S    
O7    C3    A    
C60   C72   A    
O15   V3    S    
O18   V3    S    
O8    C4    A    
O14   C6    A    
C59   C71   A    
O19   V2    S    
C109  C113  A    
C81   C93   A    
C71   C75   A    
C86   C102  A    
C26   C54   A    
O20   V4    S    
C20   H11   S    
O16   V4    S    
C39   C51   A    
C28   H4    S    
O17   V1    S    
C15   O28   S    
C86   H34   S    
C31   C35   A    
C52   C75   A    
O7    V3    S    
C30   C34   A    
C99   C103  A    
O8    V4    S    
C50   C73   A    
O16   C8    A    
C12   O24   S    
C47   F7    S    
C71   H15   S    
C103  C115  A    
C75   F11   S    
C22   C54   A    
C59   C64   A    
C102  C114  A    
C19   C35   A    
C58   C61   A    
C99   C107  A    
C62   C66   A    
O19   V3    S    
C89   H30   S    
O1    V4    S    
C79   H19   S    
C16   C52   A    
C37   C49   A    
C97   C105  A    
O2    V3    S    
C80   H20   S    
O3    V2    S    
C11   O23   S    
C24   H7    S    
O2    C6    A    
C29   C33   A    
O6    C2    A    
C106  C109  A    
C18   C34   A    
O10   V2    S    
C61   C65   A    
C100  C104  A    
C45   F5    S    
C11   C43   A    
C88   H36   S    
C104  C116  A    
C40   C44   A    
C64   C79   A    
C27   H3    S    
C49   C74   A    
C25   C29   A    
C26   H2    S    
C58   C66   A    
C40   C52   A    
C25   H1    S    
C10   C42   A    
C3    C54   S    
C85   C101  A    
O6    V2    S    
C22   H5    S    
O18   V2    S    
C95   C99   A    
C16   O27   S    
C94   C98   A    
C4    C53   S    
C31   F3    S    
N4    C36   S    
C85   H33   S    
C5    C83   S    
C57   C65   A    
O5    V1    S    
C29   F1    S    
O15   C7    A    
C62   C77   A    
C9    O21   S    
C18   H9    S    
C70   C74   A    
C72   C76   A    
C70   H14   S    
C69   C73   A    
C23   H8    S    
C58   C70   A    
C41   C45   A    
C14   O25   S    
O10   C3    A    
C10   O22   S    
C87   H35   S    
C7    C81   S    
C108  C111  A    
C13   C49   A    
C44   C48   A    
N3    C15   A    
C78   H18   S    
C98   C106  A    
C69   H13   S    
C87   C103  A    
C40   C67   A    
C85   C89   A    
C111  H39   S    
C27   C31   A    
C112  H40   S    
C111  C115  A    
C28   C32   A    
C8    C82   S    
C96   H27   S    
C60   C68   A    
C107  C112  A    
C9    N1    A    
N1    C33   S    
N1    C13   A    
C39   C43   A    
C95   H28   S    
C115  H23   S    
C82   C90   A    
C92   H31   S    
C17   C21   A    
C32   F4    S    
C1    C56   S    
C73   F9    S    
C93   H26   S    
C110  C114  A    
C25   C53   A    
C9    C41   A    
C19   C23   A    
C97   C101  A    
C38   C50   A    
C27   C55   A    
C72   H16   S    
C12   N4    A    
C105  C110  A    
O11   V3    S    
C20   C24   A    
C112  C116  A    
O12   C1    A    
C100  C108  A    
N3    C35   S    
C42   C46   A    
N2    C34   S    
C30   F2    S    
C51   C76   A    
C21   C53   A    
C46   F6    S    
C110  H38   S    
C43   C47   A    
C57   C62   A    
O12   V4    S    
N4    C16   A    
C94   H25   S    
O13   C5    A    
