data_mof_unit_43077.cif
_audit_creation_date              2012-12-10T20:25:45-0500
_audit_creation_method            fapswitch 2.2
_symmetry_space_group_name_H-M    P1
_symmetry_Int_Tables_number       1
_space_group_crystal_system       triclinic
_cell_length_a                    8.586132
_cell_length_b                    10.656332
_cell_length_c                    9.953365
_cell_angle_alpha                 87.380769
_cell_angle_beta                  97.962651
_cell_angle_gamma                 92.972655
_cell_volume                      900.022523013

loop_
_atom_site_label
_atom_site_type_symbol
_atom_type_description
_atom_site_fract_x
_atom_site_fract_y
_atom_site_fract_z
_atom_type_partial_charge
C1    C     C_R   0.519731 0.261134 0.504174 0.934686
C2    C     C_R   0.362598 0.474807 0.914420 -0.001655
C3    C     C_3   0.260139 0.356029 0.904265 0.646369
C4    C     C_R   0.201980 0.501504 0.464959 0.886485
C5    C     C_3   0.273361 0.346753 0.058385 0.579279
C6    C     C_R   0.511197 0.740441 0.498744 0.960960
C7    C     C_R   0.798087 0.507275 0.534113 0.846812
C8    C     C_2   0.037269 0.491852 0.448285 0.311364
C9    C     C_2   0.961899 0.531048 0.545942 0.307841
C10   C     C_R   0.573985 0.058165 0.630786 -0.197076
C11   C     C_R   0.572160 0.132525 0.511706 -0.125352
C12   C     C_R   0.599060 0.943564 0.390131 0.670780
C13   C     C_R   0.618620 0.075140 0.397548 0.038884
C14   C     C_3   0.094456 0.368124 0.826941 -0.748200
C15   C     C_3   0.121025 0.346677 0.121609 -0.693247
C16   C     C_3   0.693746 0.147274 0.287421 -0.640491
C17   C     C_3   0.575083 0.104098 0.876484 -0.669896
C18   C     C_R   0.553432 0.872627 0.501878 -0.241863
C19   C     C_R   0.566590 0.929987 0.625487 -0.167153
C20   C     C_3   0.473851 0.910302 0.741086 1.118863
C21   C     C_3   0.480330 0.052377 0.746693 0.626408
C22   C     C_R   0.365395 0.469534 0.057478 -0.106255
C23   C     C_R   0.628074 0.542935 0.084546 0.638445
C24   C     C_R   0.628731 0.541612 0.941678 0.590355
F1    F     F_    0.963202 0.427686 0.340741 -0.677975
F2    F     F_    0.758311 0.587604 0.163666 -0.550540
F3    F     F_    0.760268 0.583487 0.889525 -0.571068
F4    F     F_    0.335168 0.263140 0.855256 -0.583784
F5    F     F_    0.365870 0.249684 0.113381 -0.631544
F6    F     F_    0.034243 0.601384 0.649708 -0.603690
F7    F     F_    0.622156 0.887005 0.275274 -0.599478
F8    F     F_    0.323249 0.858647 0.704103 -0.576923
F9    F     F_    0.555794 0.847554 0.851713 -0.634063
F10   F     F_    0.332486 0.098444 0.708020 -0.547040
H1    H     H_    0.041051 0.455233 0.852072 0.275674
H2    H     H_    0.689337 0.058107 0.901697 0.215880
H3    H     H_    0.602819 0.206384 0.862915 0.245171
H4    H     H_    0.506737 0.086379 0.962763 0.300920
H5    H     H_    0.099956 0.365578 0.717185 0.257870
H6    H     H_    0.017658 0.285531 0.850888 0.219269
H7    H     H_    0.148607 0.322921 0.231334 0.299051
H8    H     H_    0.065202 0.438883 0.104734 0.267433
H9    H     H_    0.036775 0.271017 0.080331 0.214201
H10   H     H_    0.733309 0.244246 0.315785 0.260946
H11   H     H_    0.801132 0.100209 0.269722 0.245194
H12   H     H_    0.611673 0.148991 0.191515 0.287163
N1    N     N_R   0.498950 0.499140 0.142680 -0.165554
N2    N     N_R   0.498950 0.499180 0.857030 -0.168323
O1    O     O_R   0.500020 0.316790 0.614690 -0.571193
O2    O     O_R   0.500000 0.316760 0.385350 -0.591165
O3    O     O_R   0.271760 0.500010 0.587850 -0.584856
O4    O     O_R   0.271740 0.499970 0.358500 -0.602865
O5    O     O_R   0.500000 0.683240 0.614650 -0.543675
O6    O     O_R   0.499980 0.683210 0.385310 -0.555117
O7    O     O_R   0.728260 0.500030 0.641500 -0.569153
O8    O     O_R   0.728240 0.499990 0.412150 -0.546924
Zn1   Zn    Zn3+2 0.500010 0.500020 0.653130 1.119338
Zn2   Zn    Zn3+2 0.499990 0.499980 0.346870 1.100479

loop_
_geom_bond_atom_site_label_1
_geom_bond_atom_site_label_2
_ccdc_geom_bond_type
C16   H11   S    
C2    C22   A    
C23   C24   A    
O3    Zn1   S    
C17   H2    S    
C1    O2    A    
C16   H10   S    
C19   C20   S    
C1    C11   S    
C24   F3    S    
C7    O7    A    
C10   C19   A    
C4    C8    S    
C12   C18   A    
C22   N1    A    
C13   C16   S    
C15   H9    S    
N2    Zn1   S    
C12   F7    S    
C17   H3    S    
C12   C13   A    
N1    Zn2   S    
C8    F1    S    
C11   C13   A    
C3    C14   S    
O4    Zn2   S    
C7    O8    A    
C6    O6    A    
C20   F9    S    
C9    F6    S    
C3    F4    S    
O8    Zn2   S    
C2    C3    S    
C5    F5    S    
C17   H4    S    
O7    Zn1   S    
C10   C21   S    
O6    Zn2   S    
C6    C18   S    
C5    C15   S    
C23   N1    A    
C10   C11   A    
C6    O5    A    
C14   H6    S    
O2    Zn2   S    
O1    Zn1   S    
C20   C21   S    
C15   H7    S    
C18   C19   A    
C20   F8    S    
C23   F2    S    
C16   H12   S    
C14   H1    S    
C7    C9    S    
O5    Zn1   S    
C21   F10   S    
C4    O3    A    
C2    N2    A    
C14   H5    S    
C1    O1    A    
C4    O4    A    
C17   C21   S    
C5    C22   S    
C15   H8    S    
C8    C9    D    
C3    C5    S    
C24   N2    A    
