data_mof_unit_38948.cif
_audit_creation_date              2012-12-10T17:35:02-0500
_audit_creation_method            fapswitch 2.2
_symmetry_space_group_name_H-M    P1
_symmetry_Int_Tables_number       1
_space_group_crystal_system       triclinic
_cell_length_a                    12.338933
_cell_length_b                    13.104307
_cell_length_c                    13.850381
_cell_angle_alpha                 105.600622
_cell_angle_beta                  73.606893
_cell_angle_gamma                 116.535969
_cell_volume                      1895.33139107

loop_
_atom_site_label
_atom_site_type_symbol
_atom_type_description
_atom_site_fract_x
_atom_site_fract_y
_atom_site_fract_z
_atom_type_partial_charge
C1    C     C_R   0.144342 0.713858 0.504009 0.770220
C2    C     C_1   0.972911 0.504360 0.791528 -0.178110
C3    C     C_R   0.740582 0.970573 0.370792 -0.210168
C4    C     C_R   0.776362 0.162923 0.466123 -0.051747
C5    C     C_R   0.178157 0.925173 0.536125 0.003614
C6    C     C_R   0.259306 0.040385 0.557704 -0.184951
C7    C     C_R   0.385238 0.071277 0.540179 -0.210631
C8    C     C_R   0.436258 0.988701 0.492133 0.083509
C9    C     C_R   0.355381 0.872660 0.463220 0.071505
C10   C     C_R   0.565639 0.019393 0.466680 0.078714
C11   C     C_R   0.612868 0.938559 0.401958 0.156252
C12   C     C_R   0.983942 0.504206 0.686483 0.818611
C13   C     C_R   0.532259 0.828269 0.365877 -0.253702
C14   C     C_R   0.405783 0.796130 0.395050 -0.188348
C15   C     C_R   0.649856 0.129311 0.501903 -0.260208
C16   C     C_R   0.822105 0.082596 0.402132 -0.181551
C17   C     C_R   0.225880 0.837991 0.498564 -0.171317
C18   C     C_R   0.632408 0.666420 0.669246 -0.318136
C19   C     C_R   0.252703 0.351302 0.362971 0.076288
C20   C     C_R   0.351735 0.318457 0.332597 -0.257895
C21   C     C_R   0.450414 0.374389 0.384183 -0.196767
C22   C     C_R   0.451050 0.464206 0.467651 -0.009228
C23   C     C_R   0.856358 0.285784 0.485778 0.796651
C24   C     C_R   0.346775 0.494351 0.496553 0.281858
C25   C     C_R   0.550113 0.524253 0.524057 -0.045646
C26   C     C_R   0.540225 0.609555 0.610060 0.160185
C27   C     C_R   0.438370 0.637709 0.636856 -0.269907
C28   C     C_R   0.344630 0.582388 0.580832 -0.166748
C29   C     C_R   0.659200 0.503715 0.499547 0.010132
C30   C     C_R   0.736500 0.641763 0.641514 0.102216
C31   C     C_R   0.016275 0.495901 0.313378 0.809635
C32   C     C_1   0.026946 0.492747 0.207536 -0.186758
C33   C     C_2   0.046757 0.484245 0.011177 0.025611
C34   C     C_2   0.959412 0.498874 0.983251 -0.220443
C35   C     C_1   0.965040 0.502777 0.879418 -0.000633
C36   C     C_1   0.036962 0.489118 0.118039 -0.054610
Cu1   Cu    Cu3+1 0.899780 0.525060 0.522890 0.932857
Cu2   Cu    Cu3+1 0.100220 0.474940 0.477110 0.920472
H1    H     H_    0.883544 0.512008 0.040176 0.149916
H2    H     H_    0.348732 0.712725 0.358197 0.176740
H3    H     H_    0.808256 0.685998 0.686663 0.129701
H4    H     H_    0.430982 0.703723 0.702070 0.152637
H5    H     H_    0.624658 0.730610 0.735976 0.133877
H6    H     H_    0.674832 0.441041 0.435046 0.126466
H7    H     H_    0.176621 0.307329 0.322377 0.125512
H8    H     H_    0.524190 0.344903 0.357795 0.137188
H9    H     H_    0.351953 0.249272 0.268844 0.144248
H10   H     H_    0.271641 0.611365 0.607095 0.206012
H11   H     H_    0.920115 0.107431 0.373385 0.149560
H12   H     H_    0.567071 0.766926 0.313552 0.143775
H13   H     H_    0.777184 0.910038 0.319549 0.128391
H14   H     H_    0.619515 0.191617 0.556538 0.147763
H15   H     H_    0.440415 0.162471 0.557655 0.135127
H16   H     H_    0.225097 0.108151 0.586327 0.138995
N1    N     N_R   0.748810 0.563010 0.557590 -0.178615
N2    N     N_R   0.250540 0.437620 0.443020 -0.205879
O1    O     O_R   0.025040 0.682470 0.528790 -0.567202
O2    O     O_R   0.194310 0.640150 0.490130 -0.601611
O3    O     O_R   0.903380 0.524130 0.659910 -0.578418
O4    O     O_R   0.072660 0.481800 0.621240 -0.586197
O5    O     O_R   0.805690 0.359850 0.509870 -0.585497
O6    O     O_R   0.974960 0.317530 0.471210 -0.585903
O7    O     O_R   0.927340 0.518200 0.378760 -0.579584
O8    O     O_R   0.096620 0.475870 0.340090 -0.585700
C37   C     C_R   0.153200 0.465862 0.937345 0.152130
C38   C     C_R   0.274143 0.535615 0.953883 -0.158211
C39   C     C_R   0.374557 0.519711 0.884166 -0.145653
C40   C     C_R   0.355146 0.433479 0.797997 -0.092331
C41   C     C_R   0.235311 0.362832 0.781407 -0.135586
C42   C     C_R   0.134647 0.378265 0.850948 -0.134643
H17   H     H_    0.290774 0.603241 0.020002 0.126906
H18   H     H_    0.467513 0.574439 0.896830 0.128175
H19   H     H_    0.432941 0.421342 0.744116 0.132328
H20   H     H_    0.220364 0.295883 0.714773 0.124048
H21   H     H_    0.042320 0.321626 0.837578 0.128903
C43   C     C_R   0.047293 0.903060 0.543241 0.141267
C44   C     C_R   0.982384 0.948108 0.632068 -0.182844
C45   C     C_R   0.863637 0.937238 0.634636 -0.160399
C46   C     C_R   0.808359 0.880751 0.549048 -0.083457
C47   C     C_R   0.871513 0.834651 0.460832 -0.130772
C48   C     C_R   0.991140 0.847289 0.457191 -0.087479
H22   H     H_    0.024292 0.992751 0.698819 0.124567
H23   H     H_    0.814306 0.972377 0.703083 0.128209
H24   H     H_    0.715991 0.871529 0.551555 0.145165
H25   H     H_    0.828142 0.789772 0.394963 0.118676
H26   H     H_    0.040292 0.814063 0.387239 0.108872

loop_
_geom_bond_atom_site_label_1
_geom_bond_atom_site_label_2
_ccdc_geom_bond_type
C19   N2    A    
C2    C35   T    
C19   C20   A    
C18   C26   A    
C2    C12   S    
C33   C37   S    
C7    C8    A    
C44   C45   A    
C26   C27   A    
C47   H25   S    
C32   C36   T    
C34   C35   S    
C10   C15   A    
C5    C6    A    
C5    C17   A    
C37   C42   A    
C33   C36   S    
C39   H18   S    
Cu2   O2    S    
C12   O3    A    
C45   H23   S    
C23   O6    A    
C31   C32   S    
C40   C41   A    
C22   C25   A    
C30   H3    S    
C18   C30   A    
C48   H26   S    
C38   C39   A    
C13   C14   A    
C1    O2    A    
C6    H16   S    
Cu1   O7    S    
Cu2   O8    S    
C25   C29   A    
C39   C40   A    
C31   O7    A    
C16   H11   S    
C4    C23   S    
C3    H13   S    
C45   C46   A    
C8    C9    A    
C29   N1    A    
C25   C26   A    
C34   H1    S    
C12   O4    A    
C4    C16   A    
C9    C14   A    
Cu1   Cu2   S    
C1    O1    A    
C38   H17   S    
C33   C34   D    
C41   H20   S    
C15   H14   S    
C43   C44   A    
Cu1   O3    S    
Cu2   O4    S    
C9    C17   A    
C29   H6    S    
C22   C24   A    
C7    H15   S    
C42   H21   S    
C21   H8    S    
C28   H10   S    
C31   O8    A    
C24   C28   A    
C47   C48   A    
C43   C48   A    
Cu1   O5    S    
C19   H7    S    
C6    C7    A    
C24   N2    A    
C30   N1    A    
C1    C17   S    
C5    C43   S    
C40   H19   S    
C18   H5    S    
C11   C13   A    
C27   H4    S    
C46   H24   S    
C44   H22   S    
C4    C15   A    
C13   H12   S    
C41   C42   A    
C20   H9    S    
C3    C11   A    
C10   C11   A    
C14   H2    S    
C46   C47   A    
Cu1   N1    S    
C23   O5    A    
Cu2   N2    S    
C20   C21   A    
C8    C10   A    
C37   C38   A    
C27   C28   A    
C21   C22   A    
Cu1   O1    S    
C3    C16   A    
Cu2   O6    S    
