data_mof_unit_22476.cif
_audit_creation_date              2012-10-26T21:26:58-0400
_audit_creation_method            fapswitch 2.2
_symmetry_space_group_name_H-M    P1
_symmetry_Int_Tables_number       1
_space_group_crystal_system       monoclinic
_cell_length_a                    16.517324
_cell_length_b                    16.517324
_cell_length_c                    28.851426
_cell_angle_alpha                 89.999985
_cell_angle_beta                  90.0
_cell_angle_gamma                 90.0
_cell_volume                      7871.30351685

loop_
_atom_site_label
_atom_site_type_symbol
_atom_type_description
_atom_site_fract_x
_atom_site_fract_y
_atom_site_fract_z
_atom_type_partial_charge
C1    C     C_1   0.993510 0.128978 0.194334 0.042149
C2    C     C_3   1.000000 0.000000 0.750000 -0.014322
C3    C     C_3   0.808434 0.973667 0.126652 -0.356484
C4    C     C_3   0.050297 0.306096 0.754464 -0.019844
C5    C     C_3   0.107738 0.339583 0.717977 -0.381317
C6    C     C_3   0.306096 0.949703 0.745536 -0.019844
C7    C     C_3   0.339583 0.892262 0.782023 -0.381316
C8    C     C_3   0.889030 0.156926 0.367165 -0.017816
C9    C     C_3   0.973667 0.191565 0.373348 -0.356484
C10   C     C_3   0.156926 0.889030 0.867165 -0.017817
C11   C     C_3   0.191566 0.973667 0.873348 -0.356484
C12   C     C_3   0.949701 0.306095 0.245536 -0.019844
C13   C     C_R   0.996034 0.195205 0.161654 0.017157
C14   C     C_3   0.892259 0.339582 0.282023 -0.381317
C15   C     C_3   0.693904 0.949702 0.254464 -0.019844
C16   C     C_3   0.660417 0.892260 0.217977 -0.381317
C17   C     C_3   0.110970 0.156926 0.632834 -0.017816
C18   C     C_3   0.026333 0.191565 0.626652 -0.356483
C19   C     C_3   0.843074 0.110970 0.867165 -0.017816
C20   C     C_3   0.808434 0.026333 0.873348 -0.356484
C21   C     C_3   0.050298 0.693904 0.245536 -0.019845
C22   C     C_3   0.107740 0.660417 0.282023 -0.381316
C23   C     C_3   0.306095 0.050298 0.254464 -0.019844
C24   C     C_R   0.996034 0.804795 0.838346 0.017156
C25   C     C_3   0.339583 0.107740 0.217977 -0.381317
C26   C     C_3   0.889030 0.843074 0.632834 -0.017817
C27   C     C_3   0.973667 0.808434 0.626651 -0.356483
C28   C     C_R   0.804795 0.003966 0.661654 0.017156
C29   C     C_R   0.195205 0.003966 0.338346 0.017156
C30   C     C_R   0.003966 0.804795 0.161654 0.017156
C31   C     C_R   0.003966 0.195205 0.838346 0.017156
C32   C     C_R   0.195205 0.996034 0.661654 0.017156
C33   C     C_R   0.804795 0.996034 0.338346 0.017156
C34   C     C_R   0.000016 0.612037 0.938949 0.555283
C35   C     C_1   0.993510 0.871022 0.805666 0.042149
C36   C     C_R   0.000016 0.387963 0.061051 0.555283
C37   C     C_R   0.387963 0.999984 0.438949 0.555284
C38   C     C_R   0.612037 0.999984 0.561051 0.555283
C39   C     C_R   0.999984 0.387963 0.938949 0.555283
C40   C     C_R   0.999984 0.612037 0.061051 0.555283
C41   C     C_R   0.612037 0.000016 0.438949 0.555283
C42   C     C_R   0.387963 0.000015 0.561051 0.555283
C43   C     C_R   0.043613 0.187440 0.121527 0.243957
C44   C     C_R   0.951893 0.733675 0.830023 0.238984
C45   C     C_R   0.733675 0.048107 0.669977 0.238985
C46   C     C_1   0.871022 0.006490 0.694334 0.042149
C47   C     C_R   0.187440 0.956386 0.378473 0.243956
C48   C     C_R   0.956387 0.812560 0.121527 0.243957
C49   C     C_R   0.048107 0.266325 0.830023 0.238985
C50   C     C_R   0.266325 0.951893 0.669977 0.238985
C51   C     C_R   0.812560 0.043613 0.378473 0.243956
C52   C     C_R   0.043613 0.812560 0.878473 0.243957
C53   C     C_R   0.951892 0.266325 0.169977 0.238985
C54   C     C_R   0.733675 0.951892 0.330023 0.238985
C55   C     C_R   0.187440 0.043613 0.621527 0.243957
C56   C     C_R   0.956387 0.187440 0.878473 0.243957
C57   C     C_1   0.128978 0.006490 0.305666 0.042149
C58   C     C_R   0.048107 0.733675 0.169977 0.238985
C59   C     C_R   0.266325 0.048108 0.330023 0.238985
C60   C     C_R   0.812560 0.956387 0.621527 0.243957
C61   C     C_R   0.046694 0.251006 0.088830 -0.032469
C62   C     C_R   0.951456 0.670910 0.863339 -0.028060
C63   C     C_R   0.670910 0.048543 0.636661 -0.028060
C64   C     C_R   0.251006 0.953305 0.411170 -0.032469
C65   C     C_R   0.953306 0.748994 0.088830 -0.032469
C66   C     C_R   0.048543 0.329091 0.863339 -0.028060
C67   C     C_R   0.329091 0.951457 0.636661 -0.028060
C68   C     C_1   0.006490 0.871022 0.194334 0.042149
C69   C     C_R   0.748994 0.046694 0.411170 -0.032469
C70   C     C_R   0.046694 0.748994 0.911170 -0.032469
C71   C     C_R   0.951456 0.329090 0.136661 -0.028060
C72   C     C_R   0.670909 0.951456 0.363339 -0.028060
C73   C     C_R   0.251006 0.046694 0.588830 -0.032469
C74   C     C_R   0.953306 0.251006 0.911170 -0.032469
C75   C     C_R   0.048543 0.670909 0.136661 -0.028060
C76   C     C_R   0.329090 0.048544 0.363339 -0.028060
C77   C     C_R   0.748994 0.953306 0.588830 -0.032469
C78   C     C_R   0.999913 0.322088 0.096155 -0.046353
C79   C     C_1   0.006490 0.128978 0.805666 0.042149
C80   C     C_R   0.999913 0.677912 0.903845 -0.046353
C81   C     C_R   0.677912 0.000087 0.596155 -0.046353
C82   C     C_R   0.322088 0.000087 0.403845 -0.046353
C83   C     C_R   0.000087 0.677912 0.096155 -0.046353
C84   C     C_R   0.000087 0.322088 0.903845 -0.046353
C85   C     C_R   0.322088 0.999913 0.596155 -0.046353
C86   C     C_R   0.677912 0.999913 0.403845 -0.046353
C87   C     C_1   0.995168 0.071815 0.220331 -0.005458
C88   C     C_1   0.995168 0.928185 0.779669 -0.005457
C89   C     C_1   0.928185 0.004832 0.720331 -0.005458
C90   C     C_1   0.128978 0.993510 0.694334 0.042149
C91   C     C_1   0.071815 0.004832 0.279669 -0.005457
C92   C     C_1   0.004832 0.928185 0.220331 -0.005457
C93   C     C_1   0.004832 0.071815 0.779669 -0.005457
C94   C     C_1   0.071815 0.995168 0.720331 -0.005457
C95   C     C_1   0.928185 0.995167 0.279669 -0.005456
C96   C     C_3   0.099014 0.242069 0.045994 -0.352153
C97   C     C_3   0.900154 0.596194 0.855245 -0.356932
C98   C     C_3   0.596194 0.099845 0.644755 -0.356932
C99   C     C_3   0.242069 0.900985 0.454006 -0.352153
C100  C     C_3   0.900986 0.757931 0.045994 -0.352154
C101  C     C_1   0.871022 0.993510 0.305666 0.042150
C102  C     C_3   0.099845 0.403806 0.855244 -0.356932
C103  C     C_3   0.403806 0.900154 0.644755 -0.356932
C104  C     C_3   0.757931 0.099014 0.454006 -0.352153
C105  C     C_3   0.099014 0.757931 0.954006 -0.352154
C106  C     C_3   0.900154 0.403806 0.144755 -0.356932
C107  C     C_3   0.596194 0.900154 0.355245 -0.356932
C108  C     C_3   0.242068 0.099014 0.545994 -0.352153
C109  C     C_3   0.900986 0.242068 0.954006 -0.352153
C110  C     C_3   0.099846 0.596194 0.144755 -0.356932
C111  C     C_3   0.403806 0.099846 0.355245 -0.356932
C112  C     C_3   1.000000 1.000000 0.250000 -0.014322
C113  C     C_3   0.757931 0.900986 0.545994 -0.352154
C114  C     C_3   0.156926 0.110970 0.132835 -0.017816
C115  C     C_3   0.191566 0.026333 0.126652 -0.356484
C116  C     C_3   0.949703 0.693904 0.754464 -0.019843
C117  C     C_3   0.892261 0.660417 0.717977 -0.381317
C118  C     C_3   0.693904 0.050297 0.745536 -0.019845
C119  C     C_3   0.660417 0.107739 0.782023 -0.381317
C120  C     C_3   0.110971 0.843073 0.367165 -0.017817
C121  C     C_3   0.026336 0.808431 0.373350 -0.356485
C122  C     C_3   0.843074 0.889029 0.132834 -0.017816
Cu1   Cu    Cu3+1 0.919200 0.500000 0.000000 0.876427
Cu2   Cu    Cu3+1 0.080800 0.500000 0.000000 0.876427
Cu3   Cu    Cu3+1 0.500000 0.919200 0.500000 0.876427
Cu4   Cu    Cu3+1 0.500000 0.080800 0.500000 0.876427
H1    H     H_    0.122874 0.179858 0.041394 0.171346
H2    H     H_    0.179858 0.877125 0.458605 0.171347
H3    H     H_    0.642939 0.989011 0.266330 0.116864
H4    H     H_    0.612695 0.853321 0.233398 0.147941
H5    H     H_    0.633452 0.927412 0.189045 0.089653
H6    H     H_    0.709487 0.853136 0.204240 0.148803
H7    H     H_    0.155256 0.198610 0.616211 0.118375
H8    H     H_    0.123860 0.153644 0.670677 0.129895
H9    H     H_    0.981356 0.152142 0.644281 0.177029
H10   H     H_    0.023041 0.253115 0.641852 0.082750
H11   H     H_    0.011220 0.195367 0.589204 0.163621
H12   H     H_    0.846356 0.123859 0.829322 0.129896
H13   H     H_    0.283655 0.848402 0.451543 0.132979
H14   H     H_    0.801390 0.155256 0.883788 0.118375
H15   H     H_    0.804632 0.011222 0.910796 0.163621
H16   H     H_    0.746884 0.023042 0.858148 0.082750
H17   H     H_    0.847858 0.981355 0.855720 0.177029
H18   H     H_    0.010989 0.642939 0.233670 0.116864
H19   H     H_    0.011662 0.741256 0.261736 0.137882
H20   H     H_    0.146863 0.709487 0.295760 0.148802
H21   H     H_    0.072588 0.633452 0.310955 0.089653
H22   H     H_    0.146679 0.612695 0.266602 0.147941
H23   H     H_    0.258744 0.011663 0.238264 0.137882
H24   H     H_    0.256654 0.935940 0.485653 0.134634
H25   H     H_    0.357061 0.010989 0.266330 0.116864
H26   H     H_    0.387305 0.146680 0.233398 0.147941
H27   H     H_    0.366548 0.072589 0.189045 0.089653
H28   H     H_    0.290512 0.146864 0.204240 0.148803
H29   H     H_    0.844744 0.801391 0.616212 0.118375
H30   H     H_    0.876141 0.846356 0.670678 0.129896
H31   H     H_    0.018645 0.847858 0.644280 0.177029
H32   H     H_    0.976958 0.746884 0.641852 0.082750
H33   H     H_    0.988778 0.804632 0.589203 0.163621
H34   H     H_    0.877126 0.820142 0.041394 0.171347
H35   H     H_    0.935940 0.743345 0.014347 0.134634
H36   H     H_    0.848402 0.716345 0.048456 0.132979
H37   H     H_    0.128988 0.404762 0.820684 0.161340
H38   H     H_    0.061888 0.459027 0.857936 0.107423
H39   H     H_    0.149201 0.406511 0.881265 0.154186
H40   H     H_    0.404762 0.871012 0.679316 0.161340
H41   H     H_    0.064060 0.256655 0.014347 0.134634
H42   H     H_    0.406511 0.850799 0.618735 0.154185
H43   H     H_    0.459027 0.938112 0.642064 0.107422
H44   H     H_    0.820142 0.122874 0.458605 0.171347
H45   H     H_    0.716345 0.151597 0.451543 0.132979
H46   H     H_    0.743346 0.064060 0.485653 0.134634
H47   H     H_    0.122874 0.820142 0.958606 0.171347
H48   H     H_    0.064060 0.743345 0.985653 0.134634
H49   H     H_    0.151597 0.716345 0.951543 0.132979
H50   H     H_    0.871011 0.404762 0.179316 0.161339
H51   H     H_    0.938111 0.459027 0.142064 0.107423
H52   H     H_    0.151598 0.283655 0.048457 0.132979
H53   H     H_    0.850799 0.406511 0.118734 0.154186
H54   H     H_    0.595238 0.871012 0.320684 0.161339
H55   H     H_    0.593488 0.850799 0.381265 0.154186
H56   H     H_    0.540973 0.938112 0.357936 0.107423
H57   H     H_    0.179858 0.122874 0.541394 0.171346
H58   H     H_    0.283654 0.151597 0.548456 0.132979
H59   H     H_    0.256654 0.064060 0.514347 0.134634
H60   H     H_    0.877126 0.179858 0.958606 0.171346
H61   H     H_    0.935940 0.256654 0.985653 0.134634
H62   H     H_    0.848403 0.283655 0.951543 0.132979
H63   H     H_    0.871012 0.595238 0.820684 0.161339
H64   H     H_    0.128988 0.595238 0.179316 0.161339
H65   H     H_    0.061888 0.540973 0.142064 0.107423
H66   H     H_    0.149201 0.593488 0.118735 0.154186
H67   H     H_    0.404762 0.128989 0.320684 0.161339
H68   H     H_    0.406511 0.149201 0.381265 0.154186
H69   H     H_    0.459027 0.061889 0.357936 0.107423
H70   H     H_    0.820142 0.877126 0.541394 0.171347
H71   H     H_    0.716345 0.848403 0.548456 0.132979
H72   H     H_    0.743346 0.935940 0.514347 0.134634
H73   H     H_    0.153644 0.123859 0.170678 0.129896
H74   H     H_    0.938111 0.540973 0.857936 0.107423
H75   H     H_    0.198610 0.155256 0.116212 0.118375
H76   H     H_    0.195368 0.011222 0.089204 0.163621
H77   H     H_    0.253116 0.023042 0.141852 0.082750
H78   H     H_    0.152142 0.981355 0.144280 0.177029
H79   H     H_    0.989012 0.642939 0.766330 0.116864
H80   H     H_    0.988338 0.741256 0.738264 0.137882
H81   H     H_    0.853137 0.709487 0.704240 0.148803
H82   H     H_    0.927413 0.633452 0.689045 0.089653
H83   H     H_    0.853322 0.612695 0.733398 0.147941
H84   H     H_    0.741256 0.011662 0.761736 0.137882
H85   H     H_    0.850799 0.593489 0.881265 0.154185
H86   H     H_    0.642939 0.010988 0.733670 0.116864
H87   H     H_    0.612695 0.146678 0.766602 0.147941
H88   H     H_    0.633452 0.072587 0.810955 0.089654
H89   H     H_    0.709487 0.146862 0.795760 0.148803
H90   H     H_    0.155259 0.801391 0.383787 0.118374
H91   H     H_    0.123857 0.846356 0.329322 0.129897
H92   H     H_    0.981355 0.847854 0.355723 0.177029
H93   H     H_    0.023045 0.746881 0.358150 0.082750
H94   H     H_    0.011227 0.804628 0.410799 0.163620
H95   H     H_    0.846356 0.876140 0.170678 0.129895
H96   H     H_    0.595238 0.128988 0.679316 0.161339
H97   H     H_    0.801390 0.844744 0.116211 0.118375
H98   H     H_    0.804632 0.988779 0.089204 0.163622
H99   H     H_    0.746884 0.976958 0.141852 0.082750
H100  H     H_    0.847858 0.018644 0.144281 0.177029
H101  H     H_    0.010988 0.357061 0.766330 0.116864
H102  H     H_    0.011662 0.258744 0.738264 0.137882
H103  H     H_    0.146862 0.290513 0.704240 0.148803
H104  H     H_    0.072587 0.366548 0.689045 0.089653
H105  H     H_    0.146678 0.387306 0.733398 0.147941
H106  H     H_    0.258744 0.988338 0.761736 0.137882
H107  H     H_    0.593488 0.149201 0.618735 0.154186
H108  H     H_    0.357061 0.989012 0.733670 0.116864
H109  H     H_    0.387306 0.853322 0.766602 0.147941
H110  H     H_    0.366548 0.927413 0.810955 0.089653
H111  H     H_    0.290513 0.853138 0.795760 0.148803
H112  H     H_    0.844744 0.198610 0.383788 0.118375
H113  H     H_    0.876140 0.153644 0.329322 0.129895
H114  H     H_    0.018644 0.152142 0.355719 0.177029
H115  H     H_    0.976958 0.253115 0.358147 0.082750
H116  H     H_    0.988779 0.195368 0.410796 0.163621
H117  H     H_    0.153644 0.876141 0.829322 0.129896
H118  H     H_    0.540973 0.061888 0.642064 0.107422
H119  H     H_    0.198610 0.844744 0.883788 0.118375
H120  H     H_    0.195368 0.988778 0.910796 0.163621
H121  H     H_    0.253116 0.976958 0.858148 0.082750
H122  H     H_    0.152142 0.018645 0.855720 0.177029
H123  H     H_    0.989010 0.357061 0.233670 0.116864
H124  H     H_    0.988337 0.258744 0.261736 0.137882
H125  H     H_    0.853135 0.290512 0.295760 0.148803
H126  H     H_    0.927410 0.366547 0.310955 0.089653
H127  H     H_    0.853320 0.387305 0.266602 0.147941
H128  H     H_    0.741256 0.988337 0.238264 0.137882
O1    O     O_R   0.931980 0.584070 0.954320 -0.504642
O2    O     O_R   0.068020 0.584070 0.954320 -0.505854
O3    O     O_R   0.415930 0.068020 0.545680 -0.505854
O4    O     O_R   0.584070 0.931980 0.454320 -0.504642
O5    O     O_R   0.068020 0.584070 0.045680 -0.504642
O6    O     O_R   0.931980 0.415930 0.954320 -0.505854
O7    O     O_R   0.584070 0.931980 0.545680 -0.505854
O8    O     O_R   0.415930 0.068020 0.454320 -0.504642
O9    O     O_3   0.079847 0.113763 0.111795 -0.539493
O10   O     O_3   0.903759 0.728043 0.790886 -0.560010
O11   O     O_3   0.728043 0.096241 0.709114 -0.560010
O12   O     O_R   0.068020 0.415930 0.045680 -0.505854
O13   O     O_3   0.113763 0.920152 0.388205 -0.539493
O14   O     O_3   0.920153 0.886237 0.111795 -0.539493
O15   O     O_3   0.096241 0.271957 0.790886 -0.560010
O16   O     O_3   0.271957 0.903759 0.709114 -0.560010
O17   O     O_3   0.886237 0.079847 0.388205 -0.539493
O18   O     O_3   0.079847 0.886237 0.888205 -0.539493
O19   O     O_3   0.903758 0.271957 0.209114 -0.560009
O20   O     O_3   0.728043 0.903759 0.290886 -0.560010
O21   O     O_3   0.113763 0.079847 0.611795 -0.539493
O22   O     O_3   0.920153 0.113763 0.888205 -0.539493
O23   O     O_R   0.415930 0.931980 0.454320 -0.505854
O24   O     O_3   0.096241 0.728043 0.209114 -0.560010
O25   O     O_3   0.271957 0.096242 0.290886 -0.560009
O26   O     O_3   0.886237 0.920153 0.611795 -0.539493
O27   O     O_R   0.584070 0.068020 0.545680 -0.504642
O28   O     O_R   0.068020 0.415930 0.954320 -0.504642
O29   O     O_R   0.931980 0.584070 0.045680 -0.505854
O30   O     O_R   0.584070 0.068020 0.454320 -0.505854
O31   O     O_R   0.415930 0.931980 0.545680 -0.504642
O32   O     O_R   0.931980 0.415930 0.045680 -0.504642

loop_
_geom_bond_atom_site_label_1
_geom_bond_atom_site_label_2
_ccdc_geom_bond_type
C1    C87   T    
Cu4   O27   S    
C40   O29   A    
C24   C52   A    
C3    H98   S    
C59   O25   S    
C107  H54   S    
C2    C89   S    
C121  H92   S    
C66   C102  S    
C26   H30   S    
C19   C20   S    
C20   H17   S    
C36   O32   A    
Cu2   O2    S    
C41   O30   A    
C9    H115  S    
C74   C109  S    
C26   O26   S    
C114  C115  S    
C61   C96   S    
C122  O14   S    
Cu1   Cu2   S    
C46   C89   T    
C122  H97   S    
C109  H61   S    
C27   H32   S    
C119  H89   S    
C41   C86   S    
C64   C82   A    
C28   C46   S    
C26   C27   S    
C63   C81   A    
C25   H26   S    
C33   C101  S    
C11   H122  S    
C30   C48   A    
C39   C84   S    
C79   C93   T    
C8    O17   S    
C51   O17   S    
C95   C112  S    
C19   H12   S    
C69   C104  S    
C14   H126  S    
C48   O14   S    
C39   O28   A    
C27   H33   S    
C15   C16   S    
C118  O11   S    
C115  H76   S    
C6    H106  S    
C110  H65   S    
C4    O15   S    
C7    H109  S    
C12   H124  S    
C116  C117  S    
Cu4   O8    S    
C118  H86   S    
C4    H101  S    
C110  H66   S    
C16   H5    S    
C118  C119  S    
C38   O27   A    
C34   C80   S    
C37   O8    A    
C64   C99   S    
C32   C90   S    
C120  H90   S    
C58   O24   S    
Cu2   O5    S    
C19   H14   S    
C107  H55   S    
C122  H95   S    
C115  H77   S    
C56   O22   S    
C113  H72   S    
C5    H105  S    
C2    C88   S    
C100  H35   S    
C31   C56   A    
C16   H4    S    
C50   C67   A    
C3    H99   S    
C106  H51   S    
Cu1   O1    S    
C116  H79   S    
Cu4   O3    S    
C3    C122  S    
C104  H46   S    
C117  H82   S    
C53   O19   S    
C23   H23   S    
C103  H42   S    
C120  O13   S    
C105  H47   S    
C21   C22   S    
C119  H88   S    
C96   H41   S    
C121  H93   S    
C97   H74   S    
C99   H13   S    
C26   H29   S    
C31   C49   A    
C77   C113  S    
C9    H116  S    
C17   O21   S    
C40   O5    A    
C58   C75   A    
C90   C94   T    
C13   C53   A    
C28   C60   A    
C109  H62   S    
C60   C77   A    
C99   H24   S    
Cu3   O31   S    
C28   C45   A    
C67   C85   A    
C24   C35   S    
C56   C74   A    
C49   C66   A    
C108  H58   S    
C107  H56   S    
C67   C103  S    
C50   O16   S    
C108  H59   S    
C2    C94   S    
C21   H18   S    
C39   O6    A    
C38   O7    A    
C76   C82   A    
C47   C64   A    
C10   H119  S    
C23   O25   S    
C92   C112  S    
C73   C108  S    
C30   C58   A    
C87   C112  S    
C102  H37   S    
C44   C62   A    
C22   H22   S    
C25   H27   S    
Cu3   O4    S    
C45   C63   A    
C96   H52   S    
C12   H123  S    
C96   H1    S    
Cu4   O30   S    
C34   O1    A    
C65   C83   A    
C21   H19   S    
C91   C112  S    
C12   O19   S    
C15   O20   S    
C114  O9    S    
C34   O2    A    
C47   O13   S    
C116  O10   S    
Cu1   O32   S    
C20   H16   S    
C29   C47   A    
C62   C97   S    
C35   C88   T    
C100  H34   S    
C60   O26   S    
C19   O22   S    
C15   H3    S    
C72   C107  S    
C77   C81   A    
C61   C78   A    
C54   O20   S    
C32   C50   A    
C115  H78   S    
C9    H114  S    
C17   C18   S    
C8    C9    S    
C114  H75   S    
C54   C72   A    
C18   H9    S    
C42   C85   S    
C18   H10   S    
C33   C51   A    
C3    H100  S    
C73   C85   A    
C6    C7    S    
C111  H67   S    
C32   C55   A    
C29   C57   S    
C119  H87   S    
C102  H39   S    
Cu2   O28   S    
C114  H73   S    
C104  H45   S    
C38   C81   S    
C17   H7    S    
Cu3   Cu4   S    
C48   C65   A    
C113  H70   S    
C5    H103  S    
C37   C82   S    
C27   H31   S    
C37   O23   A    
C97   H85   S    
C6    O16   S    
C22   H20   S    
C106  H53   S    
C13   C43   A    
C120  C121  S    
C43   C61   A    
C104  H44   S    
C98   H107  S    
C8    H113  S    
C62   C80   A    
C33   C54   A    
C7    H111  S    
C23   H25   S    
C7    H110  S    
C75   C110  S    
C106  H50   S    
C57   C91   T    
C108  H57   S    
C25   H28   S    
C11   H120  S    
C36   O12   A    
C20   H15   S    
C2    C93   S    
C10   H117  S    
C65   C100  S    
C74   C84   A    
C4    C5    S    
C117  H81   S    
C70   C105  S    
C98   H118  S    
C70   C80   A    
C44   O10   S    
C72   C86   A    
C31   C79   S    
C99   H2    S    
C14   H125  S    
C8    H112  S    
Cu1   O6    S    
C63   C98   S    
C55   O21   S    
C49   O15   S    
C118  H84   S    
C105  H48   S    
C97   H63   S    
C117  H83   S    
C12   C14   S    
C11   H121  S    
Cu1   O29   S    
C21   O24   S    
C43   O9    S    
C75   C83   A    
C52   O18   S    
C14   H127  S    
Cu3   O23   S    
C76   C111  S    
C24   C44   A    
C98   H96   S    
Cu2   O12   S    
C68   C92   T    
C110  H64   S    
C113  H71   S    
C42   O3    A    
C4    H102  S    
C6    H108  S    
C41   O4    A    
C16   H6    S    
C18   H11   S    
C30   C68   S    
C42   O31   A    
C52   C70   A    
C10   C11   S    
C120  H91   S    
C111  H68   S    
C66   C84   A    
C55   C73   A    
C23   C25   S    
C1    C13   S    
C22   H21   S    
C109  H60   S    
C103  H40   S    
C102  H38   S    
C105  H49   S    
C71   C106  S    
Cu3   O7    S    
C17   H8    S    
C103  H43   S    
C29   C59   A    
C5    H104  S    
C36   C78   S    
C45   O11   S    
C51   C69   A    
C100  H36   S    
C59   C76   A    
C15   H128  S    
C71   C78   A    
C116  H80   S    
C69   C86   A    
C95   C101  T    
C111  H69   S    
C121  H94   S    
C10   O18   S    
C40   C83   S    
C53   C71   A    
