data_mof_unit_43812.cif
_audit_creation_date              2012-12-10T18:56:30-0500
_audit_creation_method            fapswitch 2.2
_symmetry_space_group_name_H-M    P1
_symmetry_Int_Tables_number       1
_space_group_crystal_system       triclinic
_cell_length_a                    10.630498
_cell_length_b                    9.901423
_cell_length_c                    18.768497
_cell_angle_alpha                 90.553003
_cell_angle_beta                  91.065403
_cell_angle_gamma                 89.692858
_cell_volume                      1975.05672187

loop_
_atom_site_label
_atom_site_type_symbol
_atom_type_description
_atom_site_fract_x
_atom_site_fract_y
_atom_site_fract_z
_atom_type_partial_charge
C1    C     C_R   0.871687 0.498752 0.498808 -0.315929
C2    C     C_R   0.739329 0.499700 0.499578 0.980357
C3    C     C_R   0.502798 0.499473 0.364446 0.985481
C4    C     C_R   0.495421 0.501027 0.634858 1.062121
C5    C     C_R   0.064929 0.451754 0.562039 0.296104
C6    C     C_R   0.934510 0.543567 0.438028 0.282894
C7    C     C_R   0.934248 0.454168 0.560490 0.456851
C8    C     C_R   0.065223 0.545454 0.440354 0.454701
C9    C     C_R   0.529127 0.436561 0.761059 0.339324
C10   C     C_R   0.535026 0.619389 0.249773 0.340765
C11   C     C_R   0.477931 0.381786 0.245687 0.341332
C12   C     C_R   0.128027 0.499880 0.501865 -0.303380
C13   C     C_R   0.348829 0.579026 0.726642 0.292482
C14   C     C_R   0.493203 0.446909 0.832867 0.298767
C15   C     C_R   0.516725 0.624574 0.175566 0.309884
C16   C     C_R   0.457802 0.392501 0.171615 0.308468
C17   C     C_R   0.309047 0.582157 0.797663 0.357515
C18   C     C_R   0.383836 0.520410 0.850485 -0.072388
C19   C     C_R   0.446240 0.521935 0.141180 -0.080314
C20   C     C_R   0.579966 0.071971 0.544148 0.321351
C21   C     C_R   0.420203 0.927915 0.455759 0.331597
C22   C     C_R   0.419188 0.071450 0.456339 0.335933
C23   C     C_R   0.383041 0.662321 0.960496 0.364175
C24   C     C_R   0.579509 0.928416 0.544423 0.320903
C25   C     C_R   0.458382 0.505683 0.709196 -0.242731
C26   C     C_R   0.503653 0.500093 0.285862 -0.246370
C27   C     C_R   0.303616 0.441488 0.038663 0.356311
C28   C     C_R   0.382430 0.667238 0.034832 0.359530
C29   C     C_R   0.299401 0.434803 0.964170 0.385057
C30   C     C_R   0.375049 0.544778 0.072225 -0.150124
C31   C     C_R   0.353363 0.539895 0.925623 -0.137726
C32   C     C_R   0.260585 0.500149 0.501096 1.000669
Cl1   Cl    Cl    0.683993 0.158979 0.601856 -0.359417
Cl2   Cl    Cl    0.205683 0.334865 0.088248 -0.341183
Cl3   Cl    Cl    0.359579 0.824653 0.078277 -0.315839
Cl4   Cl    Cl    0.232285 0.293980 0.919672 -0.315869
Cl5   Cl    Cl    0.317671 0.840672 0.397202 -0.393372
Cl6   Cl    Cl    0.310771 0.157802 0.401193 -0.404101
Cl7   Cl    Cl    0.682093 0.841514 0.602868 -0.402114
Cl8   Cl    Cl    0.587067 0.374364 0.901733 -0.407550
Cl9   Cl    Cl    0.621834 0.724207 0.126406 -0.375777
Cl10  Cl    Cl    0.485728 0.248999 0.116715 -0.352480
Cl11  Cl    Cl    0.165473 0.660912 0.821546 -0.411944
Cl12  Cl    Cl    0.426899 0.806705 0.912474 -0.325955
H1    H     H_    0.218168 0.405597 0.617622 0.353803
H2    H     H_    0.783050 0.557663 0.376670 0.344828
H3    H     H_    0.919617 0.389531 0.658702 0.424019
H4    H     H_    0.079387 0.617062 0.343577 0.418960
H5    H     H_    0.669474 0.311919 0.779429 0.414676
H6    H     H_    0.585883 0.807814 0.257854 0.402126
H7    H     H_    0.435651 0.190418 0.247599 0.409402
H8    H     H_    0.214934 0.700628 0.692003 0.407033
N1    N     N_R   0.500000 0.857200 0.500000 -0.197481
N2    N     N_R   0.500000 0.142800 0.500000 -0.204665
O1    O     O_R   0.316770 0.614620 0.500000 -0.546108
O2    O     O_3   0.872453 0.584409 0.376226 -0.691742
O3    O     O_3   0.863875 0.416056 0.618364 -0.646792
O4    O     O_3   0.135353 0.585668 0.382808 -0.680136
O5    O     O_3   0.634702 0.365858 0.739631 -0.641061
O6    O     O_3   0.590077 0.725260 0.287222 -0.667359
O7    O     O_3   0.476930 0.258203 0.279171 -0.648223
O8    O     O_3   0.282862 0.643795 0.672431 -0.728957
O9    O     O_R   0.683230 0.385380 0.500000 -0.567844
O10   O     O_R   0.683230 0.614620 0.500000 -0.581464
O11   O     O_R   0.316770 0.385380 0.500000 -0.605086
O12   O     O_R   0.500030 0.614710 0.398180 -0.544372
O13   O     O_R   0.499970 0.385290 0.601820 -0.577783
O14   O     O_R   0.499970 0.614710 0.601820 -0.554505
O15   O     O_R   0.500030 0.385290 0.398180 -0.545440
O16   O     O_3   0.126031 0.403768 0.622673 -0.705882
Zn1   Zn    Zn3+2 0.500000 0.653120 0.500000 1.125968
Zn2   Zn    Zn3+2 0.500000 0.346880 0.500000 1.106077

loop_
_geom_bond_atom_site_label_1
_geom_bond_atom_site_label_2
_ccdc_geom_bond_type
O15   Zn2   S    
C10   O6    S    
C9    C14   A    
C17   Cl11  S    
N1    Zn1   S    
H4    O4    S    
C5    O16   S    
C9    O5    S    
H3    O3    S    
O11   Zn2   S    
C11   C16   A    
C14   C18   A    
C32   O1    A    
O12   Zn1   S    
H7    O7    S    
C13   C17   A    
C8    C12   A    
H6    O6    S    
C10   C26   A    
C28   C30   A    
C17   C18   A    
H1    O16   S    
C9    C25   A    
C29   C31   A    
H8    O8    S    
C21   C22   A    
C12   C32   S    
C27   C30   A    
C15   C19   A    
C29   Cl4   S    
C13   C25   A    
C5    C12   A    
O14   Zn1   S    
C20   Cl1   S    
C21   N1    A    
C20   N2    A    
C3    O15   A    
C2    O10   A    
C4    C25   S    
C10   C15   A    
C16   C19   A    
C27   Cl2   S    
C23   C31   A    
C3    O12   A    
C27   C29   A    
C23   C28   A    
C23   Cl12  S    
C14   Cl8   S    
C1    C6    A    
C22   Cl6   S    
C16   Cl10  S    
O13   Zn2   S    
C24   Cl7   S    
N2    Zn2   S    
O9    Zn2   S    
C15   Cl9   S    
C21   Cl5   S    
C22   N2    A    
C1    C2    S    
O10   Zn1   S    
H2    O2    S    
C5    C7    A    
C2    O9    A    
C6    C8    A    
C18   C31   S    
C11   C26   A    
C8    O4    S    
C24   N1    A    
C1    C7    A    
C19   C30   S    
C4    O14   A    
C7    O3    S    
C3    C26   S    
O1    Zn1   S    
C13   O8    S    
C20   C24   A    
C28   Cl3   S    
C6    O2    S    
C32   O11   A    
C11   O7    S    
C4    O13   A    
H5    O5    S    
