data_mof_unit_8235.cif
_audit_creation_date              2012-10-26T19:39:38-0400
_audit_creation_method            fapswitch 2.2
_symmetry_space_group_name_H-M    P1
_symmetry_Int_Tables_number       1
_space_group_crystal_system       triclinic
_cell_length_a                    10.825543
_cell_length_b                    8.6949
_cell_length_c                    7.47616
_cell_angle_alpha                 103.491147
_cell_angle_beta                  92.086997
_cell_angle_gamma                 92.657239
_cell_volume                      682.746101001

loop_
_atom_site_label
_atom_site_type_symbol
_atom_type_description
_atom_site_fract_x
_atom_site_fract_y
_atom_site_fract_z
_atom_type_partial_charge
C1    C     C_R   0.496199 0.199756 0.453008 0.547217
C2    C     C_2   0.494213 0.031385 0.427164 -0.117633
C3    C     C_2   0.872858 0.784006 0.460049 0.276920
C4    C     C_2   0.119742 0.692093 0.286772 0.300183
C5    C     C_2   0.089437 0.515874 0.715628 0.218589
C6    C     C_2   0.641969 0.623594 0.059438 0.499686
C7    C     C_2   0.505823 0.968573 0.572818 -0.123843
C8    C     C_R   0.265708 0.511925 0.508623 0.552968
C9    C     C_R   0.503759 0.800233 0.547004 0.549436
C10   C     C_R   0.734159 0.498509 0.493292 0.532062
C11   C     C_2   0.931734 0.631076 0.453756 0.006109
C12   C     C_2   0.865891 0.500806 0.472577 -0.063720
C13   C     C_2   0.067007 0.620594 0.431743 0.014862
C14   C     C_2   0.135858 0.547226 0.540373 -0.011108
Cu1   Cu    Cu3+1 0.513740 0.517380 0.684380 1.031956
Cu2   Cu    Cu3+1 0.486260 0.482620 0.315620 1.024319
H1    H     H_    0.909524 0.389467 0.464197 0.104290
H2    H     H_    0.482979 0.958848 0.287269 0.143673
H3    H     H_    0.516914 0.041131 0.712729 0.140160
H4    H     H_    0.393742 0.393412 0.955055 0.228281
H5    H     H_    0.773326 0.791354 0.465622 0.093233
H6    H     H_    0.061704 0.697061 0.167248 0.179983
H7    H     H_    0.124242 0.418644 0.767494 0.121454
H8    H     H_    0.636564 0.736674 0.156018 0.060817
N1    N     N_2   0.465540 0.456420 0.038510 -0.254257
N2    N     N_2   0.534460 0.543580 0.961490 -0.166367
O1    O     O_R   0.508930 0.286130 0.619780 -0.512423
O2    O     O_2   0.223607 0.756300 0.305512 -0.474775
O3    O     O_2   0.017905 0.602514 0.807662 -0.478892
O4    O     O_2   0.743244 0.570436 0.026786 -0.473307
O5    O     O_R   0.485720 0.256780 0.308360 -0.496329
O6    O     O_R   0.333540 0.514670 0.655670 -0.527408
O7    O     O_R   0.310330 0.485320 0.344250 -0.467174
O8    O     O_R   0.514280 0.743220 0.691640 -0.509968
O9    O     O_R   0.491070 0.713870 0.380220 -0.508679
O10   O     O_R   0.689670 0.514680 0.655750 -0.441905
O11   O     O_R   0.666460 0.485330 0.344330 -0.509244
O12   O     O_2   0.935674 0.904759 0.462078 -0.489165

loop_
_geom_bond_atom_site_label_1
_geom_bond_atom_site_label_2
_ccdc_geom_bond_type
C12   H1    S    
C10   O10   A    
C11   C12   D    
Cu2   O7    S    
C2    H2    S    
C4    H6    S    
Cu1   O8    S    
Cu1   O1    S    
C2    C7    D    
C5    H7    S    
Cu2   O11   S    
C6    H8    S    
Cu1   O6    S    
C13   C14   D    
Cu2   O5    S    
C11   C13   S    
C5    C14   S    
C6    N2    S    
C10   C12   S    
C10   O11   A    
C6    O4    D    
C7    H3    S    
C8    O7    A    
Cu2   O9    S    
C9    O8    A    
C3    H5    S    
C3    C11   S    
H4    N1    S    
Cu1   Cu2   S    
C8    O6    A    
C5    O3    D    
C7    C9    S    
Cu1   O10   S    
C1    O5    A    
C9    O9    A    
C1    C2    S    
Cu2   N1    S    
C1    O1    A    
Cu1   N2    S    
C8    C14   S    
C4    O2    D    
N1    N2    D    
C4    C13   S    
C3    O12   D    
