data_mof_unit_5159.cif
_audit_creation_date              2012-12-10T20:38:17-0500
_audit_creation_method            fapswitch 2.2
_symmetry_space_group_name_H-M    P1
_symmetry_Int_Tables_number       1
_space_group_crystal_system       triclinic
_cell_length_a                    9.854944
_cell_length_b                    10.703592
_cell_length_c                    16.808054
_cell_angle_alpha                 90.752372
_cell_angle_beta                  84.390807
_cell_angle_gamma                 90.248561
_cell_volume                      1764.31910688

loop_
_atom_site_label
_atom_site_type_symbol
_atom_type_description
_atom_site_fract_x
_atom_site_fract_y
_atom_site_fract_z
_atom_type_partial_charge
C1    C     C_R   0.500273 0.740069 0.499901 0.938156
C2    C     C_R   0.340990 0.538352 0.781996 -0.068148
C3    C     C_R   0.442941 0.652572 0.157340 -0.139166
C4    C     C_R   0.429327 0.611173 0.235076 -0.198364
C5    C     C_R   0.656226 0.521750 0.215676 -0.172781
C6    C     C_R   0.670516 0.560877 0.136059 0.014503
C7    C     C_R   0.559637 0.622684 0.106443 0.090290
C8    C     C_2   0.447117 0.572653 0.989977 -0.237023
C9    C     C_2   0.550350 0.631726 0.020750 -0.229491
C10   C     C_R   0.534029 0.542465 0.263875 -0.076193
C11   C     C_R   0.378934 0.937005 0.508004 -0.029099
C12   C     C_R   0.480131 0.497959 0.653322 0.941428
C13   C     C_R   0.500977 0.871953 0.493587 -0.068047
C14   C     C_R   0.620899 0.935172 0.465825 -0.227094
C15   C     C_R   0.620332 0.064392 0.463345 -0.183722
C16   C     C_R   0.499107 0.128624 0.487139 -0.042633
C17   C     C_R   0.376464 0.063845 0.501130 -0.062868
C18   C     C_3   0.264623 0.078925 0.567580 -0.223914
C19   C     C_3   0.270849 0.937866 0.577651 0.210150
C20   C     C_R   0.922040 0.588775 0.542508 0.187322
C21   C     C_R   0.935630 0.420461 0.451865 -0.081562
C22   C     C_R   0.079739 0.420727 0.451678 -0.049671
C23   C     C_R   0.500020 0.260158 0.497326 0.877381
C24   C     C_R   0.064695 0.588417 0.542752 0.167444
C25   C     C_3   0.054996 0.607686 0.631026 -0.420750
C26   C     C_3   0.901390 0.609538 0.630620 -0.461357
C27   C     C_R   0.519837 0.505899 0.347115 0.856533
C28   C     C_R   0.465822 0.504063 0.740326 -0.082645
C29   C     C_R   0.579586 0.484144 0.781791 -0.183852
C30   C     C_R   0.571501 0.506252 0.863183 -0.106470
C31   C     C_R   0.449487 0.548824 0.904412 0.088760
C32   C     C_R   0.331113 0.561705 0.864373 0.004181
H1    H     H_    0.675383 0.452953 0.751309 0.163414
H2    H     H_    0.715537 0.885797 0.449682 0.165934
H3    H     H_    0.715084 0.113528 0.446896 0.162630
H4    H     H_    0.295992 0.135810 0.618685 0.229339
H5    H     H_    0.177340 0.885882 0.564747 0.066905
H6    H     H_    0.887109 0.354298 0.414433 0.134161
H7    H     H_    0.140109 0.354709 0.414131 0.135544
H8    H     H_    0.091292 0.525152 0.662116 0.228108
H9    H     H_    0.336522 0.632950 0.272615 0.163379
H10   H     H_    0.098029 0.698928 0.648406 0.240741
H11   H     H_    0.850966 0.529139 0.662429 0.226145
H12   H     H_    0.855563 0.702283 0.646726 0.211828
H13   H     H_    0.738560 0.472341 0.239718 0.187797
H14   H     H_    0.634610 0.670536 0.982277 0.165862
H15   H     H_    0.358405 0.701245 0.135069 0.152233
H16   H     H_    0.252913 0.552666 0.749803 0.192250
H17   H     H_    0.364315 0.531927 0.028819 0.165096
H18   H     H_    0.661202 0.490242 0.894102 0.150669
N1    N     N_R   0.857140 0.500860 0.500530 -0.105307
N2    N     N_R   0.142780 0.500820 0.500530 -0.102104
O1    O     O_R   0.385310 0.683210 0.499990 -0.611038
O2    O     O_R   0.614650 0.683240 0.500000 -0.629621
O3    O     O_R   0.371780 0.500000 0.615800 -0.601450
O4    O     O_R   0.601120 0.500040 0.615800 -0.618871
O5    O     O_R   0.385350 0.316760 0.500000 -0.614592
O6    O     O_R   0.614690 0.316790 0.500010 -0.617792
O7    O     O_R   0.398880 0.499960 0.384200 -0.628127
O8    O     O_R   0.628220 0.500000 0.384200 -0.627235
Zn1   Zn    Zn3+2 0.346870 0.499980 0.499990 0.981232
Zn2   Zn    Zn3+2 0.653130 0.500020 0.500010 0.965378
C33   C     C_2   0.797451 0.530718 0.084140 0.389735
H19   H     H_    0.810279 0.558696 0.022157 0.080654
O9    O     O_2   0.890532 0.474096 0.110248 -0.569765
C34   C     C_2   0.133527 0.121574 0.538210 0.411378
H20   H     H_    0.099092 0.081892 0.483855 0.041503
O10   O     O_2   0.064240 0.200652 0.575820 -0.548560
S1    S     S_3+6 0.331867 0.899003 0.671393 0.022303
O11   O     O_2   0.221905 0.926109 0.737643 -0.229145
O12   O     O_2   0.366302 0.762840 0.672186 -0.353753
O13   O     O_3   0.470966 0.984330 0.686843 -0.525134
H21   H     H_    0.548010 0.940956 0.655992 0.362297
C35   C     C_2   0.199437 0.604741 0.906471 0.447227
H22   H     H_    0.192151 0.632399 0.969006 0.067074
O14   O     O_2   0.096688 0.610425 0.871507 -0.559618

loop_
_geom_bond_atom_site_label_1
_geom_bond_atom_site_label_2
_ccdc_geom_bond_type
C10   C27   S    
O6    Zn2   S    
C23   O6    A    
C34   O10   D    
C33   O9    D    
C24   N2    A    
C26   H12   S    
C11   C19   S    
C35   O14   D    
C12   C28   S    
O8    Zn2   S    
C28   C29   A    
C20   N1    A    
C3    C7    A    
N2    Zn1   S    
C25   H8    S    
C32   C35   S    
C5    C6    A    
C4    H9    S    
C15   C16   A    
C29   H1    S    
C2    C32   A    
C18   C19   S    
S1    O12   D    
C1    O1    A    
C19   H5    S    
O1    Zn1   S    
C21   H6    S    
C20   C24   A    
C8    C9    D    
C34   H20   S    
C30   H18   S    
C9    H14   S    
C13   C14   A    
N1    Zn2   S    
C15   H3    S    
C26   H11   S    
O7    Zn1   S    
C35   H22   S    
C24   C25   S    
C16   C17   A    
O2    Zn2   S    
C2    H16   S    
C25   C26   S    
C5    H13   S    
C6    C33   S    
S1    O13   S    
C1    O2    A    
C29   C30   A    
C31   C32   A    
C17   C18   S    
C12   O4    A    
C16   C23   S    
O4    Zn2   S    
C19   S1    S    
C1    C13   S    
C4    C10   A    
C3    C4    A    
C21   N1    A    
C22   N2    A    
C23   O5    A    
C11   C17   A    
C8    C31   S    
O13   H21   S    
C25   H10   S    
C14   H2    S    
O5    Zn1   S    
C6    C7    A    
C18   C34   S    
C27   O8    A    
C5    C10   A    
C27   O7    A    
C11   C13   A    
C30   C31   A    
C20   C26   S    
C22   H7    S    
O3    Zn1   S    
C3    H15   S    
S1    O11   D    
C12   O3    A    
C33   H19   S    
C7    C9    S    
C14   C15   A    
C2    C28   A    
C21   C22   A    
C18   H4    S    
C8    H17   S    
