data_mof_unit_13530.cif
_audit_creation_date              2012-12-11T15:17:45-0500
_audit_creation_method            fapswitch 2.2
_symmetry_space_group_name_H-M    P1
_symmetry_Int_Tables_number       1
_space_group_crystal_system       triclinic
_cell_length_a                    6.929754
_cell_length_b                    20.079816
_cell_length_c                    22.382896
_cell_angle_alpha                 90.000033
_cell_angle_beta                  89.999788
_cell_angle_gamma                 90.020957
_cell_volume                      3114.53915057

loop_
_atom_site_label
_atom_site_type_symbol
_atom_type_description
_atom_site_fract_x
_atom_site_fract_y
_atom_site_fract_z
_atom_type_partial_charge
O1    O     O_R   0.620180 0.810610 0.187990 -0.542230
O2    O     O_R   0.379820 0.189390 0.812010 -0.542230
O3    O     O_R   0.379820 0.189390 0.687990 -0.542229
O4    O     O_R   0.620180 0.810610 0.312010 -0.542229
O5    O     O_R   0.120180 0.689390 0.312010 -0.536740
O6    O     O_R   0.879820 0.310610 0.687990 -0.536740
O7    O     O_R   0.879820 0.310610 0.812010 -0.536740
O8    O     O_R   0.120180 0.689390 0.187990 -0.536740
O9    O     O_R   0.290420 0.818570 0.311590 -0.539756
O10   O     O_R   0.709580 0.181430 0.688410 -0.539756
O11   O     O_R   0.709580 0.181430 0.811590 -0.539754
O12   O     O_R   0.290420 0.818570 0.188410 -0.539754
O13   O     O_R   0.790420 0.681430 0.188410 -0.545130
O14   O     O_R   0.209580 0.318570 0.811590 -0.545130
O15   O     O_R   0.209580 0.318570 0.688410 -0.545133
O16   O     O_R   0.790420 0.681430 0.311590 -0.545133
H1    H     H_    0.579494 0.510343 0.593307 0.119259
H2    H     H_    0.420506 0.489657 0.406692 0.119259
H3    H     H_    0.420518 0.489662 0.093302 0.119254
H4    H     H_    0.579485 0.510339 0.906697 0.119257
H5    H     H_    0.942581 0.979076 0.918634 0.124267
H6    H     H_    0.057418 0.020924 0.081366 0.124267
H7    H     H_    0.057495 0.020967 0.418595 0.124301
H8    H     H_    0.942505 0.979033 0.581405 0.124301
C1    C     C_R   0.459445 0.834538 0.332383 0.714496
C2    C     C_R   0.540555 0.165462 0.667617 0.714496
C3    C     C_R   0.540550 0.165455 0.832377 0.714512
C4    C     C_R   0.459450 0.834545 0.167623 0.714512
C5    C     C_R   0.959349 0.665276 0.167776 0.712327
C6    C     C_R   0.040650 0.334724 0.832224 0.712327
C7    C     C_R   0.040651 0.334724 0.667776 0.712330
C8    C     C_R   0.959349 0.665276 0.332224 0.712330
H9    H     H_    0.750121 0.421443 0.644261 0.122500
H10   H     H_    0.249878 0.578556 0.355739 0.122500
H11   H     H_    0.249897 0.578564 0.144253 0.122504
H12   H     H_    0.750104 0.421436 0.855747 0.122504
H13   H     H_    0.806414 0.071859 0.863518 0.127526
H14   H     H_    0.193586 0.928141 0.136482 0.127526
H15   H     H_    0.193604 0.928169 0.363492 0.127505
H16   H     H_    0.806396 0.071831 0.636508 0.127505
H17   H     H_    0.306777 0.357909 0.581790 0.171378
H18   H     H_    0.693223 0.642091 0.418210 0.171378
H19   H     H_    0.693203 0.642081 0.081797 0.171379
H20   H     H_    0.306797 0.357919 0.918203 0.171379
H21   H     H_    0.250127 0.149876 0.911693 0.173072
H22   H     H_    0.749872 0.850124 0.088306 0.173072
H23   H     H_    0.749775 0.850048 0.411752 0.173054
H24   H     H_    0.250225 0.149951 0.588247 0.173054
O17   O     O_3   0.453640 0.707610 0.250000 -0.371983
O18   O     O_3   0.546360 0.292390 0.750000 -0.371983
O19   O     O_3   0.953640 0.792390 0.250000 -0.370266
O20   O     O_3   0.046360 0.207610 0.750000 -0.370266
V1    V     V_3+5 0.178800 0.757860 0.250000 1.431624
V2    V     V_3+5 0.821200 0.242140 0.750000 1.431624
V3    V     V_3+5 0.678800 0.742140 0.250000 1.415256
V4    V     V_3+5 0.321200 0.257860 0.750000 1.415256
C9    C     C_R   0.181878 0.389944 0.577112 -0.171941
C10   C     C_R   0.818122 0.610056 0.422888 -0.171941
C11   C     C_R   0.818112 0.610051 0.077116 -0.171982
C12   C     C_R   0.181888 0.389949 0.922884 -0.171982
C13   C     C_R   0.366077 0.114712 0.919347 -0.169683
C14   C     C_R   0.633923 0.885287 0.080653 -0.169683
C15   C     C_R   0.633853 0.885238 0.419387 -0.169611
C16   C     C_R   0.366147 0.114762 0.580613 -0.169611
C17   C     C_R   0.030326 0.384269 0.618595 -0.118701
C18   C     C_R   0.969674 0.615731 0.381405 -0.118701
C19   C     C_R   0.969673 0.615730 0.118595 -0.118704
C20   C     C_R   0.030327 0.384270 0.881405 -0.118704
C21   C     C_R   0.529214 0.116348 0.881919 -0.121649
C22   C     C_R   0.470786 0.883652 0.118081 -0.121649
C23   C     C_R   0.470762 0.883635 0.381933 -0.121571
C24   C     C_R   0.529238 0.116365 0.618067 -0.121570
C25   C     C_R   0.867269 0.425304 0.612325 -0.158683
C26   C     C_R   0.132731 0.574696 0.387675 -0.158683
C27   C     C_R   0.132740 0.574699 0.112321 -0.158686
C28   C     C_R   0.867261 0.425301 0.887679 -0.158684
C29   C     C_R   0.680380 0.071161 0.892211 -0.146564
C30   C     C_R   0.319620 0.928839 0.107789 -0.146564
C31   C     C_R   0.319616 0.928845 0.392205 -0.146690
C32   C     C_R   0.680384 0.071155 0.607795 -0.146690
C33   C     C_R   0.855639 0.472040 0.565760 0.096515
C34   C     C_R   0.144361 0.527960 0.434240 0.096515
C35   C     C_R   0.144368 0.527963 0.065757 0.096516
C36   C     C_R   0.855632 0.472037 0.934243 0.096512
C37   C     C_R   0.668530 0.024281 0.938676 0.087509
C38   C     C_R   0.331470 0.975719 0.061324 0.087509
C39   C     C_R   0.331474 0.975722 0.438672 0.087248
C40   C     C_R   0.668526 0.024278 0.561328 0.087248
C41   C     C_R   0.006694 0.476841 0.523714 -0.029628
C42   C     C_R   0.993306 0.523159 0.476286 -0.029628
C43   C     C_R   0.993306 0.523159 0.023714 -0.029631
C44   C     C_R   0.006694 0.476841 0.976286 -0.029632
C45   C     C_R   0.505349 0.023335 0.976413 -0.030398
C46   C     C_R   0.494651 0.976665 0.023586 -0.030398
C47   C     C_R   0.494633 0.976655 0.476421 -0.030403
C48   C     C_R   0.505367 0.023344 0.523579 -0.030403
C49   C     C_R   0.170746 0.435244 0.529069 0.071720
C50   C     C_R   0.829254 0.564756 0.470931 0.071720
C51   C     C_R   0.829246 0.564752 0.029072 0.071700
C52   C     C_R   0.170754 0.435248 0.970928 0.071702
C53   C     C_R   0.353118 0.069070 0.966972 0.072022
C54   C     C_R   0.646882 0.930930 0.033028 0.072022
C55   C     C_R   0.646810 0.930891 0.467005 0.072102
C56   C     C_R   0.353190 0.069109 0.532995 0.072102
C57   C     C_R   0.694810 0.514020 0.560739 -0.239384
C58   C     C_R   0.305190 0.485980 0.439260 -0.239383
C59   C     C_R   0.305202 0.485985 0.060734 -0.239361
C60   C     C_R   0.694800 0.514016 0.939265 -0.239372
C61   C     C_R   0.817799 0.978313 0.947837 -0.255081
C62   C     C_R   0.182200 0.021687 0.052163 -0.255081
C63   C     C_R   0.182244 0.021709 0.447817 -0.255412
C64   C     C_R   0.817755 0.978291 0.552183 -0.255413
C65   C     C_R   0.680219 0.560536 0.513742 0.335393
C66   C     C_R   0.319781 0.439464 0.486257 0.335393
C67   C     C_R   0.319793 0.439469 0.013737 0.335389
C68   C     C_R   0.680209 0.560532 0.986262 0.335382
C69   C     C_R   0.808671 0.931524 0.994720 0.331837
C70   C     C_R   0.191329 0.068476 0.005280 0.331837
C71   C     C_R   0.191410 0.068513 0.494688 0.331907
C72   C     C_R   0.808590 0.931487 0.505312 0.331907
O21   O     O_3   0.522027 0.602108 0.508948 -0.647011
H25   H     H_    0.430211 0.592033 0.541711 0.292929
O22   O     O_3   0.477972 0.397892 0.491052 -0.647011
H26   H     H_    0.569789 0.407967 0.458289 0.292929
O23   O     O_3   0.477987 0.397898 0.008941 -0.647018
H27   H     H_    0.569811 0.407969 0.041709 0.292896
O24   O     O_3   0.522017 0.602104 0.991057 -0.647020
H28   H     H_    0.430212 0.592042 0.958283 0.292898
O25   O     O_3   0.956045 0.886270 0.003830 -0.647998
H29   H     H_    0.058147 0.893585 0.973457 0.295712
O26   O     O_3   0.043953 0.113730 0.996170 -0.647998
H30   H     H_    0.941851 0.106415 0.026543 0.295712
O27   O     O_3   0.044122 0.113804 0.503765 -0.647982
H31   H     H_    0.941524 0.106225 0.473622 0.295801
O28   O     O_3   0.955878 0.886196 0.496235 -0.647982
H32   H     H_    0.058476 0.893775 0.526378 0.295801

loop_
_geom_bond_atom_site_label_1
_geom_bond_atom_site_label_2
_ccdc_geom_bond_type
O14   V4    S    
C40   C48   A    
C45   C46   A    
C14   C54   A    
C22   C30   A    
C11   C51   A    
C49   C66   A    
C21   C29   A    
C47   C48   A    
H8    C64   S    
C60   C68   A    
C27   C35   A    
C62   C70   A    
C23   C31   A    
O4    C1    A    
C61   C69   A    
O22   H26   S    
H11   C27   S    
C71   O27   S    
H22   C14   S    
C53   C70   A    
C57   C65   A    
C38   C62   A    
C26   C34   A    
C37   C61   A    
H23   C15   S    
H24   C16   S    
C39   C63   A    
C13   C21   A    
C18   C26   A    
C17   C25   A    
C14   C22   A    
C63   C71   A    
C25   C33   A    
C70   O26   S    
C38   C46   A    
C11   C19   A    
C5    C19   S    
C37   C45   A    
C10   C18   A    
C55   C72   A    
C47   C55   A    
H6    C62   S    
C68   O24   S    
H12   C28   S    
O1    C4    A    
H16   C32   S    
O2    C3    A    
C1    C23   S    
C69   O25   S    
C4    C22   S    
O12   V1    S    
C3    C21   S    
H19   C11   S    
C56   C71   A    
C33   C41   A    
C30   C38   A    
C34   C58   A    
O6    C7    A    
C29   C37   A    
O7    C6    A    
H18   C10   S    
C52   C67   A    
O6    V2    S    
C31   C39   A    
O20   V2    S    
C33   C57   A    
C28   C36   A    
O9    C1    A    
O28   H32   S    
C15   C55   A    
C45   C53   A    
C51   C68   A    
C64   C72   A    
C50   C65   A    
H14   C30   S    
O17   V3    S    
H13   C29   S    
O18   V4    S    
C41   C49   A    
O19   V1    S    
H15   C31   S    
C13   C53   A    
H2    C58   S    
H1    C57   S    
O3    V4    S    
O11   C3    A    
C9    C49   A    
C65   O21   S    
O18   V2    S    
C2    C24   S    
O11   V2    S    
C59   C67   A    
O21   H25   S    
C54   C69   A    
H10   C26   S    
C66   O22   S    
H9    C25   S    
C58   C66   A    
C48   C56   A    
O4    V3    S    
O23   H27   S    
O9    V1    S    
O8    C5    A    
O24   H28   S    
C43   C44   A    
H7    C63   S    
C44   C52   A    
C8    C18   S    
O25   H29   S    
O13   C5    A    
C7    C17   S    
C39   C47   A    
O3    C2    A    
C16   C56   A    
C15   C23   A    
C12   C52   A    
C67   O23   S    
O8    V1    S    
H5    C61   S    
O15   C7    A    
C10   C50   A    
O16   C8    A    
C35   C43   A    
C34   C42   A    
C72   O28   S    
O15   V4    S    
O5    C8    A    
O5    V1    S    
O16   V3    S    
O14   C6    A    
C32   C40   A    
O2    V4    S    
C20   C28   A    
O10   C2    A    
O27   H31   S    
H20   C12   S    
O17   V1    S    
C9    C17   A    
H21   C13   S    
C36   C60   A    
C35   C59   A    
O19   V3    S    
C16   C24   A    
O1    V3    S    
O10   V2    S    
C12   C20   A    
H17   C9    S    
C40   C64   A    
O20   V4    S    
C19   C27   A    
O12   C4    A    
C24   C32   A    
C36   C44   A    
O7    V2    S    
C43   C51   A    
C41   C42   A    
C42   C50   A    
C6    C20   S    
O26   H30   S    
C46   C54   A    
H4    C60   S    
O13   V3    S    
H3    C59   S    
