data_mof_unit_7929.cif
_audit_creation_date              2013-03-05T16:02:23-0500
_audit_creation_method            fapswitch 2.2
_symmetry_space_group_name_H-M    P1
_symmetry_Int_Tables_number       1
_space_group_crystal_system       triclinic
_cell_length_a                    14.967809
_cell_length_b                    14.022364
_cell_length_c                    10.651526
_cell_angle_alpha                 90.09756
_cell_angle_beta                  89.848591
_cell_angle_gamma                 90.136627
_cell_volume                      2235.56820803

loop_
_atom_site_label
_atom_site_type_symbol
_atom_site_description
_atom_site_fract_x
_atom_site_fract_y
_atom_site_fract_z
_atom_type_partial_charge
O1    O     O_R   0.367860 0.580280 0.500020 -0.595101
O2    O     O_R   0.367860 0.419720 0.500020 -0.601069
C1    C     C_R   0.326669 0.499953 0.500181 1.014927
O3    O     O_R   0.500000 0.580270 0.314790 -0.623251
O4    O     O_R   0.500000 0.419730 0.314790 -0.623415
C2    C     C_R   0.493808 0.499976 0.258196 0.957921
Zn1   Zn    Zn3+2 0.500020 0.607200 0.499990 1.001392
Zn2   Zn    Zn3+2 0.500020 0.392800 0.499990 0.988211
O5    O     O_R   0.632160 0.580270 0.499960 -0.630068
O6    O     O_R   0.632160 0.419730 0.499960 -0.634874
O7    O     O_R   0.500030 0.580270 0.685200 -0.629475
O8    O     O_R   0.500030 0.419730 0.685200 -0.638983
C3    C     C_R   0.673322 0.500077 0.499183 0.878897
C4    C     C_R   0.491275 0.500147 0.741466 0.958370
C5    C     C_3   0.441804 0.595222 0.073812 0.096759
C6    C     C_3   0.438022 0.406521 0.072667 0.102855
H1    H     H_    0.488528 0.653743 0.101783 0.097521
H2    H     H_    0.484622 0.346701 0.094125 0.105395
C7    C     C_3   0.441634 0.597322 0.927805 0.085633
C8    C     C_3   0.431667 0.410740 0.927351 0.090315
H3    H     H_    0.488902 0.655306 0.900054 0.077943
H4    H     H_    0.468976 0.347021 0.892675 0.121706
H5    H     H_    0.620505 0.562098 0.102520 0.216277
H6    H     H_    0.619350 0.434711 0.106079 0.208137
H7    H     H_    0.621645 0.555989 0.889851 0.210867
H8    H     H_    0.613624 0.428631 0.893715 0.206851
C9    C     C_3   0.582517 0.498103 0.070529 -0.545202
C10   C     C_3   0.485431 0.499943 0.122244 -0.134094
C11   C     C_3   0.483240 0.501094 0.877742 -0.132837
C12   C     C_3   0.581013 0.495494 0.926824 -0.530306
C13   C     C_R   0.814346 0.574673 0.437982 -0.191655
C14   C     C_R   0.768916 0.499874 0.496309 -0.082523
C15   C     C_R   0.814246 0.424322 0.551444 -0.216935
C16   C     C_R   0.906456 0.424185 0.552191 0.070162
C17   C     C_R   0.953422 0.499118 0.492789 0.035537
C18   C     C_R   0.907246 0.574146 0.432027 0.002109
C19   C     C_R   0.951912 0.351212 0.613968 -0.308090
C20   C     C_R   0.044862 0.352510 0.620245 0.514289
C21   C     C_R   0.092359 0.424898 0.557498 0.004375
C22   C     C_R   0.046432 0.499213 0.495370 -0.003070
C23   C     C_R   0.093710 0.574230 0.437194 0.065575
C24   C     C_R   0.048384 0.647513 0.375825 -0.222257
C25   C     C_R   0.955248 0.647708 0.370756 0.295687
C26   C     C_R   0.185018 0.425430 0.556915 -0.138882
C27   C     C_R   0.231047 0.499953 0.499247 -0.058266
C28   C     C_R   0.186130 0.574456 0.440525 -0.117218
H9    H     H_    0.776442 0.632715 0.398015 0.200657
H10   H     H_    0.777585 0.367189 0.597214 0.154107
H11   H     H_    0.915380 0.294124 0.659802 0.166684
H12   H     H_    0.221693 0.368646 0.602200 0.223504
H13   H     H_    0.223253 0.631561 0.395566 0.197832
H14   H     H_    0.085618 0.703841 0.329431 0.204752
C29   C     C_R   0.546218 0.797838 0.409262 0.043781
C30   C     C_R   0.546333 0.202084 0.409283 0.020562
N1    N     N_R   0.500070 0.750030 0.500050 -0.128849
N2    N     N_R   0.500070 0.249970 0.500050 -0.129792
C31   C     C_R   0.455559 0.798057 0.592230 0.024265
C32   C     C_R   0.454954 0.201734 0.591157 0.011271
C33   C     C_R   0.455189 0.898765 0.595381 -0.115749
C34   C     C_R   0.453846 0.101122 0.593719 -0.109437
C35   C     C_R   0.501044 0.949347 0.500499 -0.056233
C36   C     C_R   0.500973 0.050482 0.500293 -0.050978
C37   C     C_R   0.547829 0.898609 0.406754 -0.117860
C38   C     C_R   0.548483 0.101220 0.407255 -0.111662
C39   C     C_R   0.411233 0.949745 0.691686 0.405616
C40   C     C_R   0.407316 0.050471 0.687771 0.371045
C41   C     C_R   0.597768 0.050309 0.315893 0.405398
C42   C     C_R   0.595206 0.949359 0.313362 0.421285
H15   H     H_    0.581757 0.756883 0.338981 0.168815
H16   H     H_    0.581857 0.242971 0.338926 0.165163
H17   H     H_    0.420457 0.757412 0.663215 0.201634
H18   H     H_    0.420303 0.242147 0.661972 0.211812
O9    O     O_3   0.089213 0.282079 0.685921 -0.632104
C43   C     C_3   0.083786 0.303965 0.815089 -0.194379
H19   H     H_    0.013757 0.299355 0.849858 0.146704
H20   H     H_    0.112309 0.375723 0.835681 0.218682
H21   H     H_    0.123351 0.251120 0.868257 0.205992
N3    N     N_R   0.911194 0.721694 0.301316 0.210556
O10   O     O_R   0.852516 0.699628 0.216055 -0.384061
O11   O     O_R   0.941338 0.808743 0.306133 -0.360983
O12   O     O_3   0.369219 0.901544 0.788454 -0.564435
C44   C     C_3   0.428080 0.898791 0.891566 -0.192791
H22   H     H_    0.449446 0.971464 0.921301 0.170905
H23   H     H_    0.487428 0.853948 0.869929 0.108571
H24   H     H_    0.392894 0.866395 0.972710 0.230261
O13   O     O_3   0.363091 0.099209 0.782084 -0.602310
C45   C     C_3   0.271911 0.104494 0.750361 -0.093517
H25   H     H_    0.241755 0.032550 0.737008 0.174985
H26   H     H_    0.261929 0.148860 0.664999 0.163964
H27   H     H_    0.235919 0.139035 0.829090 0.209923
O14   O     O_3   0.645294 0.098853 0.224552 -0.611902
C46   C     C_3   0.734086 0.109886 0.266124 -0.235665
H28   H     H_    0.767489 0.039651 0.277865 0.218507
H29   H     H_    0.737264 0.151409 0.355217 0.135721
H30   H     H_    0.771969 0.150316 0.194024 0.192992
O15   O     O_3   0.644809 0.900532 0.224486 -0.573078
C47   C     C_3   0.592284 0.889423 0.115872 -0.272853
H31   H     H_    0.577169 0.959645 0.072528 0.189102
H32   H     H_    0.529348 0.849767 0.136261 0.137415
H33   H     H_    0.630583 0.847065 0.046181 0.197034
N4    N     N_R   0.355804 0.618701 0.133985 0.250543
O16   O     O_R   0.281749 0.576725 0.102372 -0.248879
O17   O     O_R   0.351852 0.690391 0.211576 -0.400805
N5    N     N_R   0.353392 0.378997 0.134063 0.270118
O18   O     O_R   0.321537 0.425378 0.229856 -0.365059
O19   O     O_R   0.318514 0.296334 0.107244 -0.337286
N6    N     N_R   0.354951 0.625096 0.872989 0.265874
O20   O     O_R   0.319473 0.705833 0.906504 -0.318051
O21   O     O_R   0.324314 0.584531 0.771975 -0.378017
N7    N     N_R   0.339997 0.401586 0.878431 0.250922
O22   O     O_R   0.321931 0.334273 0.798454 -0.436261
O23   O     O_R   0.273648 0.448665 0.926863 -0.274095

loop_
_geom_bond_atom_site_label_1
_geom_bond_atom_site_label_2
_geom_bond_distance
_ccdc_geom_bond_type
C6    C10   1.579140 S    
C45   H25   1.113267 S    
N4    O16   1.298715 A    
C16   C19   1.396754 A    
O9    C43   1.411314 S    
C3    C14   1.431095 S    
C17   C18   1.418310 A    
H6    C9    1.114479 S    
Zn1   N1    2.002812 S    
C29   H15   1.082154 S    
Zn2   N2    2.002819 S    
N5    O19   1.301728 A    
O12   C44   1.410456 S    
C27   C28   1.393710 A    
C25   N3    1.437582 S    
C5    C7    1.555535 S    
C42   O15   1.382994 S    
C43   H20   1.113796 S    
C7    H3    1.116229 S    
C19   C20   1.393106 A    
C20   C21   1.406702 A    
O7    C4    1.280546 A    
N3    O11   1.301327 A    
C31   C33   1.412532 A    
C32   C34   1.411190 A    
C34   C36   1.410104 A    
C16   C17   1.412426 A    
C23   C24   1.396957 A    
C35   C37   1.410628 A    
O5    C3    1.283503 A    
N7    O22   1.298845 A    
C36   C38   1.410743 A    
O1    Zn1   2.012957 S    
C6    N5    1.474912 S    
C2    C10   1.453850 S    
C43   H21   1.107160 S    
C23   C28   1.383874 A    
H5    C9    1.114551 S    
C6    C8    1.552237 S    
C34   C40   1.410476 A    
N4    O17   1.301657 A    
C13   H9    1.081737 S    
C9    C12   1.531272 S    
N6    O21   1.300304 A    
O3    Zn1   2.007851 S    
C46   H29   1.113576 S    
N5    O18   1.299258 A    
C47   H32   1.113814 S    
C47   H31   1.112242 S    
C8    C11   1.573461 S    
C29   N1    1.363141 A    
C30   N2    1.364389 A    
C33   C35   1.411382 A    
C43   H19   1.112536 S    
C41   C42   1.416199 A    
C38   C41   1.413224 A    
O3    C2    1.279502 A    
C21   C22   1.415820 A    
O13   C45   1.408997 S    
C28   H13   1.084925 S    
C1    C27   1.431317 S    
C46   H30   1.109228 S    
C31   H17   1.081889 S    
O1    C1    1.282782 A    
Zn1   O7    2.009218 S    
C11   C12   1.557527 S    
C19   H11   1.084429 S    
C39   O12   1.382603 S    
C13   C14   1.394661 A    
C30   H16   1.082107 S    
Zn2   O8    2.007954 S    
O15   C47   1.408684 S    
C41   O14   1.382841 S    
C15   C16   1.380232 A    
C5    N4    1.474139 S    
C8    N7    1.474234 S    
Zn2   O6    2.012686 S    
C22   C23   1.409832 A    
C8    H4    1.116584 S    
H8    C12   1.114373 S    
C44   H23   1.112955 S    
C45   H26   1.113168 S    
C24   C25   1.395233 A    
N6    O20   1.300625 A    
C7    C11   1.578833 S    
O14   C46   1.410028 S    
C47   H33   1.109186 S    
C26   C27   1.393011 A    
C26   H12   1.082969 S    
H7    C12   1.114435 S    
C5    H1    1.117489 S    
C37   C42   1.412493 A    
N3    O10   1.301480 A    
O2    Zn2   2.014725 S    
O8    C4    1.282931 A    
O6    C3    1.282845 A    
C40   O13   1.382286 S    
O4    Zn2   2.009115 S    
C21   C26   1.386896 A    
C44   H24   1.108396 S    
C14   C15   1.391136 A    
N1    C31   1.363042 A    
O2    C1    1.284196 A    
C33   C39   1.411488 A    
C29   C37   1.413487 A    
C32   H18   1.075611 S    
C5    C10   1.576654 S    
O4    C2    1.281107 A    
C30   C38   1.414923 A    
C46   H28   1.112948 S    
N2    C32   1.360821 A    
C17   C22   1.392494 A    
C35   C36   1.418153 A    
N7    O23   1.299023 A    
Zn1   O5    2.014455 S    
C6    H2    1.116534 S    
C39   C40   1.414469 A    
C45   H27   1.107029 S    
C9    C10   1.552962 S    
C15   H10   1.085556 S    
C13   C18   1.391821 A    
C18   C25   1.415071 A    
C4    C11   1.456251 S    
C44   H22   1.113075 S    
C24   H14   1.084640 S    
C20   O9    1.383248 S    
C7    N6    1.477544 S    
