data_mof_unit_7297.cif
_audit_creation_date              2012-12-10T16:51:12-0500
_audit_creation_method            fapswitch 2.2
_symmetry_space_group_name_H-M    P1
_symmetry_Int_Tables_number       1
_space_group_crystal_system       triclinic
_cell_length_a                    27.774451
_cell_length_b                    8.745005
_cell_length_c                    7.459186
_cell_angle_alpha                 103.030953
_cell_angle_beta                  94.620647
_cell_angle_gamma                 93.184161
_cell_volume                      1754.27703105

loop_
_atom_site_label
_atom_site_type_symbol
_atom_type_description
_atom_site_fract_x
_atom_site_fract_y
_atom_site_fract_z
_atom_type_partial_charge
C1    C     C_R   0.497687 0.200338 0.454063 0.816990
C2    C     C_R   0.502313 0.799662 0.545937 0.816990
C3    C     C_R   0.102238 0.498725 0.510271 -0.043213
C4    C     C_R   0.897763 0.501283 0.489731 -0.043213
C5    C     C_R   0.124488 0.355442 0.475061 -0.020742
C6    C     C_R   0.875512 0.644565 0.524944 -0.020741
C7    C     C_R   0.095930 0.213567 0.436677 -0.151771
C8    C     C_R   0.904071 0.786440 0.563331 -0.151772
C9    C     C_R   0.131449 0.641372 0.549881 -0.022151
C10   C     C_R   0.868551 0.358635 0.450118 -0.022150
C11   C     C_R   0.354634 0.498805 0.505810 -0.035509
C12   C     C_R   0.645366 0.501197 0.494190 -0.035509
C13   C     C_R   0.970804 0.354665 0.459155 0.044081
C14   C     C_R   0.029196 0.645342 0.540847 0.044081
C15   C     C_R   0.977901 0.645983 0.535043 0.045551
C16   C     C_R   0.022099 0.354025 0.464960 0.045552
C17   C     C_R   0.949056 0.500642 0.494580 0.068233
C18   C     C_R   0.050945 0.499365 0.505422 0.068233
C19   C     C_R   0.940151 0.213768 0.418617 -0.214509
C20   C     C_R   0.059849 0.786239 0.581382 -0.214508
C21   C     C_R   0.890178 0.216130 0.414486 -0.141855
C22   C     C_R   0.109823 0.783878 0.585511 -0.141855
C23   C     C_R   0.407513 0.499547 0.501733 0.786291
C24   C     C_R   0.592487 0.500453 0.498267 0.786291
C25   C     C_R   0.045867 0.212460 0.431779 -0.212560
C26   C     C_R   0.954133 0.787547 0.568228 -0.212560
C27   C     C_2   0.490847 0.033905 0.432742 -0.247515
C28   C     C_2   0.509153 0.966095 0.567257 -0.247514
C29   C     C_R   0.175109 0.357481 0.478338 0.535954
C30   C     C_R   0.824891 0.642526 0.521667 0.535952
C31   C     C_R   0.181936 0.638110 0.552025 0.540268
C32   C     C_R   0.818064 0.361897 0.447973 0.540267
C33   C     C_R   0.274257 0.477048 0.344159 -0.100161
C34   C     C_R   0.725744 0.523011 0.655846 -0.100157
C35   C     C_R   0.324331 0.478110 0.340470 -0.203472
C36   C     C_R   0.675670 0.521946 0.659535 -0.203476
C37   C     C_R   0.333911 0.518422 0.674731 -0.190250
C38   C     C_R   0.666088 0.481529 0.325265 -0.190254
C39   C     C_R   0.283782 0.517747 0.677947 -0.105333
C40   C     C_R   0.716217 0.482205 0.322049 -0.105332
C41   C     C_R   0.253943 0.496997 0.512710 0.363258
C42   C     C_R   0.746056 0.503010 0.487291 0.363246
Cu1   Cu    Cu3+1 0.505380 0.517380 0.684380 1.061102
Cu2   Cu    Cu3+1 0.494620 0.482620 0.315620 1.061101
H1    H     H_    0.356348 0.534530 0.804230 0.177453
H2    H     H_    0.643650 0.465379 0.195761 0.177456
H3    H     H_    0.268082 0.533251 0.808541 0.136015
H4    H     H_    0.731916 0.466661 0.191451 0.136027
H5    H     H_    0.112179 0.101817 0.409527 0.185164
H6    H     H_    0.887822 0.898191 0.590483 0.185165
H7    H     H_    0.660768 0.537420 0.791692 0.163373
H8    H     H_    0.339233 0.462677 0.208317 0.163371
H9    H     H_    0.748823 0.538791 0.783787 0.136652
H10   H     H_    0.251179 0.461309 0.216223 0.136642
H11   H     H_    0.868482 0.104846 0.383119 0.193933
H12   H     H_    0.131518 0.895161 0.616876 0.193932
H13   H     H_    0.953290 0.098277 0.388730 0.137639
H14   H     H_    0.046710 0.901730 0.611266 0.137638
H15   H     H_    0.027084 0.097390 0.401047 0.134303
H16   H     H_    0.972916 0.902617 0.598963 0.134304
N1    N     N_R   0.202545 0.497509 0.515722 -0.473831
N2    N     N_R   0.797455 0.502498 0.484280 -0.473829
N3    N     N_2   0.486510 0.456430 0.038510 0.146733
N4    N     N_2   0.513490 0.543570 0.961490 0.146733
O1    O     O_R   0.503500 0.286120 0.619780 -0.535232
O2    O     O_R   0.496500 0.713880 0.380220 -0.535233
O3    O     O_R   0.494410 0.256780 0.308360 -0.595880
O4    O     O_R   0.505590 0.743220 0.691640 -0.595880
O5    O     O_R   0.434810 0.514700 0.655690 -0.542089
O6    O     O_R   0.565190 0.485300 0.344310 -0.542089
O7    O     O_R   0.425720 0.485350 0.344280 -0.608832
O8    O     O_R   0.574280 0.514650 0.655720 -0.608831
O9    O     O_2   0.196792 0.220874 0.444283 -0.514616
O10   O     O_2   0.803208 0.779133 0.555725 -0.514619
O11   O     O_2   0.789768 0.225877 0.411278 -0.509880
O12   O     O_2   0.210233 0.774130 0.588718 -0.509876
O13   O     O_3   0.453835 0.354386 0.924013 -0.606893
H17   H     H_    0.436714 0.299083 0.005203 0.331860
O14   O     O_3   0.546165 0.645614 0.075987 -0.606889
H18   H     H_    0.563286 0.700917 0.994797 0.331859
C43   C     C_1   0.459391 0.949703 0.270699 0.327660
N5    N     N_1   0.434393 0.883268 0.141755 -0.256214
C44   C     C_1   0.540609 0.050297 0.729301 0.327661
N6    N     N_1   0.565607 0.116732 0.858245 -0.256219

loop_
_geom_bond_atom_site_label_1
_geom_bond_atom_site_label_2
_ccdc_geom_bond_type
Cu1   O8    S    
C8    C26   A    
C23   O5    A    
Cu2   O2    S    
C34   C42   A    
C41   N1    S    
C32   O11   S    
C43   N5    T    
C24   O6    A    
C39   C41   A    
O13   H17   S    
C19   H13   S    
Cu2   O7    S    
C19   C21   A    
C2    O4    A    
C30   O10   S    
C9    C22   A    
C29   O9    S    
C33   H10   S    
C3    C18   A    
C40   H4    S    
C11   C37   A    
C31   N1    A    
C1    O3    A    
Cu1   O4    S    
C1    O1    A    
Cu2   O6    S    
C12   C36   A    
C42   N2    S    
C40   C42   A    
Cu2   N3    S    
C28   C44   S    
Cu1   N4    S    
C5    C29   A    
C10   C21   A    
C29   N1    A    
C13   C19   A    
C14   C20   A    
C27   C43   S    
C7    H5    S    
C4    C6    A    
C5    C7    A    
C15   C26   A    
C6    C8    A    
C2    O2    A    
N3    N4    D    
Cu1   Cu2   S    
C3    C9    A    
C23   O7    A    
C44   N6    T    
Cu1   O1    S    
C36   H7    S    
C4    C17   A    
C6    C30   A    
C20   C22   A    
C30   N2    A    
N4    O14   S    
C37   H1    S    
C8    H6    S    
C35   H8    S    
C24   O8    A    
C39   H3    S    
N3    O13   S    
C16   C25   A    
C15   C17   A    
C21   H11   S    
C14   C18   A    
C4    C10   A    
C3    C5    A    
C22   H12   S    
C12   C24   S    
C7    C25   A    
C13   C17   A    
C33   C41   A    
C11   C35   A    
C32   N2    A    
C37   C39   A    
C38   C40   A    
C31   O12   S    
C26   H16   S    
C11   C23   S    
C33   C35   A    
C34   C36   A    
C12   C38   A    
C38   H2    S    
C9    C31   A    
O14   H18   S    
C10   C32   A    
C34   H9    S    
C16   C18   A    
C13   C16   A    
C27   C28   D    
C1    C27   S    
C14   C15   A    
Cu2   O3    S    
C2    C28   S    
C25   H15   S    
Cu1   O5    S    
C20   H14   S    
