data_mof_unit_20981.cif
_audit_creation_date              2012-10-26T19:40:08-0400
_audit_creation_method            fapswitch 2.2
_symmetry_space_group_name_H-M    P1
_symmetry_Int_Tables_number       1
_space_group_crystal_system       triclinic
_cell_length_a                    14.9985
_cell_length_b                    8.753397
_cell_length_c                    7.528048
_cell_angle_alpha                 103.362038
_cell_angle_beta                  94.334414
_cell_angle_gamma                 94.202792
_cell_volume                      954.631155301

loop_
_atom_site_label
_atom_site_type_symbol
_atom_type_description
_atom_site_fract_x
_atom_site_fract_y
_atom_site_fract_z
_atom_type_partial_charge
C1    C     C_R   0.496084 0.200168 0.453480 0.548883
C2    C     C_R   0.177760 0.354094 0.418777 0.058776
C3    C     C_R   0.767144 0.507442 0.495008 -0.002890
C4    C     C_R   0.232856 0.492558 0.504992 -0.002890
C5    C     C_R   0.803406 0.370380 0.412333 -0.101735
C6    C     C_R   0.196594 0.629620 0.587668 -0.101734
C7    C     C_R   0.895777 0.366124 0.417673 0.000802
C8    C     C_R   0.104223 0.633876 0.582329 0.000802
C9    C     C_R   0.953166 0.503425 0.499451 0.013638
C10   C     C_R   0.046834 0.496575 0.500550 0.013638
C11   C     C_R   0.916874 0.647026 0.579265 0.044391
C12   C     C_R   0.503916 0.799832 0.546520 0.548883
C13   C     C_R   0.083125 0.352974 0.420735 0.044391
C14   C     C_R   0.930840 0.224321 0.344902 -0.107203
C15   C     C_R   0.069160 0.775678 0.655100 -0.107203
C16   C     C_2   0.778758 0.785020 0.673743 0.631517
C17   C     C_2   0.221242 0.214980 0.326255 0.631518
C18   C     C_2   0.415722 0.945578 0.277611 0.625797
C19   C     C_2   0.584278 0.054422 0.722389 0.625796
C20   C     C_2   0.391178 0.386702 0.945446 0.796649
C21   C     C_2   0.608822 0.613297 0.054553 0.796650
C22   C     C_R   0.023296 0.214896 0.348573 0.094222
C23   C     C_R   0.976704 0.785104 0.651428 0.094222
C24   C     C_2   0.482214 0.032492 0.432839 0.021804
C25   C     C_2   0.517786 0.967508 0.567160 0.021804
C26   C     C_R   0.329412 0.498916 0.501803 0.554317
C27   C     C_R   0.670588 0.501084 0.498197 0.554317
C28   C     C_R   0.822240 0.645906 0.581223 0.058776
Cu1   Cu    Cu3+1 0.510010 0.517380 0.684380 1.139869
Cu2   Cu    Cu3+1 0.489990 0.482620 0.315620 1.139870
H1    H     H_    0.759096 0.264862 0.349304 0.136024
H2    H     H_    0.970498 0.013445 0.640351 0.233086
H3    H     H_    0.376486 0.897745 0.006528 0.338430
H4    H     H_    0.623513 0.102255 0.993472 0.338430
H5    H     H_    0.319038 0.190857 0.792606 0.340729
H6    H     H_    0.680962 0.809143 0.207393 0.340731
H7    H     H_    0.240904 0.735137 0.650697 0.136023
H8    H     H_    0.886084 0.118406 0.287084 0.136345
H9    H     H_    0.113915 0.881594 0.712918 0.136345
H10   H     H_    0.755745 0.930424 0.912283 0.346925
H11   H     H_    0.244255 0.069580 0.087713 0.346925
H12   H     H_    0.029504 0.986556 0.359652 0.233086
H13   H     H_    0.029297 0.018724 0.147473 0.244891
H14   H     H_    0.970702 0.981274 0.852530 0.244892
N1    N     N_2   0.474890 0.456420 0.038520 -0.165404
N2    N     N_2   0.525110 0.543580 0.961480 -0.165405
N3    N     N_3   0.054891 0.063080 0.283946 -0.580645
N4    N     N_3   0.945109 0.936920 0.716055 -0.580646
O1    O     O_R   0.506510 0.286130 0.619770 -0.484930
O2    O     O_R   0.788345 0.833922 0.865112 -0.662674
O3    O     O_2   0.266100 0.144956 0.417966 -0.517890
O4    O     O_R   0.211654 0.166081 0.134886 -0.662673
O5    O     O_2   0.352075 0.861773 0.306335 -0.482152
O6    O     O_R   0.425064 0.963153 0.099894 -0.601732
O7    O     O_2   0.647925 0.138226 0.693664 -0.482153
O8    O     O_R   0.574935 0.036849 0.900106 -0.601731
O9    O     O_2   0.324685 0.459438 0.966443 -0.480193
O10   O     O_R   0.382937 0.229606 0.846328 -0.659869
O11   O     O_2   0.675314 0.540561 0.033556 -0.480194
O12   O     O_R   0.493490 0.713870 0.380230 -0.484929
O13   O     O_R   0.617064 0.770394 0.153672 -0.659869
O14   O     O_R   0.489600 0.256770 0.308360 -0.475361
O15   O     O_R   0.510400 0.743230 0.691640 -0.475361
O16   O     O_R   0.378710 0.514640 0.655720 -0.513034
O17   O     O_R   0.621290 0.485360 0.344280 -0.513034
O18   O     O_R   0.361800 0.485290 0.344300 -0.471384
O19   O     O_R   0.638200 0.514710 0.655700 -0.471384
O20   O     O_2   0.733900 0.855043 0.582030 -0.517889

loop_
_geom_bond_atom_site_label_1
_geom_bond_atom_site_label_2
_ccdc_geom_bond_type
C19   O8    S    
C16   C28   S    
C2    C4    A    
Cu1   O15   S    
H4    O8    S    
Cu1   Cu2   S    
C16   O20   D    
C19   O7    D    
C17   O3    D    
C14   H8    S    
H2    N4    S    
C9    C10   A    
Cu1   N2    S    
H11   O4    S    
C4    C26   S    
C20   N1    S    
C12   C25   S    
C1    O14   A    
C14   C22   A    
C15   C23   A    
C22   N3    S    
Cu1   O16   S    
Cu1   O1    S    
N1    N2    D    
C2    C17   S    
C9    C11   A    
C15   H9    S    
Cu2   O18   S    
C1    O1    A    
C11   C28   A    
H5    O10   S    
C18   C24   S    
C17   O4    S    
C3    C27   S    
C3    C28   A    
C16   O2    S    
C13   C22   A    
C21   O11   D    
C8    C15   A    
C5    C7    A    
H12   N3    S    
Cu2   O14   S    
C27   O17   A    
C19   C25   S    
H10   O2    S    
C6    H7    S    
Cu2   O17   S    
C27   O19   A    
C8    C10   A    
C18   O6    S    
C20   O10   S    
H6    O13   S    
C12   O12   A    
Cu1   O19   S    
C24   C25   D    
C1    C24   S    
C4    C6    A    
C21   N2    S    
C11   C23   A    
H3    O6    S    
C7    C9    A    
C2    C13   A    
C26   O16   A    
C6    C8    A    
C23   N4    S    
Cu2   N1    S    
C18   O5    D    
C3    C5    A    
C20   O9    D    
C12   O15   A    
H13   N3    S    
C21   O13   S    
C7    C14   A    
H14   N4    S    
Cu2   O12   S    
C5    H1    S    
C10   C13   A    
C26   O18   A    
