data_mof_unit_53609.cif
_audit_creation_date              2012-12-10T16:57:04-0500
_audit_creation_method            fapswitch 2.2
_symmetry_space_group_name_H-M    P1
_symmetry_Int_Tables_number       1
_space_group_crystal_system       triclinic
_cell_length_a                    7.775284
_cell_length_b                    8.567645
_cell_length_c                    16.653178
_cell_angle_alpha                 91.821039
_cell_angle_beta                  80.44754
_cell_angle_gamma                 93.784052
_cell_volume                      1091.35406855

loop_
_atom_site_label
_atom_site_type_symbol
_atom_type_description
_atom_site_fract_x
_atom_site_fract_y
_atom_site_fract_z
_atom_type_partial_charge
C1    C     C_R   0.546214 0.794799 0.498014 0.961681
C2    C     C_R   0.398773 0.554250 0.222779 -0.339347
C3    C     C_R   0.373561 0.559513 0.880220 0.572813
C4    C     C_R   0.420059 0.590692 0.140180 0.572232
C5    C     C_R   0.491882 0.687888 0.891172 0.072318
C6    C     C_R   0.588190 0.584312 0.092498 0.029156
C7    C     C_R   0.591681 0.763085 0.824556 -0.307956
C8    C     C_R   0.729311 0.541743 0.127401 -0.260825
C9    C     C_R   0.587919 0.701558 0.747008 -0.185484
C10   C     C_R   0.707117 0.510078 0.209463 -0.212436
C11   C     C_2   0.540686 0.719908 0.971124 0.451299
C12   C     C_R   0.453768 0.205206 0.502154 0.969481
C13   C     C_2   0.616777 0.605229 0.004191 0.368701
C14   C     C_3   0.858155 0.535548 0.915468 -0.332539
C15   C     C_3   0.618852 0.951023 0.030531 -0.387768
C16   C     C_3   0.172676 0.729118 0.145735 -0.235039
C17   C     C_3   0.277110 0.330113 0.947426 -0.251623
C18   C     C_2   0.570543 0.958313 0.496995 -0.384705
C19   C     C_2   0.429414 0.041689 0.503450 -0.383034
C20   C     C_R   0.478622 0.509439 0.653911 0.878990
C21   C     C_R   0.523353 0.499273 0.345378 0.889239
C22   C     C_R   0.478019 0.569434 0.735668 -0.054673
C23   C     C_R   0.542283 0.517915 0.257738 -0.090730
C24   C     C_R   0.362966 0.504564 0.800882 -0.350419
H1    H     H_    0.271100 0.408792 0.790051 0.141152
H2    H     H_    0.977091 0.619751 0.560658 0.188559
H3    H     H_    0.936052 0.606232 0.955595 0.186769
H4    H     H_    0.848204 0.603370 0.861110 0.172133
H5    H     H_    0.931369 0.431483 0.893690 0.217781
H6    H     H_    0.705218 0.985637 0.972832 0.166764
H7    H     H_    0.695685 0.898279 0.072213 0.154220
H8    H     H_    0.566728 0.059292 0.060800 0.220224
H9    H     H_    0.252307 0.829534 0.167729 0.166930
H10   H     H_    0.080074 0.676522 0.197124 0.132051
H11   H     H_    0.093513 0.776417 0.103556 0.191130
H12   H     H_    0.270387 0.553629 0.259691 0.164973
H13   H     H_    0.412570 0.292924 0.927748 0.194670
H14   H     H_    0.187301 0.272369 0.908688 0.135836
H15   H     H_    0.233111 0.288877 0.010413 0.205165
H16   H     H_    0.819615 0.480252 0.235097 0.172329
H17   H     H_    0.672286 0.755889 0.695727 0.149240
H18   H     H_    0.683550 0.860427 0.833121 0.153830
H19   H     H_    0.857567 0.533022 0.091237 0.200762
H20   H     H_    0.703745 0.009526 0.490872 0.179021
H21   H     H_    0.296209 0.990468 0.509603 0.179027
H22   H     H_    0.022908 0.380294 0.439319 0.187717
N1    N     N_2   0.953500 0.457650 0.478520 -0.175606
N2    N     N_2   0.046500 0.542350 0.521480 -0.172374
O1    O     O_R   0.388470 0.738640 0.505270 -0.610393
O2    O     O_3   0.476928 0.849439 0.015502 -0.605348
O3    O     O_3   0.276766 0.614328 0.103064 -0.567199
O4    O     O_3   0.268073 0.494293 0.947936 -0.601055
O5    O     O_R   0.611530 0.261360 0.494730 -0.609341
O6    O     O_R   0.679650 0.711510 0.491500 -0.633983
O7    O     O_R   0.320350 0.288490 0.508500 -0.627891
O8    O     O_R   0.337210 0.515200 0.623500 -0.610190
O9    O     O_R   0.662790 0.484800 0.376500 -0.622917
O10   O     O_R   0.628380 0.488060 0.609730 -0.620863
O11   O     O_R   0.371620 0.511940 0.390270 -0.626983
O12   O     O_3   0.691067 0.483696 0.956114 -0.637741
Zn1   Zn    Zn3+2 0.305580 0.518120 0.509190 0.938734
Zn2   Zn    Zn3+2 0.694420 0.481880 0.490810 0.933532

loop_
_geom_bond_atom_site_label_1
_geom_bond_atom_site_label_2
_ccdc_geom_bond_type
O10   Zn2   S    
C2    C4    A    
C3    O4    S    
C16   O3    S    
C15   H7    S    
C18   H20   S    
C14   H3    S    
C14   O12   S    
O5    Zn2   S    
C7    H18   S    
C9    H17   S    
N1    N2    D    
C8    H19   S    
H2    N2    S    
C1    O6    A    
C16   H10   S    
N1    Zn2   S    
C19   H21   S    
N2    Zn1   S    
C15   H8    S    
C16   H11   S    
C11   O2    S    
C17   H13   S    
C24   H1    S    
C6    C13   S    
C21   O9    A    
C11   C13   D    
C1    C18   S    
O7    Zn1   S    
C17   O4    S    
C4    C6    A    
C20   C22   S    
C21   O11   A    
C5    C7    A    
C20   O8    A    
C21   C23   S    
C5    C11   S    
C10   C23   A    
C22   C24   A    
C9    C22   A    
O11   Zn1   S    
C12   O7    A    
O1    Zn1   S    
C4    O3    S    
C20   O10   A    
O9    Zn2   S    
C17   H14   S    
C12   C19   S    
C15   H6    S    
C10   H16   S    
C16   H9    S    
C17   H15   S    
C15   O2    S    
C2    H12   S    
C2    C23   A    
C7    C9    A    
H22   N1    S    
C18   C19   D    
C6    C8    A    
C14   H5    S    
C14   H4    S    
O8    Zn1   S    
C1    O1    A    
C8    C10   A    
O6    Zn2   S    
C13   O12   S    
C12   O5    A    
C3    C24   A    
C3    C5    A    
