data_mof_unit_9179.cif
_audit_creation_date              2012-12-10T19:46:24-0500
_audit_creation_method            fapswitch 2.2
_symmetry_space_group_name_H-M    P1
_symmetry_Int_Tables_number       1
_space_group_crystal_system       triclinic
_cell_length_a                    10.895005
_cell_length_b                    10.890291
_cell_length_c                    10.41479
_cell_angle_alpha                 91.943327
_cell_angle_beta                  91.680498
_cell_angle_gamma                 90.261929
_cell_volume                      1234.45144414

loop_
_atom_site_label
_atom_site_type_symbol
_atom_type_description
_atom_site_fract_x
_atom_site_fract_y
_atom_site_fract_z
_atom_type_partial_charge
C1    C     C_R   0.500472 0.261356 0.497868 0.819986
C2    C     C_R   0.499523 0.738645 0.502132 0.820039
C3    C     C_R   0.872193 0.497718 0.506103 -0.080337
C4    C     C_R   0.127807 0.502267 0.493897 -0.080339
C5    C     C_R   0.944302 0.518523 0.620281 0.029369
C6    C     C_R   0.055700 0.481462 0.379721 0.029358
C7    C     C_R   0.456557 0.161194 0.043621 -0.148478
C8    C     C_R   0.543528 0.838675 0.956310 -0.148440
C9    C     C_R   0.436452 0.123998 0.168713 0.313918
C10   C     C_R   0.563585 0.875889 0.831216 0.314045
C11   C     C_R   0.537062 0.106929 0.254242 0.045877
C12   C     C_R   0.462957 0.893076 0.745771 0.045830
C13   C     C_R   0.656842 0.124756 0.212247 -0.171451
C14   C     C_R   0.343216 0.875377 0.787863 -0.171650
C15   C     C_R   0.676205 0.159671 0.086602 -0.097375
C16   C     C_R   0.323904 0.840449 0.913513 -0.097387
C17   C     C_R   0.576211 0.178637 0.002577 -0.184580
C18   C     C_R   0.423911 0.821345 0.997446 -0.184737
C19   C     C_R   0.518906 0.929357 0.388686 -0.180558
C20   C     C_R   0.481074 0.070645 0.611316 -0.180614
C21   C     C_R   0.499884 0.872160 0.504899 -0.071480
C22   C     C_R   0.500101 0.127841 0.495103 -0.071515
C23   C     C_R   0.261336 0.500463 0.497667 0.814149
C24   C     C_R   0.738664 0.499533 0.502333 0.814168
C25   C     C_R   0.481117 0.943956 0.617957 0.039465
C26   C     C_R   0.518867 0.056046 0.382047 0.039460
C27   C     C_1   0.500078 0.499984 0.071912 0.081244
C28   C     C_1   0.499921 0.500015 0.928088 0.081253
C29   C     C_R   0.194785 0.546741 0.059775 -0.188479
C30   C     C_R   0.805206 0.453323 0.940246 -0.188498
C31   C     C_R   0.161054 0.560666 0.187898 -0.049764
C32   C     C_R   0.838928 0.439371 0.812121 -0.049757
C33   C     C_R   0.104518 0.463137 0.248861 0.059637
C34   C     C_R   0.895490 0.536875 0.751142 0.059676
C35   C     C_R   0.077467 0.353793 0.177484 -0.154902
C36   C     C_R   0.922583 0.646217 0.822509 -0.154838
C37   C     C_R   0.109426 0.341205 0.048510 0.334992
C38   C     C_R   0.890629 0.658833 0.951482 0.334973
C39   C     C_R   0.169405 0.437265 0.990281 -0.176228
C40   C     C_R   0.830622 0.562800 0.009727 -0.176249
C41   C     C_R   0.929111 0.478522 0.388449 -0.220169
C42   C     C_R   0.070891 0.521456 0.611552 -0.220143
Cu1   Cu    Cu3+1 0.500000 0.500000 0.625300 0.990624
Cu2   Cu    Cu3+1 0.500000 0.500000 0.374700 0.990616
H1    H     H_    0.735139 0.108765 0.275918 0.162383
H2    H     H_    0.264912 0.891476 0.724266 0.162499
H3    H     H_    0.768943 0.170772 0.054098 0.189109
H4    H     H_    0.231200 0.829447 0.946094 0.189272
H5    H     H_    0.534039 0.875302 0.301216 0.160115
H6    H     H_    0.465949 0.124703 0.698786 0.160115
H7    H     H_    0.177945 0.647569 0.239205 0.154705
H8    H     H_    0.822008 0.352466 0.760825 0.154676
H9    H     H_    0.029125 0.279616 0.221312 0.177957
H10   H     H_    0.970948 0.720374 0.778670 0.177963
H11   H     H_    0.874397 0.461868 0.300882 0.156482
H12   H     H_    0.125606 0.538110 0.699117 0.156483
N1    N     N_1   0.500010 0.499990 0.186410 -0.145300
N2    N     N_1   0.499990 0.500010 0.813590 -0.145298
O1    O     O_R   0.499990 0.319650 0.605810 -0.593151
O2    O     O_R   0.500010 0.680350 0.394190 -0.593154
O3    O     O_R   0.499990 0.319640 0.394190 -0.564836
O4    O     O_R   0.500010 0.680360 0.605810 -0.564822
O5    O     O_R   0.319640 0.500010 0.605810 -0.587439
O6    O     O_R   0.680360 0.499990 0.394190 -0.587444
O7    O     O_R   0.319650 0.500010 0.394190 -0.573300
O8    O     O_R   0.680350 0.499990 0.605810 -0.573294
H13   H     H_    0.194969 0.427705 0.890855 0.158532
H14   H     H_    0.805062 0.572381 0.109153 0.158535
H15   H     H_    0.239624 0.621155 0.013707 0.146512
H16   H     H_    0.760343 0.378931 0.986325 0.146467
Br1   Br    Br    0.066736 0.195106 0.950123 -0.486920
Br2   Br    Br    0.933352 0.804942 0.049843 -0.486884
H17   H     H_    0.591537 0.205756 0.905288 0.159328
H18   H     H_    0.408624 0.794211 0.094736 0.159359
H19   H     H_    0.379648 0.174409 0.977419 0.181580
H20   H     H_    0.620451 0.825360 0.022444 0.181569
Br3   Br    Br    0.271755 0.091642 0.218482 -0.501242
Br4   Br    Br    0.728252 0.908126 0.781337 -0.501270

loop_
_geom_bond_atom_site_label_1
_geom_bond_atom_site_label_2
_ccdc_geom_bond_type
C30   C32   A    
C5    C42   A    
C35   H9    S    
C15   H3    S    
C16   H4    S    
C10   Br4   S    
Cu1   O5    S    
C14   H2    S    
Cu2   O6    S    
C19   C21   A    
C1    O1    A    
C2    O2    A    
C20   C25   A    
C8    H20   S    
C15   C17   A    
C19   C26   A    
C32   H8    S    
C20   H6    S    
Cu1   N2    S    
C42   H12   S    
C41   H11   S    
C7    C17   A    
C6    C41   A    
C31   C33   A    
Cu1   O1    S    
C23   O5    A    
C1    C22   S    
C18   H18   S    
C17   H17   S    
Cu2   O7    S    
C30   H16   S    
C29   H15   S    
C38   Br2   S    
C4    C6    A    
C27   N1    T    
C31   H7    S    
C4    C23   S    
C7    H19   S    
C11   C26   S    
C8    C18   A    
C32   C34   A    
Cu1   Cu2   S    
C19   H5    S    
Cu2   N1    S    
C29   C31   A    
C5    C34   S    
C29   C39   A    
C2    C21   S    
C30   C40   A    
C9    Br3   S    
C9    C11   A    
C10   C12   A    
C16   C18   A    
C20   C22   A    
C13   C15   A    
C22   C26   A    
C14   C16   A    
C13   H1    S    
C7    C9    A    
C21   C25   A    
C3    C41   A    
C35   C37   A    
C39   H13   S    
C3    C24   S    
C3    C5    A    
C1    O3    A    
C28   N2    T    
Cu2   O3    S    
C6    C33   S    
C12   C25   S    
C23   O7    A    
C37   Br1   S    
C12   C14   A    
C37   C39   A    
C38   C40   A    
C11   C13   A    
C4    C42   A    
Cu2   O2    S    
Cu1   O8    S    
C36   C38   A    
C33   C35   A    
C24   O6    A    
C34   C36   A    
C36   H10   S    
C24   O8    A    
C8    C10   A    
C40   H14   S    
C27   C28   S    
C2    O4    A    
Cu1   O4    S    
