data_mof_unit_18168.cif
_audit_creation_date              2012-12-10T19:03:42-0500
_audit_creation_method            fapswitch 2.2
_symmetry_space_group_name_H-M    P1
_symmetry_Int_Tables_number       1
_space_group_crystal_system       triclinic
_cell_length_a                    15.879405
_cell_length_b                    10.827206
_cell_length_c                    9.539992
_cell_angle_alpha                 90.109376
_cell_angle_beta                  90.026017
_cell_angle_gamma                 89.84724
_cell_volume                      1640.19792094

loop_
_atom_site_label
_atom_site_type_symbol
_atom_type_description
_atom_site_fract_x
_atom_site_fract_y
_atom_site_fract_z
_atom_type_partial_charge
C1    C     C_R   0.501286 0.262336 0.499808 0.794217
C2    C     C_R   0.509516 0.129361 0.498892 -0.090896
C3    C     C_R   0.514863 0.064022 0.371641 -0.225941
C4    C     C_R   0.340171 0.500445 0.500034 0.840974
C5    C     C_R   0.515236 0.935235 0.371984 -0.227495
C6    C     C_R   0.510252 0.870637 0.499572 -0.099759
C7    C     C_R   0.517047 0.937178 0.624807 0.067387
C8    C     C_3   0.469965 0.932682 0.761316 -0.199073
C9    C     C_3   0.468732 0.073671 0.758513 -0.495571
C10   C     C_R   0.572060 0.524445 0.073702 0.265346
C11   C     C_R   0.431172 0.463220 0.074160 -0.099478
C12   C     C_3   0.950781 0.472308 0.646252 -0.413962
C13   C     C_R   0.431180 0.463162 0.925486 -0.096767
C14   C     C_R   0.572218 0.523878 0.926443 0.268484
C15   C     C_3   0.624223 0.638158 0.920487 -0.521313
C16   C     C_R   0.501755 0.737659 0.500077 0.809811
C17   C     C_3   0.623416 0.639291 0.079782 -0.506784
C18   C     C_R   0.659760 0.499820 0.499954 0.825452
C19   C     C_3   0.048348 0.473091 0.646926 -0.382428
C20   C     C_3   0.049224 0.404050 0.394884 -0.386927
C21   C     C_3   0.951659 0.401358 0.396888 -0.377070
C22   C     C_1   0.749316 0.499742 0.499772 -0.183565
C23   C     C_3   0.917002 0.502163 0.497368 0.292399
C24   C     C_3   0.082713 0.502771 0.498615 0.316745
C25   C     C_R   0.911471 0.684798 0.321410 0.136707
C26   C     C_R   0.846650 0.773483 0.332215 -0.160324
C27   C     C_R   0.808014 0.821033 0.212105 -0.136136
C28   C     C_R   0.833578 0.781156 0.079538 -0.121537
C29   C     C_R   0.897790 0.693584 0.066853 -0.152636
C30   C     C_R   0.936602 0.645611 0.186629 -0.144785
C31   C     C_R   0.384078 0.871939 0.754821 0.183769
C32   C     C_R   0.363636 0.781161 0.854227 -0.108691
C33   C     C_R   0.285330 0.722658 0.850176 -0.124885
C34   C     C_3   0.950956 0.632685 0.455263 -0.112173
C35   C     C_R   0.226711 0.754241 0.747075 -0.111196
C36   C     C_R   0.246420 0.843630 0.647084 -0.161977
C37   C     C_R   0.324621 0.902491 0.650680 -0.156843
C38   C     C_3   0.049191 0.631201 0.452700 -0.407893
C39   C     C_1   0.824803 0.500218 0.498960 -0.108305
C40   C     C_1   0.174900 0.502077 0.499504 -0.113743
C41   C     C_1   0.250472 0.501315 0.499910 -0.182035
C42   C     C_R   0.516714 0.064139 0.624159 0.097658
Cu1   Cu    Cu3+1 0.500000 0.499980 0.640670 0.941647
Cu2   Cu    Cu3+1 0.500000 0.500020 0.359330 0.935507
H1    H     H_    0.927872 0.380150 0.680762 0.170744
H2    H     H_    0.072114 0.381375 0.681903 0.164212
H3    H     H_    0.374986 0.434797 0.870412 0.145263
H4    H     H_    0.687784 0.620286 0.875921 0.198176
H5    H     H_    0.590036 0.717074 0.872875 0.204476
H6    H     H_    0.686391 0.622159 0.126760 0.217910
H7    H     H_    0.588309 0.718915 0.124867 0.202815
H8    H     H_    0.071819 0.424056 0.286966 0.153633
H9    H     H_    0.074038 0.311309 0.423951 0.162812
H10   H     H_    0.930383 0.308741 0.432694 0.162867
H11   H     H_    0.926158 0.413074 0.289412 0.163891
H12   H     H_    0.070949 0.542681 0.723904 0.151450
H13   H     H_    0.073325 0.703416 0.525428 0.143031
H14   H     H_    0.074622 0.654678 0.347605 0.160939
H15   H     H_    0.933028 0.696475 0.542265 0.111614
H16   H     H_    0.825163 0.805030 0.433912 0.110375
H17   H     H_    0.757865 0.888413 0.221911 0.129624
H18   H     H_    0.803384 0.817738 0.986669 0.125059
H19   H     H_    0.917602 0.662792 0.963993 0.115939
H20   H     H_    0.986477 0.578672 0.172986 0.115243
H21   H     H_    0.408396 0.755323 0.934809 0.115260
H22   H     H_    0.270081 0.652860 0.927115 0.115210
H23   H     H_    0.926781 0.541241 0.723297 0.152291
H24   H     H_    0.165994 0.709568 0.744757 0.113013
H25   H     H_    0.201021 0.867459 0.566844 0.125130
H26   H     H_    0.338798 0.971386 0.572117 0.134635
H27   H     H_    0.514515 0.111630 0.271892 0.166295
H28   H     H_    0.514984 0.887097 0.272395 0.158159
H29   H     H_    0.510604 0.897368 0.847342 0.131689
H30   H     H_    0.405504 0.116372 0.744574 0.192222
H31   H     H_    0.507209 0.115766 0.843356 0.189822
H32   H     H_    0.374992 0.434777 0.129008 0.145368
N1    N     N_R   0.500530 0.500930 0.147930 -0.185188
N2    N     N_R   0.500530 0.500890 0.852020 -0.184519
O1    O     O_R   0.500000 0.319640 0.618810 -0.577697
O2    O     O_R   0.500010 0.319680 0.381230 -0.586169
O3    O     O_R   0.379430 0.499990 0.618840 -0.577165
O4    O     O_R   0.379440 0.500030 0.381260 -0.586876
O5    O     O_R   0.499990 0.680320 0.618770 -0.575541
O6    O     O_R   0.500000 0.680360 0.381190 -0.586091
O7    O     O_R   0.620560 0.499970 0.618740 -0.580627
O8    O     O_R   0.620570 0.500010 0.381160 -0.575210

loop_
_geom_bond_atom_site_label_1
_geom_bond_atom_site_label_2
_ccdc_geom_bond_type
C19   H12   S    
C29   H19   S    
C30   H20   S    
Cu1   O5    S    
C35   C36   A    
C17   H7    S    
C19   H2    S    
C7    C8    S    
Cu1   N2    S    
C12   C23   S    
C9    C42   S    
C18   O8    A    
C28   C29   A    
C5    H28   S    
Cu2   O4    S    
C11   H32   S    
C21   H10   S    
C4    C41   S    
C10   C17   S    
Cu1   O1    S    
C16   O6    A    
C1    C2    S    
C7    C42   A    
C11   N1    A    
C24   C40   S    
C38   H14   S    
C4    O3    A    
C20   C24   S    
C8    C9    S    
C24   C38   S    
C27   H17   S    
C25   C34   S    
C15   H5    S    
C34   C38   S    
C37   H26   S    
C15   H4    S    
Cu2   O8    S    
C10   N1    A    
C33   H22   S    
C12   H23   S    
C18   O7    A    
Cu1   O7    S    
Cu2   O2    S    
C10   C14   A    
C21   H11   S    
C20   H9    S    
C3    C5    A    
C25   C26   A    
C16   O5    A    
C31   C37   A    
C3    H27   S    
Cu1   Cu2   S    
C29   C30   A    
C38   H13   S    
C31   C32   A    
C23   C34   S    
C26   C27   A    
C40   C41   T    
C21   C23   S    
C34   H15   S    
C1    O1    A    
C9    H30   S    
C36   H25   S    
C13   H3    S    
C25   C30   A    
C15   C17   S    
C13   N2    A    
Cu2   N1    S    
Cu1   O3    S    
C18   C22   S    
C8    C31   S    
C12   H1    S    
Cu2   O6    S    
C17   H6    S    
C6    C7    A    
C32   C33   A    
C2    C3    A    
C20   H8    S    
C11   C13   A    
C5    C6    A    
C35   H24   S    
C2    C42   A    
C23   C39   S    
C22   C39   T    
C12   C19   S    
C8    H29   S    
C33   C35   A    
C19   C24   S    
C14   N2    A    
C6    C16   S    
C4    O4    A    
C20   C21   S    
C36   C37   A    
C27   C28   A    
C1    O2    A    
C14   C15   S    
C9    H31   S    
C26   H16   S    
C32   H21   S    
C28   H18   S    
