data_mof_unit_48133.cif
_audit_creation_date              2012-10-26T20:20:44-0400
_audit_creation_method            fapswitch 2.2
_symmetry_space_group_name_H-M    P1
_symmetry_Int_Tables_number       1
_space_group_crystal_system       triclinic
_cell_length_a                    8.79789
_cell_length_b                    10.784045
_cell_length_c                    9.580845
_cell_angle_alpha                 89.26641
_cell_angle_beta                  97.078018
_cell_angle_gamma                 91.917347
_cell_volume                      901.533510213

loop_
_atom_site_label
_atom_site_type_symbol
_atom_type_description
_atom_site_fract_x
_atom_site_fract_y
_atom_site_fract_z
_atom_type_partial_charge
C1    C     C_R   0.494783 0.262437 0.499989 0.516930
C2    C     C_R   0.594537 0.069016 0.600377 -0.084979
C3    C     C_R   0.508598 0.871720 0.499344 -0.034559
C4    C     C_R   0.491398 0.128280 0.500656 -0.034559
C5    C     C_R   0.396739 0.428511 0.065704 0.062537
C6    C     C_R   0.603260 0.571489 0.934296 0.062540
C7    C     C_R   0.395332 0.427125 0.917219 0.130657
C8    C     C_R   0.604668 0.572875 0.082781 0.130655
C9    C     C_2   0.275127 0.118965 0.299119 0.257825
C10   C     C_2   0.724861 0.881034 0.700888 0.257833
C11   C     C_2   0.278790 0.343590 0.837529 0.260074
C12   C     C_R   0.505215 0.737563 0.500011 0.516931
C13   C     C_2   0.721210 0.656410 0.162471 0.260077
C14   C     C_R   0.204738 0.498349 0.464858 0.569563
C15   C     C_R   0.795262 0.501651 0.535142 0.569563
C16   C     C_2   0.040090 0.485184 0.447000 0.091677
C17   C     C_2   0.959910 0.514817 0.553000 0.091676
C18   C     C_R   0.393990 0.059483 0.399652 -0.003728
C19   C     C_R   0.606003 0.940517 0.600350 -0.003728
C20   C     C_R   0.405457 0.930983 0.399624 -0.084975
Cu1   Cu    Cu3+1 0.500000 0.500020 0.640660 0.962923
Cu2   Cu    Cu3+1 0.500000 0.499980 0.359340 0.962919
H1    H     H_    0.329804 0.875810 0.324887 0.188578
H2    H     H_    0.754183 0.785488 0.687595 0.104676
H3    H     H_    0.283548 0.319747 0.730018 0.170567
H4    H     H_    0.716452 0.680252 0.269983 0.170566
H5    H     H_    0.670191 0.124189 0.675114 0.188573
H6    H     H_    0.315808 0.371291 0.116309 0.166371
H7    H     H_    0.684191 0.628709 0.883691 0.166378
H8    H     H_    0.993124 0.489478 0.234094 0.270107
H9    H     H_    0.011902 0.345536 0.305281 0.232420
H10   H     H_    0.006875 0.510522 0.765906 0.270108
H11   H     H_    0.988098 0.654464 0.694719 0.232416
H12   H     H_    0.245831 0.214521 0.312393 0.104686
N1    N     N_R   0.500040 0.500030 0.852080 -0.278464
N2    N     N_R   0.499960 0.499970 0.147920 -0.278464
N3    N     N_3   0.966644 0.432583 0.317494 -0.594112
N4    N     N_3   0.033355 0.567417 0.682505 -0.594112
O1    O     O_R   0.499990 0.319660 0.618740 -0.529766
O2    O     O_2   0.793219 0.938792 0.799474 -0.444447
O3    O     O_2   0.172550 0.297597 0.893504 -0.507488
O4    O     O_2   0.827449 0.702405 0.106495 -0.507474
O5    O     O_R   0.500010 0.680340 0.381260 -0.529767
O6    O     O_R   0.499990 0.319630 0.381170 -0.499368
O7    O     O_R   0.500010 0.680370 0.618830 -0.499363
O8    O     O_R   0.274840 0.500010 0.591370 -0.489686
O9    O     O_R   0.725160 0.499990 0.408630 -0.489686
O10   O     O_R   0.274830 0.499980 0.353800 -0.518324
O11   O     O_R   0.725170 0.500020 0.646200 -0.518323
O12   O     O_2   0.206731 0.061195 0.200561 -0.444454

loop_
_geom_bond_atom_site_label_1
_geom_bond_atom_site_label_2
_ccdc_geom_bond_type
Cu2   O10   S    
C5    C7    A    
C3    C19   A    
C2    H5    S    
Cu1   N1    S    
H10   N4    S    
C5    H6    S    
Cu2   N2    S    
C10   C19   S    
C1    O6    A    
C2    C4    A    
H11   N4    S    
Cu1   O1    S    
C20   H1    S    
C15   O9    A    
C16   N3    S    
C1    C4    S    
C4    C18   A    
Cu1   O11   S    
Cu2   O9    S    
C3    C20   A    
C14   O8    A    
Cu1   Cu2   S    
C7    C11   S    
C8    C13   S    
C13   O4    D    
C11   O3    D    
C12   O5    A    
Cu1   O7    S    
C17   N4    S    
C15   O11   A    
C9    H12   S    
C14   C16   S    
C13   H4    S    
C1    O1    A    
C5    N2    A    
H9    N3    S    
C9    C18   S    
C6    H7    S    
C6    N1    A    
C18   C20   A    
C10   O2    D    
Cu1   O8    S    
C8    N2    A    
C15   C17   S    
C14   O10   A    
C11   H3    S    
C12   O7    A    
C6    C8    A    
C3    C12   S    
C10   H2    S    
C2    C19   A    
C7    N1    A    
Cu2   O6    S    
C9    O12   D    
Cu2   O5    S    
H8    N3    S    
C16   C17   D    
