data_mof_unit_31156.cif
_audit_creation_date              2012-12-10T16:52:40-0500
_audit_creation_method            fapswitch 2.2
_symmetry_space_group_name_H-M    P1
_symmetry_Int_Tables_number       1
_space_group_crystal_system       triclinic
_cell_length_a                    7.984453
_cell_length_b                    8.564322
_cell_length_c                    13.803414
_cell_angle_alpha                 95.820761
_cell_angle_beta                  93.76669
_cell_angle_gamma                 93.043698
_cell_volume                      935.302569395

loop_
_atom_site_label
_atom_site_type_symbol
_atom_type_description
_atom_site_fract_x
_atom_site_fract_y
_atom_site_fract_z
_atom_type_partial_charge
C1    C     C_R   0.043860 0.793865 0.498711 0.956984
C2    C     C_R   0.936273 0.486552 0.318319 0.852532
C3    C     C_R   0.093821 0.518199 0.787058 -0.051975
C4    C     C_R   0.899868 0.457267 0.213432 -0.062440
C5    C     C_R   0.038847 0.622949 0.949928 -0.186433
C6    C     C_R   0.924264 0.296456 0.061705 -0.186935
C7    C     C_R   0.989136 0.596358 0.850808 -0.202137
C8    C     C_R   0.988620 0.350860 0.156020 -0.200306
C9    C     C_R   0.239380 0.455555 0.823152 -0.279964
C10   C     C_R   0.752972 0.514322 0.175233 -0.285736
C11   C     C_R   0.292422 0.480573 0.922061 0.087324
C12   C     C_R   0.956124 0.206128 0.501247 0.958389
C13   C     C_R   0.676449 0.448731 0.085571 0.089869
C14   C     C_R   0.192777 0.570970 0.985250 0.176638
C15   C     C_R   0.767075 0.342108 0.026818 0.174282
C16   C     C_R   0.447973 0.428316 0.957861 0.064422
C17   C     C_R   0.511822 0.484724 0.053874 0.065020
C18   C     C_3   0.487320 0.365533 0.386948 -0.132325
C19   C     C_3   0.373733 0.217401 0.359186 -0.883263
C20   C     C_3   0.512871 0.633803 0.613355 -0.134419
C21   C     C_3   0.627022 0.781511 0.641790 -0.886336
C22   C     C_R   0.407096 0.571131 0.115958 -0.238794
C23   C     C_R   0.541714 0.321972 0.900884 -0.236812
C24   C     C_R   0.249705 0.611693 0.082194 -0.221350
C25   C     C_R   0.698173 0.279581 0.935203 -0.226345
C26   C     C_2   0.067447 0.957816 0.502058 -0.385673
C27   C     C_2   0.932514 0.042173 0.497858 -0.383904
C28   C     C_R   0.063205 0.510933 0.681688 0.851978
H1    H     H_    0.173812 0.678576 0.131796 0.151931
H2    H     H_    0.494975 0.264115 0.830628 0.146672
H3    H     H_    0.195625 0.008801 0.510251 0.173940
H4    H     H_    0.804298 0.991183 0.489640 0.173629
H5    H     H_    0.375242 0.143708 0.420694 0.255325
H6    H     H_    0.244165 0.244421 0.337188 0.287278
H7    H     H_    0.422342 0.148128 0.295678 0.216501
H8    H     H_    0.484351 0.439504 0.325428 0.167289
H9    H     H_    0.611065 0.319642 0.398106 0.230547
H10   H     H_    0.756078 0.754096 0.664837 0.287735
H11   H     H_    0.627232 0.855251 0.580337 0.256996
H12   H     H_    0.765166 0.196696 0.889877 0.147545
H13   H     H_    0.577460 0.851140 0.704844 0.212940
H14   H     H_    0.389337 0.680269 0.602177 0.229538
H15   H     H_    0.515493 0.559078 0.674614 0.169430
H16   H     H_    0.697310 0.605763 0.219594 0.149323
H17   H     H_    0.315435 0.396509 0.771081 0.153151
H18   H     H_    0.103628 0.305916 0.184895 0.155358
H19   H     H_    0.874078 0.643487 0.823600 0.155217
H20   H     H_    0.960264 0.688926 0.998303 0.141924
H21   H     H_    0.993814 0.214147 0.017621 0.139258
H22   H     H_    0.440898 0.606351 0.192112 0.146683
N1    N     N_2   0.440860 0.456490 0.474790 -0.033111
N2    N     N_2   0.559140 0.543510 0.525210 -0.032115
O1    O     O_R   0.891570 0.738930 0.506190 -0.602687
O2    O     O_R   0.108430 0.261070 0.493810 -0.603512
O3    O     O_R   0.174650 0.711050 0.490030 -0.642059
O4    O     O_R   0.825350 0.288950 0.509970 -0.641769
O5    O     O_R   0.909850 0.521900 0.644940 -0.614993
O6    O     O_R   0.090150 0.478100 0.355060 -0.616877
O7    O     O_R   0.192930 0.494020 0.628780 -0.649956
O8    O     O_R   0.807070 0.505980 0.371220 -0.645707
Zn1   Zn    Zn3+2 0.810990 0.518620 0.510790 0.922514
Zn2   Zn    Zn3+2 0.189010 0.481380 0.489210 0.919774

loop_
_geom_bond_atom_site_label_1
_geom_bond_atom_site_label_2
_ccdc_geom_bond_type
O6    Zn2   S    
C2    C4    S    
C2    O6    A    
O5    Zn1   S    
C3    C9    A    
C11   C16   A    
C20   H14   S    
C17   C22   A    
C21   H11   S    
C13   C17   A    
C4    C8    A    
C23   C25   A    
C1    O3    A    
C26   H3    S    
C25   H12   S    
C19   H7    S    
C28   O5    A    
C20   C21   S    
C9    H17   S    
C9    C11   A    
C5    C14   A    
C12   O4    A    
N1    Zn2   S    
O1    Zn1   S    
C21   H13   S    
C3    C28   S    
C11   C14   A    
C18   H9    S    
C18   N1    S    
C16   C23   A    
C3    C7    A    
N2    Zn1   S    
C13   C15   A    
C6    H21   S    
C26   C27   D    
C1    C26   S    
C5    H20   S    
C22   C24   A    
C15   C25   A    
C27   H4    S    
C12   C27   S    
C10   H16   S    
N1    N2    D    
O3    Zn2   S    
C22   H22   S    
C20   H15   S    
C23   H2    S    
C20   N2    S    
C18   C19   S    
C19   H5    S    
C28   O7    A    
C14   C24   A    
C5    C7    A    
C1    O1    A    
C24   H1    S    
C16   C17   A    
O7    Zn2   S    
C6    C8    A    
O2    Zn2   S    
C8    H18   S    
C6    C15   A    
O4    Zn1   S    
C18   H8    S    
C19   H6    S    
C12   O2    A    
C21   H10   S    
C4    C10   A    
O8    Zn1   S    
C2    O8    A    
C10   C13   A    
C7    H19   S    
