data_mof_unit_36798.cif
_audit_creation_date              2013-03-05T15:48:18-0500
_audit_creation_method            fapswitch 2.2
_symmetry_space_group_name_H-M    P1
_symmetry_Int_Tables_number       1
_space_group_crystal_system       triclinic
_cell_length_a                    21.139118
_cell_length_b                    7.238999
_cell_length_c                    18.260789
_cell_angle_alpha                 90.016538
_cell_angle_beta                  93.44504
_cell_angle_gamma                 90.015348
_cell_volume                      2789.32653408

loop_
_atom_site_label
_atom_site_type_symbol
_atom_site_description
_atom_site_fract_x
_atom_site_fract_y
_atom_site_fract_z
_atom_type_partial_charge
O1    O     O_R   0.448880 0.506250 0.415280 -0.576212
O2    O     O_R   0.551120 0.006250 0.584720 -0.576238
O3    O     O_R   0.434830 0.174000 0.557310 -0.563527
O4    O     O_R   0.565170 0.674000 0.442690 -0.563542
C1    C     C_R   0.416986 0.344578 0.579651 0.925033
C2    C     C_R   0.583013 0.844578 0.420349 0.925033
O5    O     O_R   0.441680 0.176440 0.414130 -0.578395
O6    O     O_R   0.558320 0.676440 0.585870 -0.578338
O7    O     O_R   0.558020 0.007570 0.440520 -0.562720
O8    O     O_R   0.441980 0.507570 0.559480 -0.562800
C3    C     C_R   0.428018 0.344756 0.388313 0.929178
C4    C     C_R   0.571971 0.844839 0.611690 0.929239
O9    O     O_3   0.538160 0.339670 0.508820 -0.274696
O10   O     O_3   0.461840 0.839670 0.491180 -0.274754
V1    V     V_3+5 0.492920 0.064260 0.498360 1.170757
V2    V     V_3+5 0.507080 0.564260 0.501640 1.170710
C5    C     C_R   0.877737 0.985047 0.687096 0.306860
C6    C     C_R   0.122534 0.489390 0.312715 0.306697
H1    H     H_    0.964912 0.010935 0.754070 0.118608
H2    H     H_    0.035422 0.516010 0.245709 0.118734
H3    H     H_    0.793932 0.981584 0.568672 0.153507
H4    H     H_    0.206321 0.485568 0.431159 0.153480
C7    C     C_R   0.887536 0.942777 0.819376 -0.147781
C8    C     C_R   0.112482 0.443284 0.180631 -0.148112
C9    C     C_R   0.582861 0.813669 0.745811 -0.270103
C10   C     C_R   0.416995 0.311671 0.254258 -0.269854
C11   C     C_R   0.617415 0.810298 0.813575 0.418903
C12   C     C_R   0.382387 0.307455 0.186534 0.418868
C13   C     C_R   0.682988 0.843080 0.816243 -0.301706
C14   C     C_R   0.316859 0.340890 0.183850 -0.301624
C15   C     C_R   0.715260 0.879709 0.752044 0.070653
C16   C     C_R   0.284687 0.378963 0.247995 0.070659
C17   C     C_R   0.678670 0.884542 0.683557 0.113476
C18   C     C_R   0.321339 0.384716 0.316434 0.113501
C19   C     C_R   0.782595 0.911559 0.753755 0.077304
C20   C     C_R   0.217399 0.411628 0.246261 0.077295
C21   C     C_R   0.811503 0.950057 0.686741 0.117691
C22   C     C_R   0.188640 0.452395 0.313167 0.117749
C23   C     C_R   0.773799 0.953534 0.620584 -0.215528
C24   C     C_R   0.226375 0.456302 0.379301 -0.215564
C25   C     C_R   0.709038 0.921061 0.619027 -0.196995
C26   C     C_R   0.291067 0.422734 0.380902 -0.197192
C27   C     C_R   0.822317 0.907090 0.819668 -0.233346
C28   C     C_R   0.177592 0.405928 0.180424 -0.233435
C29   C     C_R   0.914536 0.982157 0.753468 -0.189171
C30   C     C_R   0.085685 0.485645 0.246386 -0.188833
C31   C     C_R   0.612292 0.850873 0.680962 -0.215417
C32   C     C_R   0.387674 0.350417 0.319049 -0.215534
H5    H     H_    0.804310 0.878667 0.872407 0.122253
H6    H     H_    0.195466 0.375356 0.127799 0.122499
H7    H     H_    0.532330 0.786890 0.743212 0.168598
H8    H     H_    0.467483 0.284325 0.256873 0.168637
H9    H     H_    0.707539 0.839160 0.869470 0.171983
H10   H     H_    0.292268 0.336480 0.130649 0.171973
H11   H     H_    0.682760 0.925329 0.566284 0.106925
H12   H     H_    0.317376 0.427527 0.433620 0.107241
C33   C     C_1   0.864607 0.938936 0.132199 -0.296692
C34   C     C_1   0.135393 0.438942 0.867801 -0.296645
C35   C     C_1   0.821789 0.924878 0.176004 0.077502
C36   C     C_1   0.178211 0.424885 0.823996 0.077547
C37   C     C_1   0.771256 0.905756 0.228163 0.016962
C38   C     C_1   0.228744 0.405759 0.771837 0.016976
C39   C     C_1   0.728699 0.889123 0.272173 0.017257
C40   C     C_1   0.271301 0.389121 0.727828 0.017258
C41   C     C_1   0.678146 0.869998 0.324304 0.078998
C42   C     C_1   0.321854 0.369991 0.675697 0.078980
C43   C     C_1   0.635292 0.855939 0.368058 -0.289983
C44   C     C_1   0.364708 0.355934 0.631943 -0.290032
O11   O     O_R   0.058070 0.289240 0.940580 -0.565082
O12   O     O_R   0.941930 0.789240 0.059420 -0.565081
O13   O     O_R   0.058330 0.616740 0.085880 -0.580506
O14   O     O_R   0.941670 0.116740 0.914120 -0.580440
C45   C     C_R   0.072013 0.448846 0.111770 0.925189
C46   C     C_R   0.927989 0.948759 0.888236 0.925153
O15   O     O_R   0.065180 0.619040 0.942700 -0.564814
O16   O     O_R   0.934820 0.119040 0.057300 -0.564827
O17   O     O_R   0.948870 0.787780 0.915270 -0.579353
O18   O     O_R   0.051130 0.287780 0.084730 -0.579362
C47   C     C_R   0.083170 0.450325 0.920177 0.935562
C48   C     C_R   0.916831 0.950325 0.079823 0.935435
O19   O     O_3   0.961870 0.453310 0.991210 -0.273433
O20   O     O_3   0.038130 0.953310 0.008790 -0.273456
V3    V     V_3+5 0.007070 0.728770 0.001630 1.165977
V4    V     V_3+5 0.992930 0.228770 0.998370 1.165948
C49   C     C_3   0.910346 0.027195 0.617662 -1.035698
H13   H     H_    0.904438 0.909279 0.578953 0.252826
H14   H     H_    0.889802 0.154069 0.591671 0.254624
H15   H     H_    0.961993 0.050787 0.628482 0.256200
C50   C     C_3   0.090142 0.534785 0.381977 -1.035351
H16   H     H_    0.111548 0.660868 0.407762 0.254391
H17   H     H_    0.038696 0.561747 0.371017 0.256112
H18   H     H_    0.095195 0.417232 0.420935 0.252930
N1    N     N_R   0.585893 0.772663 0.879841 0.252732
O21   O     O_R   0.525114 0.742196 0.877493 -0.340805
O22   O     O_R   0.617560 0.768550 0.943196 -0.353729
N2    N     N_R   0.413806 0.268302 0.120329 0.252707
O23   O     O_R   0.474545 0.237258 0.122690 -0.340820
O24   O     O_R   0.382084 0.263340 0.057016 -0.353785

loop_
_geom_bond_atom_site_label_1
_geom_bond_atom_site_label_2
_geom_bond_distance
_ccdc_geom_bond_type
C42   C44   1.247543 T    
C39   C41   1.479745 S    
N1    O21   1.301717 A    
C7    C29   1.392188 A    
C11   C13   1.404204 A    
O1    C3    1.333025 A    
O2    C4    1.332900 A    
O16   V4    1.859238 S    
C2    O7    1.352934 A    
C23   C25   1.387578 A    
C49   H13   1.110340 S    
O5    C3    1.332074 A    
C14   H10   1.074388 S    
C5    C49   1.510308 S    
C16   C20   1.440472 A    
C19   C21   1.427798 A    
C5    C29   1.400450 A    
C1    C44   1.505554 S    
C8    C45   1.478315 S    
C33   C35   1.247597 T    
O17   V3    1.987597 S    
C34   C36   1.247597 T    
C7    C27   1.402916 A    
C36   C38   1.479776 S    
C37   C39   1.247624 T    
C25   H11   1.082979 S    
C38   C40   1.247625 T    
C26   H12   1.082998 S    
C41   C43   1.247545 T    
C46   O17   1.330767 A    
C18   C26   1.400561 A    
C45   O18   1.330922 A    
C15   C17   1.430857 A    
C50   H17   1.111237 S    
C19   C27   1.425969 A    
C9    C31   1.396624 A    
C10   C32   1.396663 A    
C24   C26   1.387596 A    
O6    V2    1.999268 S    
C22   C24   1.407022 A    
C13   C15   1.416416 A    
C33   C48   1.505707 S    
C3    C32   1.482964 S    
C4    C31   1.482874 S    
C6    C30   1.400397 A    
O13   V3    1.999898 S    
C49   H14   1.110448 S    
C35   C37   1.479779 S    
O12   C48   1.343107 A    
O14   C46   1.329955 A    
O13   C45   1.329820 A    
C27   H5    1.076501 S    
O5    V1    1.999862 S    
N2    O24   1.301688 A    
C16   C18   1.430904 A    
O4    V2    1.859203 S    
C9    H7    1.083798 S    
O2    V1    1.986052 S    
C10   H8    1.083762 S    
H3    C23   1.081442 S    
O6    C4    1.332202 A    
H4    C24   1.081450 S    
N2    O23   1.301710 A    
O1    V2    1.985718 S    
C5    C21   1.422423 A    
C50   H18   1.110368 S    
O12   V3    1.837414 S    
O14   V4    1.999307 S    
C34   C47   1.505702 S    
O4    C2    1.360880 A    
C2    C43   1.505557 S    
C17   C31   1.422093 A    
C15   C19   1.440393 A    
C11   N1    1.442041 S    
C18   C32   1.422128 A    
C7    C46   1.478180 S    
O19   V4    1.755177 S    
O3    V1    1.859217 S    
O11   C47   1.343055 A    
C49   H15   1.110897 S    
C28   H6    1.076458 S    
C6    C50   1.510142 S    
O16   C48   1.350648 A    
O3    C1    1.360858 A    
H1    C29   1.084434 S    
C9    C11   1.398854 A    
C10   C12   1.398858 A    
C12   N2    1.442034 S    
C8    C30   1.392237 A    
C12   C14   1.404201 A    
C6    C22   1.422445 A    
C17   C25   1.400561 A    
C1    O8    1.352882 A    
C21   C23   1.406987 A    
O11   V4    1.837383 S    
O8    V2    1.830959 S    
C14   C16   1.416386 A    
O15   V3    1.859253 S    
C13   H9    1.074377 S    
C8    C28   1.402989 A    
C20   C22   1.427774 A    
O7    V1    1.830990 S    
C20   C28   1.426023 A    
O18   V4    1.987256 S    
N1    O22   1.301695 A    
O20   V3    1.754779 S    
O9    V2    1.755686 S    
O10   V1    1.755290 S    
C50   H16   1.110602 S    
O15   C47   1.350624 A    
H2    C30   1.084408 S    
C40   C42   1.479743 S    
