data_mof_unit_10724.cif
_audit_creation_date              2012-12-11T16:11:21-0500
_audit_creation_method            fapswitch 2.2
_symmetry_space_group_name_H-M    P1
_symmetry_Int_Tables_number       1
_space_group_crystal_system       triclinic
_cell_length_a                    12.873433
_cell_length_b                    13.224499
_cell_length_c                    26.934463
_cell_angle_alpha                 96.991862
_cell_angle_beta                  90.261369
_cell_angle_gamma                 118.971803
_cell_volume                      3971.11666946

loop_
_atom_site_label
_atom_site_type_symbol
_atom_type_description
_atom_site_fract_x
_atom_site_fract_y
_atom_site_fract_z
_atom_type_partial_charge
C1    C     C_R   0.627759 0.894706 0.424270 0.545020
C2    C     C_1   0.140644 0.824512 0.179384 -0.040799
C3    C     C_1   0.161017 0.837783 0.231739 0.000216
C4    C     C_R   0.601885 0.223861 0.443268 0.545009
C5    C     C_1   0.175409 0.844934 0.276439 0.001989
C6    C     C_1   0.195168 0.851813 0.328469 -0.038067
C7    C     C_1   0.220897 0.859889 0.372292 -0.004652
C8    C     C_1   0.688560 0.799653 0.135932 -0.013547
C9    C     C_1   0.671785 0.810036 0.179691 -0.048602
C10   C     C_1   0.660543 0.819902 0.231768 -0.008138
C11   C     C_1   0.654879 0.829095 0.276521 -0.007147
C12   C     C_R   0.672639 0.423379 0.238795 -0.115982
C13   C     C_1   0.649463 0.843694 0.328922 -0.044289
C14   C     C_1   0.642436 0.862379 0.373267 -0.007025
C15   C     C_1   0.693505 0.385323 0.874748 -0.002127
C16   C     C_R   0.268085 0.875589 0.422479 0.556476
C17   C     C_1   0.683949 0.359215 0.829955 -0.041872
C18   C     C_1   0.674969 0.338652 0.777203 -0.015331
C19   C     C_1   0.666544 0.323468 0.732103 -0.024501
C20   C     C_1   0.652966 0.302299 0.679373 -0.065410
C21   C     C_1   0.634943 0.275301 0.634640 -0.026974
C22   C     C_1   0.302152 0.898138 0.620551 0.003055
C23   C     C_R   0.666782 0.411939 0.289503 -0.110273
C24   C     C_R   0.227685 0.771898 0.732288 0.273402
C25   C     C_R   0.206509 0.762662 0.782917 -0.164556
C26   C     C_R   0.245038 0.963464 0.798322 0.279059
C27   C     C_R   0.273727 0.975061 0.748261 -0.157748
C28   C     C_R   0.630448 0.897955 0.563741 0.538147
C29   C     C_R   0.262705 0.879368 0.715436 0.002467
C30   C     C_R   0.213263 0.856769 0.815372 0.008148
C31   C     C_1   0.170960 0.835561 0.864003 -0.008446
C32   C     C_1   0.283895 0.890810 0.663881 -0.010917
C33   C     C_1   0.125666 0.808037 0.902409 -0.004344
C34   C     C_R   0.676345 0.320845 0.306154 0.023371
C35   C     C_1   0.655613 0.856255 0.605972 -0.009677
C36   C     C_R   0.797681 0.869430 0.721817 -0.010535
C37   C     C_R   0.804421 0.850609 0.771363 -0.126273
C38   C     C_R   0.601611 0.686946 0.760612 0.038296
C39   C     C_R   0.595413 0.702674 0.710038 0.274508
C40   C     C_R   0.602859 0.227128 0.582911 0.529487
C41   C     C_R   0.691526 0.796401 0.691442 0.032014
C42   C     C_R   0.706911 0.762862 0.791100 -0.010061
C43   C     C_1   0.716480 0.756283 0.843523 -0.061451
C44   C     C_1   0.673702 0.826193 0.643821 -0.023692
C45   C     C_R   0.687354 0.343532 0.204427 0.049637
C46   C     C_1   0.728175 0.753389 0.887439 -0.016348
C47   C     C_R   0.065628 0.772053 0.084164 0.547182
C48   C     C_R   0.715676 0.437903 0.066428 0.548649
C49   C     C_R   0.719986 0.782569 0.085999 0.554156
C50   C     C_R   0.061197 0.766240 0.944849 0.536226
C51   C     C_R   0.709522 0.432460 0.926595 0.536705
C52   C     C_R   0.327713 0.904423 0.569394 0.564426
C53   C     C_R   0.748223 0.751124 0.939205 0.563560
C54   C     C_1   0.636035 0.273390 0.398134 -0.008434
C55   C     C_R   0.692682 0.241423 0.272261 -0.089673
C56   C     C_1   0.694095 0.361818 0.152963 -0.058195
C57   C     C_R   0.698448 0.251736 0.220983 0.033984
C58   C     C_3   0.493843 0.594042 0.782168 -0.254525
C59   C     C_3   0.416618 0.644029 0.804329 -0.414542
C60   C     C_3   0.498586 0.545527 0.649720 0.000392
C61   C     C_3   0.383574 0.472861 0.616130 -0.256425
C62   C     C_3   0.384311 0.370318 0.583795 -0.458403
C63   C     C_3   0.715086 0.164201 0.185144 -0.276025
C64   C     C_3   0.596954 0.071293 0.157650 -0.424021
C65   C     C_3   0.105347 0.581010 0.695453 0.015286
C66   C     C_3   0.109825 0.478161 0.714047 -0.265229
C67   C     C_1   0.658014 0.301004 0.357104 -0.054159
C68   C     C_3   0.986994 0.369653 0.708615 -0.481019
C69   C     C_3   0.181878 0.100738 0.813552 0.008215
C70   C     C_3   0.260764 0.228036 0.805582 -0.255516
C71   C     C_3   0.188286 0.275523 0.781940 -0.499542
C72   C     C_3   0.902928 0.970573 0.703124 -0.278508
C73   C     C_3   0.980137 0.929092 0.674195 -0.436660
C74   C     C_1   0.701890 0.388878 0.111701 -0.013250
C75   C     C_1   0.114015 0.805812 0.135070 -0.005079
Cr1   Cr    Cr6+3 0.416010 0.828400 0.490230 1.032582
Cr2   Cr    Cr6+3 0.676380 0.087280 0.505260 1.021978
Cr3   Cr    Cr6+3 0.407590 0.084280 0.504540 1.012030
Cr4   Cr    Cr6+3 0.914090 0.832340 0.018020 1.033119
Cr5   Cr    Cr6+3 0.923310 0.576840 0.003860 1.028296
Cr6   Cr    Cr6+3 0.654200 0.573160 0.004700 1.034693
H1    H     H_    0.698141 0.169940 0.285677 0.113811
H2    H     H_    0.439255 0.518960 0.752862 0.158801
H3    H     H_    0.521513 0.557878 0.811505 0.140117
H4    H     H_    0.511285 0.487627 0.672991 0.120737
H5    H     H_    0.574267 0.582451 0.625326 0.129660
H6    H     H_    0.306784 0.438380 0.639781 0.165023
H7    H     H_    0.372379 0.529060 0.591502 0.187357
H8    H     H_    0.461514 0.401809 0.560202 0.164025
H9    H     H_    0.301106 0.321375 0.558877 0.145678
H10   H     H_    0.388974 0.310307 0.608073 0.170826
H11   H     H_    0.532647 0.023989 0.184982 0.160770
H12   H     H_    0.885041 0.907298 0.795307 0.114187
H13   H     H_    0.558626 0.111556 0.134924 0.162533
H14   H     H_    0.611583 0.007434 0.132190 0.147645
H15   H     H_    0.779948 0.209354 0.157598 0.155789
H16   H     H_    0.752591 0.119906 0.205812 0.144829
H17   H     H_    0.073778 0.556260 0.655090 0.155868
H18   H     H_    0.037704 0.597399 0.715288 0.111489
H19   H     H_    0.171752 0.457855 0.692124 0.176502
H20   H     H_    0.143692 0.501408 0.754062 0.154378
H21   H     H_    0.924694 0.386873 0.731829 0.162182
H22   H     H_    0.993534 0.296202 0.721522 0.144710
H23   H     H_    0.664846 0.494422 0.226233 0.121164
H24   H     H_    0.951216 0.343797 0.668775 0.156274
H25   H     H_    0.119773 0.097805 0.842569 0.151850
H26   H     H_    0.124817 0.048713 0.778632 0.109098
H27   H     H_    0.304003 0.282154 0.842275 0.181240
H28   H     H_    0.331959 0.235180 0.780746 0.165515
H29   H     H_    0.150148 0.226796 0.743916 0.141802
H30   H     H_    0.246634 0.368815 0.778297 0.144717
H31   H     H_    0.115161 0.267990 0.805644 0.151583
H32   H     H_    0.012522 0.886344 0.698423 0.150549
H33   H     H_    0.928515 0.866208 0.640468 0.160950
H34   H     H_    0.652761 0.472734 0.315510 0.119383
H35   H     H_    0.058372 0.005003 0.662028 0.139220
H36   H     H_    0.872961 0.015345 0.679016 0.156245
H37   H     H_    0.958135 0.037550 0.735149 0.125886
H38   H     H_    0.181096 0.680873 0.796732 0.111095
H39   H     H_    0.301868 0.057514 0.734586 0.114717
H40   H     H_    0.468187 0.717628 0.834725 0.163831
H41   H     H_    0.384169 0.675561 0.774687 0.208867
H42   H     H_    0.338624 0.575362 0.820240 0.122110
O1    O     O_R   0.294740 0.800910 0.434410 -0.500520
O2    O     O_R   0.635480 0.460400 0.052590 -0.501092
O3    O     O_R   0.662650 0.681410 0.060750 -0.485899
O4    O     O_R   0.526010 0.837250 0.440870 -0.494712
O5    O     O_R   0.814500 0.852290 0.965490 -0.501313
O6    O     O_R   0.013160 0.821640 0.966980 -0.509339
O7    O     O_R   0.038850 0.666600 0.954370 -0.508806
O8    O     O_R   0.813260 0.476410 0.948680 -0.497678
O9    O     O_R   0.630060 0.454430 0.944230 -0.511683
O10   O     O_R   0.657630 0.675880 0.960300 -0.492107
O11   O     O_3   0.830530 0.660780 0.008860 -0.277323
O12   O     O_R   0.664100 0.185180 0.560770 -0.493647
O13   O     O_R   0.704290 0.994500 0.446090 -0.503017
O14   O     O_R   0.662870 0.181760 0.460430 -0.490719
O15   O     O_R   0.498970 0.199080 0.457120 -0.506055
O16   O     O_R   0.309350 0.975930 0.448180 -0.486045
O17   O     O_R   0.296060 0.804610 0.542650 -0.496247
O18   O     O_R   0.527240 0.840670 0.541200 -0.506771
O19   O     O_R   0.705610 0.998200 0.554330 -0.511272
O20   O     O_3   0.489875 0.635064 0.680570 -0.549714
O21   O     O_3   0.221377 0.679120 0.699598 -0.542084
O22   O     O_3   0.253101 0.056275 0.831623 -0.552685
O23   O     O_R   0.500290 0.202770 0.565360 -0.532133
O24   O     O_R   0.310570 0.979360 0.548520 -0.499513
O25   O     O_3   0.499990 0.999990 0.500010 -0.270745
O26   O     O_R   0.819910 0.858260 0.073860 -0.501674
O27   O     O_R   0.018180 0.827180 0.067430 -0.492299
O28   O     O_R   0.044260 0.672570 0.062730 -0.501301
O29   O     O_R   0.818270 0.481940 0.049130 -0.490407

loop_
_geom_bond_atom_site_label_1
_geom_bond_atom_site_label_2
_ccdc_geom_bond_type
C59   H40   S    
Cr5   O28   S    
C66   C68   S    
Cr4   O5    S    
C62   H8    S    
Cr6   O3    S    
C27   C29   A    
C69   O22   S    
C19   C20   S    
C68   H22   S    
Cr3   O16   S    
C69   H26   S    
C73   H32   S    
Cr6   O11   S    
C39   C41   A    
C27   H39   S    
C49   O3    A    
C12   C23   A    
C45   C57   A    
C26   C27   A    
C73   H35   S    
C22   C32   T    
C36   C37   A    
C50   O6    A    
Cr2   O14   S    
C65   H17   S    
C12   H23   S    
C29   C32   S    
C60   O20   S    
C30   C31   S    
Cr4   O6    S    
C71   H29   S    
C25   H38   S    
Cr5   O11   S    
Cr5   O29   S    
C18   C19   T    
C66   H19   S    
C37   C42   A    
Cr2   O19   S    
C50   O7    A    
C48   O2    A    
C38   C58   S    
C45   C56   S    
C8    C9    T    
C71   H30   S    
C72   H36   S    
C31   C33   T    
C70   C71   S    
Cr2   O13   S    
C15   C51   S    
C1    O13   A    
C61   H6    S    
C9    C10   S    
Cr3   O25   S    
Cr4   O26   S    
Cr6   O2    S    
Cr1   O18   S    
C59   H41   S    
C4    O14   A    
C34   C55   A    
Cr5   O8    S    
C13   C14   T    
C71   H31   S    
C66   H20   S    
C36   C41   A    
C61   C62   S    
Cr3   O15   S    
C57   C63   S    
Cr1   O17   S    
C59   H42   S    
C38   C39   A    
C40   O12   A    
Cr5   O7    S    
Cr1   O1    S    
C48   C74   S    
C53   O10   A    
C24   C25   A    
C28   C35   S    
C65   O21   S    
C51   O8    A    
C12   C45   A    
Cr6   O9    S    
C54   C67   T    
C58   C59   S    
C23   H34   S    
C63   H15   S    
C73   H33   S    
C60   C61   S    
C26   O22   S    
C53   O5    A    
C58   H3    S    
C61   H7    S    
C47   O27   A    
C69   H25   S    
C23   C34   A    
C62   H10   S    
C17   C18   S    
C37   H12   S    
C55   H1    S    
C35   C44   T    
Cr2   O25   S    
C65   H18   S    
Cr3   O24   S    
Cr4   O27   S    
C7    C16   S    
C39   O20   S    
C26   C30   A    
C52   O24   A    
C47   C75   S    
C55   C57   A    
C41   C44   S    
C16   O16   A    
C28   O19   A    
C68   H24   S    
C64   H11   S    
Cr3   O23   S    
C22   C52   S    
C25   C30   A    
C15   C17   T    
Cr4   O11   S    
C70   H28   S    
C60   H5    S    
C4    C54   S    
C1    O4    A    
C64   H14   S    
C68   H21   S    
C72   C73   S    
C3    C5    T    
C34   C67   S    
C51   O9    A    
Cr6   O10   S    
C6    C7    T    
C28   O18   A    
C49   O26   A    
C40   O23   A    
C48   O29   A    
C2    C3    S    
C33   C50   S    
C64   H13   S    
C63   H16   S    
C70   H27   S    
C58   H2    S    
C11   C13   S    
C5    C6    S    
C21   C40   S    
C24   O21   S    
C62   H9    S    
C46   C53   S    
C52   O17   A    
C16   O1    A    
C69   C70   S    
C43   C46   T    
C10   C11   T    
C47   O28   A    
C4    O15   A    
C63   C64   S    
C38   C42   A    
C24   C29   A    
C20   C21   T    
Cr1   O25   S    
C65   C66   S    
C42   C43   S    
C72   H37   S    
Cr1   O4    S    
C60   H4    S    
C1    C14   S    
Cr2   O12   S    
C8    C49   S    
C56   C74   T    
C2    C75   T    
C36   C72   S    
