data_mof_unit_13833.cif
_audit_creation_date              2012-10-26T21:33:22-0400
_audit_creation_method            fapswitch 2.2
_symmetry_space_group_name_H-M    P1
_symmetry_Int_Tables_number       1
_space_group_crystal_system       triclinic
_cell_length_a                    28.377115
_cell_length_b                    18.621704
_cell_length_c                    16.994437
_cell_angle_alpha                 89.951253
_cell_angle_beta                  60.872609
_cell_angle_gamma                 90.129721
_cell_volume                      7844.67312886

loop_
_atom_site_label
_atom_site_type_symbol
_atom_type_description
_atom_site_fract_x
_atom_site_fract_y
_atom_site_fract_z
_atom_type_partial_charge
C1    C     C_R   0.701824 0.268570 0.675870 0.925094
C2    C     C_R   0.092669 0.503751 0.525544 -0.017504
C3    C     C_R   0.188837 0.217390 0.906953 0.061484
C4    C     C_R   0.074174 0.099416 0.933733 0.911905
C5    C     C_R   0.925722 0.900705 0.066346 0.921036
C6    C     C_R   0.925724 0.099254 0.066367 0.910993
C7    C     C_R   0.074222 0.900653 0.933664 0.921119
C8    C     C_R   0.574281 0.599307 0.933557 0.917367
C9    C     C_R   0.425776 0.400645 0.066326 0.912575
C10   C     C_R   0.425743 0.599245 0.066300 0.909137
C11   C     C_R   0.574315 0.400813 0.933628 0.914436
C12   C     C_R   0.553283 0.130269 0.486667 0.000673
C13   C     C_R   0.399243 0.000309 0.506656 -0.016020
C14   C     C_R   0.446835 0.870239 0.513134 0.000291
C15   C     C_R   0.447158 0.130361 0.513166 0.000510
C16   C     C_R   0.552654 0.870162 0.487288 0.000304
C17   C     C_R   0.026783 0.626869 0.575887 -0.007601
C18   C     C_R   0.957012 0.374673 0.486080 0.000821
C19   C     C_R   0.932951 0.627649 0.556156 -0.002404
C20   C     C_R   0.061078 0.380515 0.467153 0.007480
C21   C     C_R   0.527068 0.195366 0.491383 -0.136115
C22   C     C_R   0.472947 0.805058 0.508514 -0.132863
C23   C     C_R   0.473685 0.195408 0.508302 -0.136172
C24   C     C_R   0.600691 0.000120 0.493549 -0.015969
C25   C     C_R   0.526258 0.805024 0.492022 -0.132881
C26   C     C_R   0.994713 0.688710 0.595433 -0.110529
C27   C     C_R   0.988186 0.312200 0.466066 -0.151414
C28   C     C_R   0.949051 0.689302 0.584844 -0.154359
C29   C     C_R   0.040915 0.315866 0.451945 -0.119422
C30   C     C_R   0.474313 0.065445 0.503850 0.040043
C31   C     C_R   0.525591 0.935089 0.496404 0.030292
C32   C     C_R   0.525861 0.065391 0.496190 0.039947
C33   C     C_R   0.474142 0.935141 0.503853 0.030062
C34   C     C_R   0.966124 0.566787 0.531884 0.031646
C35   C     C_R   0.113646 0.386104 0.454343 0.357522
C36   C     C_R   0.028385 0.441823 0.493268 0.025431
C37   C     C_R   0.013560 0.566788 0.539910 0.016049
C38   C     C_R   0.978581 0.440192 0.494486 0.042801
C39   C     C_R   0.948408 0.503054 0.510479 -0.043104
C40   C     C_R   0.045307 0.504585 0.518316 -0.044184
C41   C     C_R   0.448788 0.000313 0.506588 -0.043820
C42   C     C_R   0.551156 0.000202 0.493585 -0.043754
C43   C     C_R   0.878739 0.435273 0.497198 -0.060284
C44   C     C_R   0.107324 0.564611 0.558585 -0.066619
C45   C     C_R   0.125753 0.441928 0.498857 -0.068490
C46   C     C_R   0.881850 0.622805 0.560831 0.305225
C47   C     C_R   0.870745 0.564656 0.517513 -0.016861
C48   C     C_R   0.373721 0.935022 0.509215 -0.060974
C49   C     C_R   0.626298 0.065333 0.490816 -0.007069
C50   C     C_R   0.626038 0.934844 0.491189 -0.061762
C51   C     C_R   0.373815 0.065522 0.509177 -0.007063
C52   C     C_R   0.833119 0.435967 0.482005 -0.079456
C53   C     C_R   0.159195 0.564504 0.552371 -0.070269
C54   C     C_R   0.168833 0.438731 0.519415 -0.084465
C55   C     C_R   0.828971 0.563824 0.492724 -0.051304
C56   C     C_R   0.329813 0.936030 0.490052 -0.073194
C57   C     C_R   0.902195 0.372165 0.510721 0.344199
C58   C     C_R   0.670167 0.064122 0.510072 -0.065882
C59   C     C_R   0.670077 0.935950 0.510165 -0.071670
C60   C     C_R   0.329830 0.064207 0.490062 -0.064550
C61   C     C_R   0.812134 0.500107 0.473575 -0.302662
C62   C     C_R   0.185682 0.500495 0.543300 -0.304898
C63   C     C_R   0.310323 0.000069 0.477614 -0.307579
C64   C     C_R   0.689612 0.000046 0.522590 -0.307218
C65   C     C_R   0.070207 0.622703 0.594679 0.350622
C66   C     C_R   0.606872 0.872529 0.466860 0.360608
C67   C     C_R   0.392826 0.127981 0.533781 0.300854
C68   C     C_R   0.392622 0.872682 0.533778 0.362382
C69   C     C_R   0.297960 0.730971 0.324228 0.871329
C70   C     C_R   0.607606 0.127783 0.465833 0.302131
C71   C     C_R   0.720659 0.267156 0.954476 0.119469
C72   C     C_R   0.279211 0.732294 0.045407 0.111428
C73   C     C_R   0.279921 0.265651 0.045249 0.129026
C74   C     C_R   0.718443 0.737443 0.955992 0.130799
C75   C     C_R   0.219382 0.764514 0.955244 0.128662
C76   C     C_R   0.780452 0.234966 0.044701 0.125385
C77   C     C_R   0.778815 0.767721 0.045989 0.126612
C78   C     C_R   0.220081 0.234263 0.954832 0.126125
C79   C     C_R   0.743841 0.199027 0.946589 -0.151470
C80   C     C_R   0.298723 0.267393 0.323882 0.949603
C81   C     C_R   0.255992 0.800406 0.053379 -0.171566
C82   C     C_R   0.256759 0.197430 0.052532 -0.158913
C83   C     C_R   0.741346 0.805726 0.949705 -0.148442
C84   C     C_R   0.242698 0.696424 0.947140 -0.149830
C85   C     C_R   0.757249 0.303101 0.052611 -0.145468
C86   C     C_R   0.755945 0.699475 0.052252 -0.143557
C87   C     C_R   0.243246 0.302477 0.947531 -0.150761
C88   C     C_R   0.773167 0.183118 0.991159 -0.127901
C89   C     C_R   0.226660 0.816338 0.008823 -0.148977
C90   C     C_R   0.227393 0.181923 0.007876 -0.131755
C91   C     C_R   0.700589 0.734091 0.676398 0.940374
C92   C     C_R   0.770995 0.820665 0.994110 -0.131640
C93   C     C_R   0.272106 0.680529 0.991601 -0.158310
C94   C     C_R   0.727884 0.318994 0.008081 -0.136400
C95   C     C_R   0.726428 0.684485 0.007708 -0.116194
C96   C     C_R   0.272586 0.317999 0.992229 -0.125448
C97   C     C_R   0.643919 0.328553 0.946114 -0.196715
C98   C     C_R   0.356070 0.671275 0.053773 -0.191949
C99   C     C_R   0.356574 0.327479 0.053649 -0.203137
C100  C     C_R   0.642524 0.674180 0.946819 -0.200493
C101  C     C_R   0.143042 0.826904 0.946606 -0.207645
C102  C     C_R   0.201395 0.767696 0.676057 1.007879
C103  C     C_R   0.856777 0.172700 0.053441 -0.197861
C104  C     C_R   0.855955 0.828517 0.054016 -0.181284
C105  C     C_R   0.143332 0.172646 0.946509 -0.200962
C106  C     C_R   0.616964 0.348395 0.898017 -0.062767
C107  C     C_R   0.383014 0.651513 0.101924 -0.069656
C108  C     C_R   0.383501 0.347510 0.101703 -0.062410
C109  C     C_R   0.616017 0.653265 0.898443 -0.059762
C110  C     C_R   0.116367 0.847412 0.898313 -0.083308
C111  C     C_R   0.883424 0.152223 0.101790 -0.061042
C112  C     C_R   0.883249 0.847839 0.101757 -0.060780
C113  C     C_R   0.798523 0.232144 0.323968 0.917644
C114  C     C_R   0.116461 0.152536 0.898381 -0.060263
C115  C     C_R   0.633601 0.322882 0.812819 -0.262423
C116  C     C_R   0.366236 0.676844 0.187228 -0.256420
C117  C     C_R   0.367189 0.321471 0.186644 -0.263887
C118  C     C_R   0.632131 0.679472 0.813569 -0.255694
C119  C     C_R   0.132809 0.821658 0.813207 -0.192610
C120  C     C_R   0.866839 0.177754 0.187001 -0.262281
C121  C     C_R   0.867088 0.821461 0.186487 -0.265769
C122  C     C_R   0.132898 0.178385 0.813330 -0.262238
C123  C     C_R   0.679338 0.281670 0.771329 -0.053238
C124  C     C_R   0.798606 0.767639 0.323895 0.940190
C125  C     C_R   0.320281 0.717612 0.228879 -0.046376
C126  C     C_R   0.321645 0.279611 0.228067 -0.040536
C127  C     C_R   0.676821 0.723022 0.772849 -0.043563
C128  C     C_R   0.178231 0.779751 0.771954 -0.027845
C129  C     C_R   0.821449 0.219691 0.228201 -0.049248
C130  C     C_R   0.821353 0.780002 0.228098 -0.047998
C131  C     C_R   0.178561 0.219999 0.771817 -0.051153
C132  C     C_R   0.706925 0.260565 0.818223 -0.121399
C133  C     C_R   0.292526 0.738346 0.182125 -0.200848
C134  C     C_R   0.294241 0.257887 0.180993 -0.095281
C135  C     C_R   0.201430 0.232256 0.676053 0.926862
C136  C     C_R   0.703063 0.746723 0.821101 -0.086845
C137  C     C_R   0.205308 0.757682 0.819318 -0.108841
C138  C     C_R   0.794354 0.241697 0.180828 -0.101035
C139  C     C_R   0.793612 0.758862 0.181285 -0.102283
C140  C     C_R   0.205986 0.241715 0.818869 -0.100985
C141  C     C_R   0.695793 0.128415 0.519367 0.920220
C142  C     C_R   0.304187 0.871630 0.480746 0.925325
C143  C     C_R   0.304182 0.128398 0.480717 0.919710
C144  C     C_R   0.695795 0.871647 0.519306 0.927639
C145  C     C_R   0.191695 0.629507 0.534677 0.963286
C146  C     C_R   0.900250 0.501457 0.505325 -0.021731
C147  C     C_R   0.805624 0.371580 0.476723 0.912107
C148  C     C_R   0.803389 0.628295 0.483195 0.937003
C149  C     C_R   0.196017 0.372297 0.519390 0.961456
C150  C     C_R   0.689581 0.284395 0.906447 0.059219
C151  C     C_R   0.310176 0.714993 0.093611 0.074164
C152  C     C_R   0.311196 0.282519 0.093092 0.064779
C153  C     C_R   0.686952 0.720820 0.908291 0.069597
C154  C     C_R   0.188237 0.781867 0.907323 0.058641
C155  C     C_R   0.811508 0.217591 0.092756 0.061837
C156  C     C_R   0.810401 0.783875 0.093552 0.058249
H1    H     H_    0.064454 0.267125 0.434555 0.184412
H2    H     H_    0.221937 0.499735 0.549510 0.195805
H3    H     H_    0.278160 0.999993 0.460472 0.189862
H4    H     H_    0.721778 0.000064 0.539724 0.190329
H5    H     H_    0.711623 0.372520 0.014444 0.134697
H6    H     H_    0.288460 0.627044 0.985092 0.132624
H7    H     H_    0.288769 0.371634 0.986405 0.131575
H8    H     H_    0.710639 0.630720 0.012614 0.135136
H9    H     H_    0.210451 0.869895 0.015207 0.133128
H10   H     H_    0.789341 0.129549 0.984865 0.133120
H11   H     H_    0.787050 0.874300 0.988985 0.131555
H12   H     H_    0.926195 0.738373 0.600741 0.175446
H13   H     H_    0.211185 0.128300 0.013720 0.132633
H14   H     H_    0.738570 0.157452 0.907021 0.128026
H15   H     H_    0.261211 0.841930 0.093065 0.132245
H16   H     H_    0.262082 0.155492 0.091655 0.124569
H17   H     H_    0.735639 0.848130 0.911558 0.124258
H18   H     H_    0.237481 0.654869 0.907495 0.129656
H19   H     H_    0.762508 0.344679 0.092185 0.128734
H20   H     H_    0.761667 0.657098 0.090430 0.128732
H21   H     H_    0.237943 0.344390 0.908355 0.127815
H22   H     H_    0.629898 0.348482 0.013732 0.153696
H23   H     H_    0.972052 0.261007 0.459976 0.166246
H24   H     H_    0.370255 0.651588 0.986004 0.153969
H25   H     H_    0.370380 0.347935 0.986235 0.153148
H26   H     H_    0.629092 0.653152 0.013865 0.151082
H27   H     H_    0.129185 0.847055 0.014075 0.149834
H28   H     H_    0.870725 0.152669 0.985891 0.152997
H29   H     H_    0.869579 0.849317 0.986802 0.158058
H30   H     H_    0.129427 0.152356 0.014026 0.150547
H31   H     H_    0.612824 0.339193 0.776466 0.178785
H32   H     H_    0.387104 0.660741 0.223511 0.178855
H33   H     H_    0.387886 0.338124 0.223037 0.176819
H34   H     H_    0.004515 0.737399 0.618968 0.200242
H35   H     H_    0.612073 0.661617 0.776611 0.177410
H36   H     H_    0.112334 0.838564 0.776587 0.202752
H37   H     H_    0.887286 0.160808 0.223653 0.178302
H38   H     H_    0.888055 0.837596 0.222630 0.177369
H39   H     H_    0.112200 0.161748 0.776931 0.179652
H40   H     H_    0.743521 0.229157 0.784484 0.185895
H41   H     H_    0.255766 0.769410 0.215963 0.151675
H42   H     H_    0.258021 0.225497 0.214397 0.179918
H43   H     H_    0.737986 0.781413 0.788897 0.191873
H44   H     H_    0.241593 0.725670 0.785816 0.187891
H45   H     H_    0.546178 0.754176 0.485826 0.175751
H46   H     H_    0.758101 0.273771 0.214256 0.193812
H47   H     H_    0.757089 0.727018 0.214994 0.187219
H48   H     H_    0.242459 0.273655 0.785211 0.194065
H49   H     H_    0.224702 0.435536 0.309748 0.354119
H50   H     H_    0.846681 0.761196 0.595440 0.337572
H51   H     H_    0.804430 0.402443 0.690921 0.367480
H52   H     H_    0.092332 0.598903 0.751286 0.357469
H53   H     H_    0.710462 0.911118 0.298496 0.367256
H54   H     H_    0.364323 0.269583 0.554539 0.330081
H55   H     H_    0.289123 0.911337 0.701943 0.368134
H56   H     H_    0.454034 0.246357 0.514453 0.149143
H57   H     H_    0.637319 0.269368 0.442491 0.331483
H58   H     H_    0.452794 0.754234 0.514849 0.175631
H59   H     H_    0.546978 0.246276 0.485089 0.149002
H60   H     H_    0.780277 0.500210 0.455699 0.188437
O1    O     O_R   0.746490 0.236330 0.638080 -0.562017
O2    O     O_R   0.325830 0.813840 0.483730 -0.596725
O3    O     O_R   0.325830 0.186160 0.483730 -0.646735
O4    O     O_R   0.674170 0.813840 0.516270 -0.597137
O5    O     O_R   0.174170 0.686160 0.516270 -0.595087
O6    O     O_R   0.825830 0.313840 0.483730 -0.581631
O7    O     O_R   0.825830 0.686160 0.483730 -0.657175
O8    O     O_R   0.174170 0.313840 0.516270 -0.598297
O9    O     O_R   0.739960 0.127620 0.525000 -0.638325
O10   O     O_R   0.260040 0.872380 0.475000 -0.645498
O11   O     O_R   0.260040 0.127620 0.475000 -0.642954
O12   O     O_R   0.253510 0.763670 0.361920 -0.644118
O13   O     O_R   0.739960 0.872380 0.525000 -0.647626
O14   O     O_R   0.239960 0.627620 0.525000 -0.649038
O15   O     O_R   0.760040 0.372380 0.475000 -0.641196
O16   O     O_R   0.760040 0.627620 0.475000 -0.637156
O17   O     O_R   0.239960 0.372380 0.525000 -0.646051
O18   O     O_R   0.680700 0.294870 0.629350 -0.648138
O19   O     O_R   0.319300 0.705130 0.370650 -0.633552
O20   O     O_R   0.319300 0.294870 0.370650 -0.648398
O21   O     O_R   0.680700 0.705130 0.629350 -0.639770
O22   O     O_R   0.180700 0.794870 0.629350 -0.588462
O23   O     O_R   0.253510 0.236330 0.361920 -0.567966
O24   O     O_R   0.819300 0.205130 0.370650 -0.643333
O25   O     O_R   0.819300 0.794870 0.370650 -0.647120
O26   O     O_R   0.180700 0.205130 0.629350 -0.642459
O27   O     O_R   0.062020 0.072840 0.007170 -0.631126
O28   O     O_R   0.937980 0.927160 0.992830 -0.622949
O29   O     O_R   0.937980 0.072840 0.992830 -0.629183
O30   O     O_R   0.062020 0.927160 0.007170 -0.632117
O31   O     O_R   0.562020 0.572840 0.007170 -0.628200
O32   O     O_R   0.437980 0.427160 0.992830 -0.629094
O33   O     O_R   0.437980 0.572840 0.992830 -0.628538
O34   O     O_R   0.746490 0.763670 0.638080 -0.587674
O35   O     O_R   0.562020 0.427160 0.007170 -0.628531
O36   O     O_R   0.947860 0.073950 0.109290 -0.623881
O37   O     O_R   0.052140 0.926050 0.890710 -0.612168
O38   O     O_R   0.052140 0.073950 0.890710 -0.622375
O39   O     O_R   0.947860 0.926050 0.109290 -0.625464
O40   O     O_R   0.447860 0.573950 0.109290 -0.622795
O41   O     O_R   0.552140 0.426050 0.890710 -0.622075
O42   O     O_R   0.552140 0.573950 0.890710 -0.621829
O43   O     O_R   0.447860 0.426050 0.109290 -0.623177
O44   O     O_2   0.165623 0.270231 0.358922 -0.301957
O45   O     O_R   0.246490 0.736330 0.638080 -0.573342
O46   O     O_2   0.153354 0.369087 0.277152 -0.309564
O47   O     O_3   0.225910 0.384812 0.326271 -0.576954
O48   O     O_2   0.774840 0.628572 0.676132 -0.315082
O49   O     O_2   0.835547 0.632894 0.739079 -0.246336
O50   O     O_3   0.829251 0.747471 0.659868 -0.566076
O51   O     O_2   0.860442 0.244408 0.587929 -0.283374
O52   O     O_2   0.888407 0.325154 0.670429 -0.296269
O53   O     O_3   0.800167 0.355433 0.667813 -0.551696
O54   O     O_2   0.081933 0.752423 0.652879 -0.291681
O55   O     O_2   0.010194 0.675513 0.761457 -0.289796
O56   O     O_R   0.753510 0.263670 0.361920 -0.573853
O57   O     O_3   0.108076 0.645604 0.722383 -0.592869
O58   O     O_2   0.653557 0.748746 0.386457 -0.292904
O59   O     O_2   0.632079 0.833333 0.299218 -0.304222
O60   O     O_3   0.713645 0.863780 0.322103 -0.568313
O61   O     O_2   0.291917 0.142119 0.671962 -0.303651
O62   O     O_2   0.366265 0.159523 0.703334 -0.264167
O63   O     O_3   0.347381 0.261851 0.620325 -0.539246
O64   O     O_2   0.345661 0.749001 0.615512 -0.292549
O65   O     O_2   0.367365 0.834277 0.701781 -0.299606
O66   O     O_3   0.285840 0.863909 0.678681 -0.580706
O67   O     O_R   0.753510 0.736330 0.361920 -0.556194
O68   O     O_2   0.708558 0.141598 0.327497 -0.304148
O69   O     O_2   0.634283 0.157648 0.295763 -0.263503
O70   O     O_3   0.653368 0.261206 0.376949 -0.540483
O71   O     O_R   0.246490 0.263670 0.638080 -0.571765
O72   O     O_R   0.674170 0.186160 0.516270 -0.647430
S1    S     S_3+6 0.165256 0.350527 0.351827 0.007663
S2    S     S_3+6 0.827964 0.657170 0.661596 0.033487
S3    S     S_3+6 0.862886 0.321728 0.610957 0.040713
S4    S     S_3+6 0.067056 0.676213 0.684425 0.007848
S5    S     S_3+6 0.651786 0.826992 0.366611 0.024046
S6    S     S_3+6 0.347766 0.172501 0.635342 0.042174
S7    S     S_3+6 0.347604 0.827377 0.634511 0.023176
S8    S     S_3+6 0.652797 0.171685 0.363532 0.042083
Zn1   Zn    Zn3+2 0.792340 0.208750 0.507670 1.060830
Zn2   Zn    Zn3+2 0.494040 0.500000 0.919480 0.957229
Zn3   Zn    Zn3+2 0.005960 0.000000 0.080520 0.948321
Zn4   Zn    Zn3+2 0.994040 0.000000 0.919480 0.978702
Zn5   Zn    Zn3+2 0.207660 0.791250 0.492330 1.025449
Zn6   Zn    Zn3+2 0.207660 0.208750 0.492330 1.031742
Zn7   Zn    Zn3+2 0.792340 0.791250 0.507670 0.963786
Zn8   Zn    Zn3+2 0.292340 0.708750 0.507670 1.050674
Zn9   Zn    Zn3+2 0.707660 0.291250 0.492330 0.988047
Zn10  Zn    Zn3+2 0.707660 0.708750 0.492330 1.052828
Zn11  Zn    Zn3+2 0.292340 0.291250 0.507670 0.989956
Zn12  Zn    Zn3+2 0.505960 0.500000 0.080520 0.956023

loop_
_geom_bond_atom_site_label_1
_geom_bond_atom_site_label_2
_ccdc_geom_bond_type
C100  C153  A    
C145  O14   A    
C31   C42   A    
C132  C150  A    
C73   C82   A    
C133  C151  A    
C113  O56   A    
C74   C83   A    
C14   C33   A    
C19   C46   A    
C3    C105  A    
C16   C31   A    
C7    O30   A    
C91   C127  S    
C50   C59   A    
C52   C61   A    
C77   C156  S    
O66   S7    S    
C145  O5    A    
O64   S7    D    
O37   Zn4   S    
C131  C140  A    
C13   C51   A    
C147  O15   A    
C44   C53   A    
C97   C150  A    
C61   H60   S    
C117  C126  A    
C141  O72   A    
O25   Zn7   S    
C119  C128  A    
C47   C146  A    
C100  C109  A    
C24   C50   A    
O11   Zn6   S    
C109  C118  A    
C115  C123  A    
C144  O13   A    
C127  C136  A    
C101  C110  A    
C34   C39   A    
C9    C108  S    
C87   H21   S    
O23   Zn6   S    
C118  H35   S    
O24   Zn1   S    
C72   C151  S    
C91   O21   A    
C124  C130  S    
O4    Zn10  S    
O19   Zn8   S    
C98   H24   S    
C35   C45   A    
C121  H38   S    
C15   C30   A    
O22   Zn5   S    
C16   C25   A    
C133  H41   S    
C143  O11   A    
C76   C155  S    
H54   O63   S    
C106  C115  A    
C18   C38   A    
O1    Zn1   S    
C136  C153  A    
C138  H46   S    
C58   C141  S    
C97   H22   S    
C80   C126  S    
C36   C38   A    
C84   C93   A    
C81   H15   S    
C8    O42   A    
C86   C95   A    
C28   H12   S    
C2    C40   A    
O41   Zn2   S    
O26   Zn6   S    
C126  C134  A    
O12   Zn5   S    
O10   Zn5   S    
C76   C85   A    
O20   Zn11  S    
C91   O34   A    
C78   C87   A    
C123  C132  A    
C27   C29   A    
C6    C111  S    
C80   O20   A    
C4    O38   A    
C121  C130  A    
C71   C79   A    
C99   C108  A    
C11   O41   A    
C79   H14   S    
O58   S5    D    
C144  O4    A    
C37   C40   A    
C25   H45   S    
C140  H48   S    
C60   C143  S    
C38   C39   A    
C75   C84   A    
C71   C150  S    
O31   Zn12  S    
O62   S6    D    
O69   S8    D    
C46   C47   A    
C9    O32   A    
C142  O2    A    
C20   C35   A    
C8    O31   A    
C2    C44   A    
C22   C25   A    
C30   C41   A    
O33   Zn2   S    
O47   S1    S    
O32   Zn2   S    
C44   C65   A    
O17   Zn11  S    
C2    C45   A    
C58   C64   A    
C120  C129  A    
C134  H42   S    
C119  H36   S    
C104  C112  A    
C17   C37   A    
C149  O17   A    
C105  H30   S    
C115  H31   S    
C15   C67   A    
C21   H59   S    
O50   S2    S    
C51   C67   A    
C19   C28   A    
C94   H5    S    
C147  O6    A    
C117  H33   S    
C65   S4    S    
C116  C125  A    
O6    Zn1   S    
C118  C127  A    
O14   Zn8   S    
C69   O12   A    
C122  C131  A    
O28   Zn4   S    
C12   C70   A    
C32   C42   A    
O18   Zn9   S    
C108  C117  A    
C110  C119  A    
C59   C144  S    
C5    C112  S    
C99   C152  A    
C120  H37   S    
C7    C110  S    
C5    O39   A    
C22   H58   S    
C69   O19   A    
C56   C142  S    
C112  C121  A    
C73   C152  S    
O65   S7    D    
O29   Zn4   S    
C55   C148  S    
H51   O53   S    
O30   Zn3   S    
H50   O50   S    
C90   H13   S    
O5    Zn5   S    
C107  C116  A    
C99   H25   S    
O38   Zn4   S    
C43   C57   A    
C143  O3    A    
O27   Zn3   S    
C51   C60   A    
C124  O25   A    
O15   Zn9   S    
C138  C155  A    
C34   C37   A    
C24   C42   A    
C122  H39   S    
C13   C41   A    
C78   C90   A    
O8    Zn6   S    
C10   O40   A    
C80   O23   A    
C4    C114  S    
C148  O7    A    
C27   H23   S    
O53   S3    S    
O54   S4    D    
O68   S8    D    
C68   S7    S    
C103  C111  A    
O59   S5    D    
O21   Zn10  S    
C113  O24   A    
O61   S6    D    
C62   H2    S    
C148  O16   A    
C149  O8    A    
C63   H3    S    
C100  H26   S    
C72   C81   A    
C101  H27   S    
O67   Zn10  S    
C81   C89   A    
C69   C125  S    
O36   Zn3   S    
C84   H18   S    
C130  C139  A    
C79   C88   A    
C142  O10   A    
C98   C151  A    
C45   C54   A    
O45   Zn8   S    
C82   H16   S    
C103  H28   S    
O56   Zn9   S    
C4    O27   A    
C29   H1    S    
H49   O47   S    
C98   C107  A    
C1    C123  S    
C83   C92   A    
C18   C57   A    
C1    O18   A    
H53   O60   S    
C134  C152  A    
C64   H4    S    
C11   C106  S    
C53   C145  S    
C102  O45   A    
C48   C68   A    
O52   S3    D    
C97   C106  A    
C103  C155  A    
H52   O57   S    
C49   C70   A    
C9    O43   A    
O49   S2    D    
O13   Zn7   S    
C16   C66   A    
O55   S4    D    
O7    Zn7   S    
O44   S1    D    
C26   C28   A    
O71   Zn11  S    
O3    Zn11  S    
O43   Zn12  S    
O46   S1    D    
O40   Zn12  S    
C54   C62   A    
C102  C128  S    
C82   C90   A    
C33   C41   A    
O51   S3    D    
C43   C146  A    
C139  H47   S    
C95   H8    S    
O60   S5    S    
C92   H11   S    
C14   C22   A    
C93   H6    S    
C39   C146  A    
C137  C154  A    
C5    O28   A    
C43   C52   A    
O72   Zn9   S    
C20   C36   A    
C23   H56   S    
C14   C68   A    
C1    O1    A    
C73   C96   A    
C3    C78   S    
C77   C92   A    
C6    O29   A    
C26   H34   S    
C71   C94   A    
C35   S1    S    
C104  H29   S    
C116  H32   S    
C59   C64   A    
C113  C129  S    
C60   C63   A    
C17   C26   A    
C101  C154  A    
C135  O26   A    
C131  C135  S    
H57   O70   S    
O34   Zn7   S    
C55   C61   A    
O9    Zn1   S    
C67   S6    S    
C46   S2    S    
C136  H43   S    
O16   Zn10  S    
C129  C138  A    
O35   Zn12  S    
C31   C33   A    
O57   S4    S    
C70   S8    S    
C76   C88   A    
C57   S3    S    
C15   C23   A    
C12   C32   A    
C10   C107  S    
C54   C149  S    
C20   C29   A    
C141  O9    A    
C102  O22   A    
O70   S8    S    
C105  C114  A    
C36   C40   A    
C75   C89   A    
C66   S5    S    
C12   C21   A    
C11   O35   A    
C49   C58   A    
C74   C153  S    
C111  C120  A    
C128  C137  A    
C85   C94   A    
C137  H44   S    
C87   C96   A    
C56   C63   A    
H55   O66   S    
O48   S2    D    
C104  C156  A    
C50   C66   A    
C89   H9    S    
C77   C86   A    
C52   C147  S    
C88   H10   S    
C83   H17   S    
C135  O71   A    
C72   C93   A    
O39   Zn3   S    
O2    Zn8   S    
C47   C55   A    
C124  O67   A    
C125  C133  A    
C24   C49   A    
C48   C56   A    
C74   C95   A    
C18   C27   A    
C19   C34   A    
C13   C48   A    
O63   S6    S    
C17   C65   A    
C96   H7    S    
C6    O36   A    
C10   O33   A    
C21   C23   A    
C8    C109  S    
C30   C32   A    
C75   C154  S    
C139  C156  A    
O42   Zn2   S    
C85   H19   S    
C86   H20   S    
C114  C122  A    
C53   C62   A    
C132  H40   S    
C3    C140  A    
C7    O37   A    
