data_mof_unit_36690.cif
_audit_creation_date              2012-10-26T20:43:30-0400
_audit_creation_method            fapswitch 2.2
_symmetry_space_group_name_H-M    P1
_symmetry_Int_Tables_number       1
_space_group_crystal_system       triclinic
_cell_length_a                    10.937496
_cell_length_b                    9.486255
_cell_length_c                    23.474045
_cell_angle_alpha                 89.754274
_cell_angle_beta                  89.741566
_cell_angle_gamma                 89.643624
_cell_volume                      2435.4761094

loop_
_atom_site_label
_atom_site_type_symbol
_atom_type_description
_atom_site_fract_x
_atom_site_fract_y
_atom_site_fract_z
_atom_type_partial_charge
C1    C     C_R   0.262166 0.500184 0.499399 0.585322
C2    C     C_R   0.556922 0.406507 0.704635 0.185787
C3    C     C_R   0.368683 0.458712 0.244072 -0.115222
C4    C     C_R   0.547646 0.412346 0.764133 -0.106378
C5    C     C_R   0.466664 0.502971 0.209935 0.144226
C6    C     C_R   0.461263 0.499821 0.790738 0.140182
C7    C     C_R   0.064846 0.375758 0.513232 0.093957
C8    C     C_R   0.936255 0.624753 0.485002 0.087259
C9    C     C_R   0.937704 0.372252 0.508536 0.100895
C10   C     C_R   0.063956 0.622674 0.481692 0.092226
C11   C     C_R   0.872399 0.498655 0.497273 0.000201
C12   C     C_R   0.738154 0.499600 0.499336 0.582254
C13   C     C_R   0.128476 0.499853 0.498278 0.003831
C14   C     C_R   0.426473 0.075458 0.463667 0.017890
C15   C     C_R   0.573850 0.924597 0.536219 0.016772
C16   C     C_R   0.573968 0.073653 0.536111 0.000920
C17   C     C_R   0.427096 0.926467 0.463486 0.018588
C18   C     C_R   0.498750 0.499980 0.391092 0.602864
C19   C     C_R   0.498598 0.499816 0.609066 0.597490
C20   C     C_R   0.476859 0.626227 0.880323 0.433735
C21   C     C_R   0.434256 0.381303 0.120651 0.379325
C22   C     C_R   0.430278 0.380345 0.881143 0.379545
C23   C     C_R   0.578435 0.540200 0.235252 0.336656
C24   C     C_R   0.466045 0.630370 0.119960 0.441410
C25   C     C_R   0.428532 0.378596 0.940885 0.027916
C26   C     C_R   0.465534 0.632756 0.060177 0.022147
C27   C     C_R   0.448443 0.505166 0.970445 -0.032140
C28   C     C_R   0.447279 0.505854 0.030580 -0.031383
C29   C     C_R   0.470985 0.630685 0.940037 0.019173
C30   C     C_R   0.429192 0.379323 0.060965 0.026856
C31   C     C_R   0.408038 0.253455 0.971627 -0.126603
C32   C     C_R   0.484691 0.758168 0.029409 -0.126521
C33   C     C_R   0.409184 0.253637 0.031044 -0.127701
C34   C     C_R   0.383467 0.585622 0.757256 0.331011
C35   C     C_R   0.488382 0.756938 0.969970 -0.126919
C36   C     C_3   0.740667 0.472266 0.180578 -0.087743
C37   C     C_3   0.200450 0.594029 0.804719 -0.086369
C38   C     C_3   0.763553 0.455162 0.337323 -0.136669
C39   C     C_3   0.225155 0.619884 0.646177 -0.083549
C40   C     C_3   0.167783 0.416106 0.317236 -0.143663
C41   C     C_3   0.618172 0.179804 0.688304 -0.090029
C42   C     C_3   0.143579 0.240760 0.594062 -0.288517
C43   C     C_3   0.841519 0.791293 0.418217 -0.256357
C44   C     C_3   0.860829 0.159177 0.466092 -0.297131
C45   C     C_R   0.589714 0.537718 0.294693 0.225567
C46   C     C_3   0.156031 0.732547 0.399152 -0.288920
C47   C     C_R   0.398654 0.588778 0.697828 0.217972
C48   C     C_R   0.489070 0.498500 0.328914 -0.012520
C49   C     C_R   0.485836 0.499417 0.671430 -0.026805
C50   C     C_R   0.378181 0.456126 0.304090 0.193033
Cu1   Cu    Cu3+1 0.500000 0.640660 0.500000 0.986717
Cu2   Cu    Cu3+1 0.500000 0.359340 0.500000 0.974797
H1    H     H_    0.392632 0.154646 0.949919 0.168016
H2    H     H_    0.370009 0.870812 0.433965 0.125277
H3    H     H_    0.682894 0.404363 0.153370 0.131635
H4    H     H_    0.782401 0.408647 0.215292 0.109931
H5    H     H_    0.816282 0.512367 0.153490 0.144937
H6    H     H_    0.221673 0.559626 0.848815 0.141988
H7    H     H_    0.176818 0.500903 0.778196 0.088961
H8    H     H_    0.117764 0.662089 0.806991 0.145779
H9    H     H_    0.744827 0.358767 0.311853 0.096485
H10   H     H_    0.741843 0.434063 0.382632 0.127075
H11   H     H_    0.863131 0.475530 0.334270 0.115704
H12   H     H_    0.498754 0.857241 0.051126 0.165870
H13   H     H_    0.162114 0.594257 0.681902 0.116003
H14   H     H_    0.246427 0.523471 0.621260 0.087117
H15   H     H_    0.176750 0.694276 0.617346 0.150557
H16   H     H_    0.150238 0.520465 0.296893 0.108134
H17   H     H_    0.100352 0.404178 0.352368 0.129352
H18   H     H_    0.152406 0.328470 0.286911 0.136443
H19   H     H_    0.525382 0.153521 0.672293 0.137244
H20   H     H_    0.626793 0.150194 0.733966 0.143057
H21   H     H_    0.685361 0.114544 0.664480 0.122151
H22   H     H_    0.109798 0.160257 0.512600 0.248097
H23   H     H_    0.394793 0.154937 0.053389 0.167541
H24   H     H_    0.098117 0.143526 0.609719 0.131189
H25   H     H_    0.103197 0.332211 0.617073 0.128982
H26   H     H_    0.242440 0.233653 0.604220 0.173587
H27   H     H_    0.898799 0.837642 0.501441 0.231491
H28   H     H_    0.902140 0.876764 0.402653 0.111909
H29   H     H_    0.745364 0.829115 0.416674 0.184206
H30   H     H_    0.851245 0.699565 0.389475 0.187771
H31   H     H_    0.904855 0.183278 0.551590 0.252874
H32   H     H_    0.950705 0.120539 0.450291 0.112751
H33   H     H_    0.816300 0.222454 0.432059 0.156590
H34   H     H_    0.504942 0.855153 0.947609 0.166089
H35   H     H_    0.801948 0.067294 0.475564 0.139538
H36   H     H_    0.092152 0.839366 0.470626 0.245046
H37   H     H_    0.073888 0.704634 0.374113 0.133846
H38   H     H_    0.228210 0.651844 0.392217 0.199020
H39   H     H_    0.190236 0.835385 0.383215 0.119109
H40   H     H_    0.285996 0.426232 0.222903 0.146619
H41   H     H_    0.609204 0.349877 0.790123 0.159917
H42   H     H_    0.367597 0.132527 0.434581 0.141649
H43   H     H_    0.633279 0.867562 0.565058 0.121098
H44   H     H_    0.634017 0.129510 0.564458 0.138612
N1    N     N_R   0.455281 0.502631 0.852031 -0.392498
N2    N     N_R   0.453761 0.505361 0.148924 -0.390205
N3    N     N_R   0.500000 0.852070 0.500000 -0.225108
N4    N     N_R   0.500000 0.147930 0.500000 -0.232568
N5    N     N_2   0.128998 0.253536 0.532914 -0.489489
N6    N     N_2   0.872194 0.754489 0.476342 -0.502401
N7    N     N_2   0.875449 0.242149 0.517232 -0.483254
N8    N     N_2   0.126954 0.742316 0.459258 -0.492482
O1    O     O_R   0.319640 0.618740 0.500000 -0.481353
O2    O     O_2   0.422613 0.259680 0.150163 -0.497465
O3    O     O_2   0.406535 0.260876 0.852311 -0.501230
O4    O     O_2   0.479349 0.751803 0.148954 -0.449625
O5    O     O_3   0.674847 0.588609 0.202337 -0.495029
O6    O     O_3   0.297388 0.674460 0.781820 -0.493566
O7    O     O_3   0.699777 0.576806 0.318551 -0.549941
O8    O     O_3   0.332103 0.685330 0.666024 -0.514645
O9    O     O_3   0.286226 0.407071 0.340580 -0.564546
O10   O     O_3   0.645644 0.323232 0.678897 -0.556343
O11   O     O_R   0.680360 0.381260 0.500000 -0.481991
O12   O     O_R   0.680360 0.618740 0.500000 -0.480799
O13   O     O_R   0.319640 0.381260 0.500000 -0.472959
O14   O     O_R   0.499960 0.618810 0.417880 -0.504148
O15   O     O_R   0.500040 0.381190 0.582120 -0.493348
O16   O     O_R   0.500040 0.618810 0.582120 -0.472144
O17   O     O_R   0.499960 0.381190 0.417880 -0.496009
O18   O     O_2   0.505325 0.744024 0.850827 -0.451485

loop_
_geom_bond_atom_site_label_1
_geom_bond_atom_site_label_2
_ccdc_geom_bond_type
C25   C31   A    
C26   C32   A    
C23   C45   A    
C27   C29   A    
C41   O10   S    
C47   C49   A    
C46   H37   S    
C40   H18   S    
C24   N2    A    
C24   C26   A    
C15   H43   S    
C35   H34   S    
C45   C48   A    
C47   O8    S    
Cu1   O14   S    
C44   N7    S    
C20   N1    A    
C22   C25   A    
C31   C33   A    
H27   N6    S    
C24   O4    S    
C44   H35   S    
C18   O14   A    
C20   O18   S    
C37   H6    S    
C9    N7    S    
C41   H19   S    
C38   H9    S    
Cu2   O13   S    
C48   C50   A    
C19   O15   A    
C22   N1    A    
C39   H13   S    
C14   C17   A    
C26   C28   A    
H36   N8    S    
C3    C50   A    
C33   H23   S    
C20   C29   A    
Cu1   N3    S    
C23   O5    S    
C16   H44   S    
C40   H17   S    
Cu1   Cu2   S    
C32   C35   A    
C32   H12   S    
C4    C6    A    
C36   H5    S    
C16   N4    A    
C46   H39   S    
C3    C5    A    
C43   H28   S    
C46   N8    S    
Cu2   N4    S    
C6    C34   A    
C3    H40   S    
C2    C4    A    
C6    N1    S    
C36   H4    S    
C2    C49   A    
C17   N3    A    
Cu2   O17   S    
C19   C49   S    
C40   O9    S    
C5    C23   A    
Cu1   O1    S    
Cu1   O16   S    
C1    O13   A    
C31   H1    S    
C9    C11   A    
C37   O6    S    
C37   H7    S    
H31   N7    S    
H22   N5    S    
C39   O8    S    
C19   O16   A    
C42   H26   S    
C41   H20   S    
C7    N5    S    
C34   O6    S    
C39   H14   S    
C1    C13   S    
C44   H33   S    
C42   N5    S    
C27   C28   A    
C38   H11   S    
Cu2   O11   S    
C7    C9    A    
C30   C33   A    
C39   H15   S    
C21   O2    S    
C15   N3    A    
C44   H32   S    
C10   C13   A    
C18   C48   S    
C11   C12   S    
C45   O7    S    
C14   N4    A    
C46   H38   S    
C25   C27   A    
C21   C30   A    
C29   C35   A    
C42   H24   S    
Cu1   O12   S    
C50   O9    S    
C12   O11   A    
C10   N8    S    
C43   N6    S    
C36   H3    S    
C21   N2    A    
C2    O10   S    
C8    C11   A    
C43   H29   S    
C15   C16   A    
C28   C30   A    
C37   H8    S    
C18   O17   A    
C41   H21   S    
C4    H41   S    
Cu2   O15   S    
C7    C13   A    
C5    N2    S    
C42   H25   S    
C8    C10   A    
C40   H16   S    
C36   O5    S    
C43   H30   S    
C34   C47   A    
C38   H10   S    
C38   O7    S    
C8    N6    S    
C17   H2    S    
C14   H42   S    
C22   O3    S    
C1    O1    A    
C12   O12   A    
