data_mof_unit_14105.cif
_audit_creation_date              2012-10-26T20:33:15-0400
_audit_creation_method            fapswitch 2.2
_symmetry_space_group_name_H-M    P1
_symmetry_Int_Tables_number       1
_space_group_crystal_system       triclinic
_cell_length_a                    17.69059
_cell_length_b                    10.799669
_cell_length_c                    9.585016
_cell_angle_alpha                 90.070611
_cell_angle_beta                  89.49265
_cell_angle_gamma                 91.262918
_cell_volume                      1830.72382643

loop_
_atom_site_label
_atom_site_type_symbol
_atom_type_description
_atom_site_fract_x
_atom_site_fract_y
_atom_site_fract_z
_atom_type_partial_charge
C1    C     C_R   0.499804 0.262529 0.499815 0.546817
C2    C     C_R   0.115454 0.527658 0.504648 0.042996
C3    C     C_R   0.453628 0.061925 0.594040 0.017528
C4    C     C_R   0.355766 0.503147 0.500432 0.532366
C5    C     C_R   0.496993 0.129088 0.496983 0.007560
C6    C     C_R   0.531664 0.065351 0.386638 -0.175164
C7    C     C_R   0.531003 0.936231 0.386008 -0.167506
C8    C     C_R   0.495862 0.870340 0.496055 0.008816
C9    C     C_R   0.452503 0.934646 0.592943 0.008441
C10   C     C_3   0.446336 0.926501 0.747905 -0.290289
C11   C     C_3   0.448961 0.067386 0.749398 -0.257513
C12   C     C_R   0.885763 0.519592 0.506996 0.060414
C13   C     C_R   0.544550 0.582669 0.073154 0.055163
C14   C     C_R   0.454851 0.419393 0.075700 0.233687
C15   C     C_R   0.451039 0.425178 0.925889 0.359106
C16   C     C_R   0.499470 0.737354 0.499728 0.546014
C17   C     C_R   0.544950 0.582126 0.925369 0.112579
C18   C     C_3   0.629630 0.586402 0.921637 0.148394
C19   C     C_3   0.628823 0.590506 0.080395 -0.252541
C20   C     C_R   0.644414 0.500691 0.499631 0.544009
C21   C     C_R   0.845419 0.474275 0.624016 0.156611
C22   C     C_R   0.766424 0.465584 0.619039 -0.098184
C23   C     C_1   0.966683 0.524356 0.505977 -0.004886
C24   C     C_R   0.727523 0.504305 0.500284 -0.001872
C25   C     C_R   0.768588 0.550025 0.384899 -0.150659
C26   C     C_R   0.847268 0.557103 0.388073 -0.156036
C27   C     C_3   0.904669 0.536024 0.839055 -0.296884
C28   C     C_3   0.425143 0.197522 0.109416 -0.283759
C29   C     C_3   0.327074 0.382213 0.874354 -0.004193
C30   C     C_3   0.274977 0.301166 0.785461 -0.366741
C31   C     C_3   0.647404 0.806608 0.902398 -0.000159
C32   C     C_3   0.659260 0.903030 0.788155 -0.366426
C33   C     C_3   0.160000 0.694670 0.842646 -0.322025
C34   C     C_1   0.034488 0.526841 0.505401 -0.023447
C35   C     C_R   0.157056 0.581891 0.614831 0.165884
C36   C     C_R   0.236496 0.574279 0.610709 -0.109659
C37   C     C_R   0.273115 0.512705 0.501198 -0.025662
C38   C     C_R   0.230569 0.462120 0.391850 -0.148580
C39   C     C_R   0.152252 0.469362 0.393812 -0.147426
Cu1   Cu    Cu3+1 0.500000 0.499980 0.640670 0.997109
Cu2   Cu    Cu3+1 0.500000 0.500020 0.359330 0.946284
H1    H     H_    0.561234 0.888482 0.303934 0.121777
H2    H     H_    0.740069 0.582340 0.293236 0.117495
H3    H     H_    0.878140 0.592153 0.297727 0.107525
H4    H     H_    0.270611 0.617968 0.690473 0.106365
H5    H     H_    0.257588 0.415126 0.305927 0.106541
H6    H     H_    0.120124 0.427867 0.309364 0.111960
H7    H     H_    0.562112 0.114991 0.304785 0.127048
H8    H     H_    0.856752 0.363796 0.798032 0.237951
H9    H     H_    0.853112 0.580016 0.881688 0.147167
H10   H     H_    0.940125 0.606853 0.783814 0.161335
H11   H     H_    0.937819 0.499296 0.927078 0.141646
H12   H     H_    0.390825 0.886505 0.782365 0.127111
H13   H     H_    0.362248 0.346221 0.187843 0.232058
H14   H     H_    0.382946 0.170434 0.029605 0.145418
H15   H     H_    0.415714 0.136381 0.201071 0.146253
H16   H     H_    0.483328 0.183320 0.068586 0.140199
H17   H     H_    0.319818 0.480843 0.846162 0.133386
H18   H     H_    0.308208 0.370476 0.983922 0.098819
H19   H     H_    0.273231 0.205072 0.826551 0.119266
H20   H     H_    0.216818 0.337804 0.788522 0.116326
H21   H     H_    0.295356 0.299247 0.675709 0.174317
H22   H     H_    0.687890 0.829185 0.987130 0.122831
H23   H     H_    0.496081 0.884391 0.796479 0.145550
H24   H     H_    0.588710 0.813499 0.943316 0.112159
H25   H     H_    0.623371 0.879810 0.696999 0.171532
H26   H     H_    0.644108 0.995916 0.828047 0.082158
H27   H     H_    0.719411 0.905619 0.753881 0.154131
H28   H     H_    0.070651 0.688935 0.700407 0.246937
H29   H     H_    0.119890 0.729673 0.922464 0.138892
H30   H     H_    0.196167 0.773484 0.805356 0.135778
H31   H     H_    0.194952 0.623411 0.892945 0.140983
H32   H     H_    0.395114 0.107299 0.785998 0.166828
H33   H     H_    0.501059 0.107362 0.797384 0.148726
H34   H     H_    0.652319 0.497638 0.882658 0.124406
H35   H     H_    0.652860 0.505533 0.125848 0.119698
H36   H     H_    0.735611 0.428773 0.708301 0.108635
H37   H     H_    0.648737 0.677480 0.130770 0.107624
N1    N     N_R   0.500470 0.500930 0.147930 -0.242790
N2    N     N_R   0.500480 0.500890 0.852020 -0.261003
N3    N     N_2   0.883866 0.435752 0.745816 -0.513104
N4    N     N_2   0.415206 0.324917 0.151565 -0.458744
N5    N     N_2   0.118032 0.640926 0.727698 -0.517295
O1    O     O_R   0.500000 0.319640 0.618810 -0.465966
O2    O     O_3   0.662818 0.688282 0.846783 -0.539223
O3    O     O_R   0.500010 0.319680 0.381230 -0.476833
O4    O     O_R   0.391250 0.499990 0.618840 -0.480963
O5    O     O_R   0.391260 0.500020 0.381250 -0.498313
O6    O     O_R   0.499990 0.680320 0.618770 -0.490791
O7    O     O_R   0.500000 0.680360 0.381190 -0.503847
O8    O     O_R   0.608740 0.499980 0.618750 -0.485969
O9    O     O_R   0.608750 0.500010 0.381160 -0.512469
O10   O     O_3   0.402825 0.346295 0.853298 -0.539690

loop_
_geom_bond_atom_site_label_1
_geom_bond_atom_site_label_2
_ccdc_geom_bond_type
C2    C35   A    
C13   N1    A    
C16   O7    A    
C18   H34   S    
C31   O2    S    
Cu1   O1    S    
C35   C36   A    
C25   H2    S    
C28   H15   S    
C26   H3    S    
C7    C8    A    
C4    O4    A    
C28   H16   S    
C1    O1    A    
Cu2   O3    S    
C20   O9    A    
C12   C23   S    
C37   C38   A    
C6    H7    S    
C1    C5    S    
Cu1   O4    S    
C32   H25   S    
C36   C37   A    
C5    C6    A    
H28   N5    S    
C18   C19   S    
C7    H1    S    
H8    N3    S    
C10   H12   S    
C20   C24   S    
C33   H31   S    
C2    C39   A    
C15   N2    A    
C8    C9    A    
C30   H19   S    
Cu1   N2    S    
Cu1   O6    S    
C9    C10   S    
C27   H9    S    
C32   H27   S    
C2    C34   S    
Cu2   O7    S    
C16   O6    A    
C8    C16   S    
C21   C22   A    
C28   H14   S    
C27   H10   S    
C20   O8    A    
C18   O2    S    
C13   C19   S    
C28   N4    S    
C31   H22   S    
C27   N3    S    
C24   C25   A    
C11   H32   S    
C35   N5    S    
C25   C26   A    
C12   C21   A    
C17   N2    A    
C12   C26   A    
C19   H37   S    
Cu2   N1    S    
C29   C30   S    
C3    C9    A    
C31   C32   S    
C23   C34   T    
C17   C18   S    
C36   H4    S    
C14   N1    A    
C29   H17   S    
C33   N5    S    
C33   H29   S    
C32   H26   S    
Cu1   Cu2   S    
C21   N3    S    
C30   H21   S    
C22   C24   A    
C14   N4    S    
H13   N4    S    
C27   H11   S    
C39   H6    S    
C1    O3    A    
C31   H24   S    
Cu2   O5    S    
C19   H35   S    
C10   H23   S    
C22   H36   S    
C3    C5    A    
C11   H33   S    
C15   O10   S    
C6    C7    A    
C4    O5    A    
C13   C17   A    
C29   O10   S    
C38   C39   A    
Cu1   O8    S    
C38   H5    S    
C3    C11   S    
C10   C11   S    
C33   H30   S    
Cu2   O9    S    
C4    C37   S    
C30   H20   S    
C29   H18   S    
C14   C15   A    
