data_mof_unit_29566.cif
_audit_creation_date              2013-03-05T15:39:31-0500
_audit_creation_method            fapswitch 2.2
_symmetry_space_group_name_H-M    P1
_symmetry_Int_Tables_number       1
_space_group_crystal_system       triclinic
_cell_length_a                    19.69911
_cell_length_b                    17.064
_cell_length_c                    15.331468
_cell_angle_alpha                 90.369978
_cell_angle_beta                  53.560654
_cell_angle_gamma                 89.798122
_cell_volume                      4145.74424118

loop_
_atom_site_label
_atom_site_type_symbol
_atom_site_description
_atom_site_fract_x
_atom_site_fract_y
_atom_site_fract_z
_atom_type_partial_charge
C1    C     C_R   0.339695 0.174632 0.051204 -0.036752
C2    C     C_R   0.375306 0.802642 0.994611 -0.088061
C3    C     C_R   0.839940 0.674939 0.050598 -0.060126
C4    C     C_R   0.875047 0.302719 0.995115 -0.072672
H1    H     H_    0.330157 0.223119 0.102795 0.120037
H2    H     H_    0.384901 0.747590 0.020288 0.081572
H3    H     H_    0.830643 0.723758 0.101549 0.089127
H4    H     H_    0.884345 0.247778 0.021311 0.092060
N1    N     N_R   0.408680 0.130160 0.995800 -0.056130
N2    N     N_R   0.408680 0.869840 0.995800 -0.042388
N3    N     N_R   0.908680 0.630160 0.995800 -0.048217
N4    N     N_R   0.908680 0.369840 0.995800 -0.047725
C5    C     C_R   0.353620 0.824622 0.217187 -0.154003
C6    C     C_R   0.406836 0.201394 0.202372 -0.092946
C7    C     C_R   0.856311 0.322041 0.218063 -0.142101
C8    C     C_R   0.901607 0.700103 0.207941 -0.202784
H5    H     H_    0.337101 0.774349 0.190940 0.114035
H6    H     H_    0.403831 0.256353 0.170224 0.117572
H7    H     H_    0.839612 0.271846 0.191898 0.107704
H8    H     H_    0.895597 0.755613 0.179600 0.124942
N5    N     N_R   0.421680 0.867580 0.153120 -0.068714
N6    N     N_R   0.421680 0.132420 0.153120 -0.059468
N7    N     N_R   0.921680 0.367580 0.153120 -0.065495
N8    N     N_R   0.921680 0.632420 0.153120 -0.061139
C9    C     C_R   0.365419 0.888717 0.896353 -0.139235
C10   C     C_R   0.328960 0.086806 0.952976 -0.134046
C11   C     C_R   0.865459 0.388639 0.896363 -0.132920
C12   C     C_R   0.829112 0.586929 0.952635 -0.106626
H9    H     H_    0.361350 0.914245 0.835171 0.112303
H10   H     H_    0.307538 0.052686 0.914062 0.117811
H11   H     H_    0.861455 0.414062 0.835075 0.127956
H12   H     H_    0.807726 0.552786 0.913694 0.119891
N9    N     N_R   0.403730 0.921770 0.935950 -0.042311
N10   N     N_R   0.403730 0.078230 0.935950 -0.047627
N11   N     N_R   0.903730 0.421770 0.935950 -0.049045
N12   N     N_R   0.903730 0.578230 0.935950 -0.047593
C13   C     C_R   0.426018 0.114006 0.290147 0.391677
C14   C     C_R   0.360114 0.916621 0.316651 0.301683
C15   C     C_R   0.924274 0.612004 0.292453 0.426931
C16   C     C_R   0.867016 0.411368 0.317249 0.292018
N13   N     N_R   0.426630 0.075970 0.212960 -0.057491
N14   N     N_R   0.426630 0.924030 0.212960 -0.065302
N15   N     N_R   0.926630 0.575970 0.212960 -0.077291
N16   N     N_R   0.926630 0.424030 0.212960 -0.067209
C17   C     C_R   0.286897 0.148087 0.026996 0.148071
C18   C     C_R   0.347226 0.812628 0.932482 0.144925
C19   C     C_R   0.787173 0.648357 0.026367 0.134682
C20   C     C_R   0.847156 0.312612 0.932763 0.140637
C21   C     C_R   0.313441 0.853387 0.321275 0.032784
C22   C     C_R   0.407727 0.191890 0.290382 -0.086487
C23   C     C_R   0.819721 0.348585 0.322363 0.016680
C24   C     C_R   0.902076 0.688840 0.296854 -0.073920
C25   C     C_R   0.659999 0.177444 0.954385 -0.122790
C26   C     C_R   0.623702 0.800201 0.011140 -0.087954
C27   C     C_R   0.160179 0.677241 0.953844 -0.112465
C28   C     C_R   0.124104 0.300263 0.010599 -0.140775
H13   H     H_    0.669878 0.228338 0.906911 0.106252
H14   H     H_    0.616936 0.743840 0.984850 0.088134
H15   H     H_    0.169939 0.728203 0.906535 0.102583
H16   H     H_    0.117787 0.243963 0.983719 0.107478
N17   N     N_R   0.591320 0.134600 0.004200 -0.057305
N18   N     N_R   0.591320 0.865400 0.004200 -0.052547
N19   N     N_R   0.091320 0.634600 0.004200 -0.051834
N20   N     N_R   0.091320 0.365400 0.004200 -0.056449
C29   C     C_R   0.650457 0.828992 0.780868 -0.099744
C30   C     C_R   0.598040 0.198608 0.792566 -0.115170
C31   C     C_R   0.148027 0.325686 0.779297 -0.031842
C32   C     C_R   0.099997 0.698096 0.790702 -0.114930
H17   H     H_    0.668339 0.778473 0.804934 0.113977
H18   H     H_    0.603815 0.253823 0.821886 0.161119
H19   H     H_    0.166007 0.274195 0.801862 0.115903
H20   H     H_    0.105330 0.754010 0.819210 0.156481
N21   N     N_R   0.578320 0.867660 0.846880 -0.051089
N22   N     N_R   0.578320 0.132340 0.846880 -0.049973
N23   N     N_R   0.078320 0.367660 0.846880 -0.046580
N24   N     N_R   0.078320 0.632340 0.846880 -0.053323
C33   C     C_R   0.587649 0.105688 0.699229 -0.153650
C34   C     C_R   0.642053 0.922593 0.685265 -0.133803
C35   C     C_R   0.089904 0.604500 0.697527 -0.148246
C36   C     C_R   0.138202 0.418829 0.683897 -0.124241
H21   H     H_    0.578614 0.075085 0.644938 0.104761
H22   H     H_    0.652390 0.957918 0.620337 0.096472
H23   H     H_    0.081123 0.573712 0.643128 0.117742
H24   H     H_    0.146331 0.453381 0.619777 0.102027
N25   N     N_R   0.573370 0.074390 0.787040 -0.037495
N26   N     N_R   0.573370 0.925610 0.787040 -0.044348
N27   N     N_R   0.073370 0.574390 0.787040 -0.044546
N28   N     N_R   0.073370 0.425610 0.787040 -0.040440
C37   C     C_R   0.633918 0.895126 0.105077 -0.113826
C38   C     C_R   0.670260 0.082080 0.048944 -0.038297
C39   C     C_R   0.133911 0.395090 0.105072 -0.105835
C40   C     C_R   0.170897 0.581575 0.047549 -0.058892
H25   H     H_    0.638323 0.922544 0.165328 0.127108
H26   H     H_    0.692281 0.048125 0.086976 0.117093
H27   H     H_    0.138155 0.422433 0.165501 0.143890
H28   H     H_    0.193332 0.547383 0.084909 0.119948
N29   N     N_R   0.596270 0.927870 0.064040 -0.042578
N30   N     N_R   0.596270 0.072130 0.064040 -0.040224
N31   N     N_R   0.096270 0.427870 0.064040 -0.047901
N32   N     N_R   0.096270 0.572130 0.064040 -0.039405
Ni1   Ni    Ni4+2 0.500000 0.131190 0.000000 0.237432
Ni2   Ni    Ni4+2 0.500000 0.868810 0.000000 0.219032
Ni3   Ni    Ni4+2 1.000000 0.631190 0.000000 0.232667
Ni4   Ni    Ni4+2 0.000000 0.368810 0.000000 0.232305
Ni5   Ni    Ni4+2 0.488650 0.000000 0.862740 0.225029
Ni6   Ni    Ni4+2 0.988650 0.500000 0.862740 0.240024
Ni7   Ni    Ni4+2 0.511350 0.000000 0.137260 0.293070
Ni8   Ni    Ni4+2 0.011350 0.500000 0.137260 0.290567
C41   C     C_R   0.710838 0.146271 0.980475 0.117275
C42   C     C_R   0.651325 0.816530 0.073014 0.144994
C43   C     C_R   0.211342 0.645881 0.979267 0.121443
C44   C     C_R   0.151539 0.316538 0.072750 0.120028
C45   C     C_R   0.692470 0.862618 0.678438 0.079627
C46   C     C_R   0.604304 0.183574 0.699203 0.067845
C47   C     C_R   0.187142 0.356907 0.676179 0.011770
C48   C     C_R   0.108082 0.681890 0.696192 0.079889
C49   C     C_3   0.258343 0.210164 0.447299 0.105797
C50   C     C_3   0.173760 0.860631 0.509503 0.079380
C51   C     C_3   0.867614 0.714374 0.486030 0.093828
C52   C     C_3   0.685141 0.362841 0.511470 0.096492
H29   H     H_    0.256401 0.146757 0.465612 0.159857
H30   H     H_    0.196523 0.907113 0.535686 0.186435
H31   H     H_    0.935799 0.723614 0.447540 0.150065
H32   H     H_    0.714671 0.403722 0.535217 0.183857
C53   C     C_3   0.197474 0.255525 0.554486 0.096662
C54   C     C_3   0.111579 0.809890 0.610452 0.091754
C55   C     C_3   0.814878 0.768953 0.586421 0.087035
C56   C     C_3   0.618601 0.315128 0.613178 0.093031
H33   H     H_    0.776055 0.730691 0.657966 0.112880
H34   H     H_    0.560813 0.309673 0.616204 0.114434
H35   H     H_    0.153398 0.291298 0.547588 0.136145
H36   H     H_    0.055286 0.797187 0.612138 0.154938
H37   H     H_    0.363531 0.159794 0.496663 0.239792
H38   H     H_    0.338452 0.822074 0.468946 0.218280
H39   H     H_    0.936974 0.837022 0.348352 0.215285
H40   H     H_    0.849024 0.302898 0.460827 0.222992
H41   H     H_    0.839432 0.920980 0.490714 0.215513
H42   H     H_    0.746484 0.265557 0.629369 0.210955
H43   H     H_    0.288994 0.233356 0.648149 0.198517
H44   H     H_    0.240512 0.776144 0.633019 0.205848
C57   C     C_3   0.373428 0.222457 0.472959 -0.382746
C58   C     C_3   0.302034 0.777263 0.461232 -0.437794
C59   C     C_3   0.871908 0.825317 0.374434 -0.405267
C60   C     C_3   0.805173 0.264838 0.458191 -0.430690
C61   C     C_3   0.757666 0.725695 0.445786 -0.305400
C62   C     C_3   0.712426 0.239154 0.401220 -0.367390
C63   C     C_3   0.360636 0.327164 0.370502 -0.327658
C64   C     C_3   0.217628 0.735021 0.397180 -0.366876
C65   C     C_3   0.351533 0.237762 0.392009 0.148709
C66   C     C_3   0.251553 0.808780 0.419984 0.186274
C67   C     C_3   0.851778 0.736409 0.398860 0.156316
C68   C     C_3   0.755897 0.305840 0.420920 0.181914
H45   H     H_    0.745288 0.752796 0.390493 0.158536
H46   H     H_    0.759718 0.198632 0.335304 0.160500
H47   H     H_    0.425389 0.345718 0.339659 0.176563
H48   H     H_    0.270298 0.697153 0.333009 0.159322
H49   H     H_    0.740538 0.663037 0.451291 0.219451
H50   H     H_    0.673082 0.262814 0.377465 0.215879
H51   H     H_    0.352112 0.343673 0.307738 0.192438
H52   H     H_    0.178859 0.751366 0.369290 0.222423
C69   C     C_3   0.754294 0.820122 0.576316 0.140811
C70   C     C_3   0.653764 0.230223 0.600243 0.153431
C71   C     C_3   0.248096 0.314292 0.573948 0.166119
C72   C     C_3   0.154758 0.729416 0.597752 0.146025
C73   C     C_3   0.807259 0.874827 0.476629 -0.347695
C74   C     C_3   0.744263 0.230812 0.569552 -0.369400
C75   C     C_3   0.316417 0.271792 0.576794 -0.389013
C76   C     C_3   0.243461 0.739634 0.570543 -0.376760
C77   C     C_3   0.701254 0.765724 0.556586 -0.433798
C78   C     C_3   0.657737 0.190703 0.504777 -0.464631
C79   C     C_3   0.295489 0.371812 0.476247 -0.447314
C80   C     C_3   0.165277 0.685827 0.500200 -0.452351
H53   H     H_    0.668438 0.720692 0.620992 0.211615
H54   H     H_    0.593281 0.184440 0.526056 0.180780
H55   H     H_    0.250886 0.401393 0.465029 0.182262
H56   H     H_    0.102596 0.673757 0.518282 0.199536
H57   H     H_    0.651299 0.799633 0.559952 0.175606
H58   H     H_    0.686497 0.131063 0.487263 0.187614
H59   H     H_    0.327492 0.418211 0.490621 0.185858
H60   H     H_    0.198280 0.628561 0.484375 0.185393
H61   H     H_    0.440609 0.236743 0.435002 0.211160
H62   H     H_    0.349703 0.733159 0.402304 0.180937
H63   H     H_    0.869265 0.844458 0.307400 0.165968
H64   H     H_    0.845523 0.216925 0.399773 0.188532
H65   H     H_    0.765321 0.905681 0.461645 0.151418
H66   H     H_    0.765821 0.170258 0.569396 0.182662
H67   H     H_    0.355111 0.315836 0.582726 0.185034
H68   H     H_    0.270743 0.681782 0.568873 0.172844
C81   C     C_2   0.284528 0.685123 0.959234 -0.153531
C82   C     C_2   0.192023 0.260181 0.099105 -0.134650
C83   C     C_2   0.784199 0.185280 0.960101 -0.134542
C84   C     C_2   0.691956 0.760173 0.099078 -0.179645
H69   H     H_    0.305131 0.666025 0.007401 0.130376
H70   H     H_    0.219025 0.283526 0.138026 0.160717
H71   H     H_    0.804837 0.166180 0.008245 0.126933
H72   H     H_    0.718815 0.783438 0.138209 0.127523
C85   C     C_2   0.810276 0.252959 0.905655 -0.127750
C86   C     C_2   0.711491 0.687993 0.054284 -0.162071
C87   C     C_2   0.310377 0.752987 0.905216 -0.187314
C88   C     C_2   0.211223 0.187817 0.054892 -0.164512
H73   H     H_    0.792063 0.270920 0.854499 0.133325
H74   H     H_    0.682781 0.663701 0.018091 0.132089
H75   H     H_    0.292127 0.770998 0.854135 0.135511
H76   H     H_    0.182323 0.163475 0.018966 0.130551
N33   N     N_R   0.230759 0.217057 0.377014 0.235017
O1    O     O_R   0.210462 0.154370 0.348798 -0.343491
O2    O     O_R   0.221326 0.285194 0.347601 -0.441680
N34   N     N_R   0.128874 0.900199 0.472105 0.257604
O3    O     O_R   0.067612 0.948769 0.537479 -0.258189
O4    O     O_R   0.152579 0.892921 0.373072 -0.371659
N35   N     N_R   0.847707 0.632901 0.524142 0.258721
O5    O     O_R   0.891105 0.600329 0.553378 -0.308597
O6    O     O_R   0.773575 0.604461 0.563657 -0.368918
N36   N     N_R   0.643393 0.411412 0.476619 0.234940
O7    O     O_R   0.588943 0.464656 0.542754 -0.346044
O8    O     O_R   0.663068 0.406428 0.379326 -0.417208
N37   N     N_R   0.145663 0.201138 0.644901 0.241196
O9    O     O_R   0.180154 0.147050 0.666712 -0.376809
O10   O     O_R   0.063827 0.204129 0.700726 -0.355761
N38   N     N_R   0.081558 0.852262 0.711368 0.242546
O11   O     O_R   0.134127 0.884534 0.725658 -0.394828
O12   O     O_R   0.000919 0.862282 0.785145 -0.332694
N39   N     N_R   0.868123 0.815943 0.604448 0.241871
O13   O     O_R   0.932460 0.854690 0.526092 -0.359844
O14   O     O_R   0.855366 0.813563 0.697976 -0.358923
N40   N     N_R   0.593920 0.356058 0.712870 0.238185
O15   O     O_R   0.650248 0.381425 0.724834 -0.398703
O16   O     O_R   0.514749 0.372560 0.787431 -0.378747
Br1   Br    Br    0.506694 0.085505 0.317682 -0.608384
Br2   Br    Br    0.341353 0.973720 0.437879 -0.550705
Br3   Br    Br    0.013134 0.589246 0.307173 -0.524689
Br4   Br    Br    0.869055 0.454014 0.431139 -0.448874

loop_
_geom_bond_atom_site_label_1
_geom_bond_atom_site_label_2
_geom_bond_distance
_ccdc_geom_bond_type
C11   C20   1.377717 A    
H44   C76   1.111268 S    
C60   H64   1.114749 S    
C12   C19   1.388638 A    
C76   H68   1.115189 S    
N34   O4    1.301419 A    
C27   H15   1.078396 S    
C6    H6    1.079896 S    
C50   N34   1.472930 S    
N39   O13   1.301570 A    
C4    H4    1.079264 S    
C63   H51   1.108433 S    
C51   H31   1.112804 S    
C35   N27   1.316339 A    
N38   O12   1.301201 A    
C82   C88   1.344856 D    
C14   Br2   1.923129 S    
C14   C21   1.394706 A    
C30   H18   1.076466 S    
N33   O1    1.301431 A    
C2    C18   1.367359 A    
C17   C88   1.447941 S    
C7    H7    1.075683 S    
N31   Ni8   1.819436 S    
C80   H56   1.113463 S    
N6    Ni1   1.894288 S    
C21   C66   1.478366 S    
C78   H58   1.113764 S    
C1    H1    1.076744 S    
C84   H72   1.083024 S    
N3    N12   1.316477 A    
C63   C65   1.551245 S    
C64   C66   1.559082 S    
C14   N14   1.337676 A    
C49   N33   1.472086 S    
C51   C55   1.546216 S    
C50   H30   1.097057 S    
N25   Ni5   1.864559 S    
C46   C70   1.466235 S    
N6    N13   1.376988 A    
C52   N36   1.473645 S    
C30   N22   1.324382 A    
C30   C46   1.383868 A    
C40   H28   1.080306 S    
C29   N21   1.324870 A    
C53   H35   1.115280 S    
C26   C42   1.372771 A    
C6    N6    1.328436 A    
C64   H52   1.109904 S    
C42   C84   1.450718 S    
C70   C78   1.566490 S    
C50   C66   1.578336 S    
C49   H29   1.114633 S    
C59   C73   1.547716 S    
C31   C47   1.394138 A    
C10   C17   1.389044 A    
C70   C74   1.550293 S    
C25   N17   1.317150 A    
C10   N10   1.341726 A    
N20   N31   1.442880 A    
N17   N30   1.451102 A    
C54   N38   1.470343 S    
N34   O3    1.301231 A    
C27   N19   1.317433 A    
C86   H74   1.082168 S    
C28   N20   1.316723 A    
C19   C86   1.447208 S    
C85   H73   1.083699 S    
N29   Ni7   1.819436 S    
C7    C23   1.378711 A    
C16   Br4   1.909746 S    
C63   H47   1.113189 S    
N14   Ni7   1.883211 S    
C31   H19   1.079076 S    
C56   N40   1.470147 S    
C36   H24   1.077413 S    
N40   O16   1.301244 A    
C61   H45   1.114351 S    
C34   N26   1.326088 A    
N24   Ni3   1.894715 S    
C7    N7    1.321877 A    
C15   C24   1.369168 A    
C33   N25   1.318067 A    
C8    N8    1.336458 A    
C35   C48   1.366601 A    
C36   N28   1.320047 A    
C87   H75   1.083423 S    
C79   H59   1.113191 S    
C2    H2    1.079412 S    
C29   C45   1.396921 A    
C54   C72   1.561625 S    
C77   H57   1.114072 S    
N38   O11   1.302169 A    
C63   C79   1.536652 S    
N28   Ni6   1.846260 S    
C38   H26   1.080266 S    
C82   H70   1.083121 S    
C83   H71   1.083964 S    
N16   Ni8   1.883211 S    
C9    H9    1.081838 S    
C61   C77   1.524565 S    
C57   C75   1.535071 S    
N32   Ni8   1.837131 S    
C47   C71   1.473299 S    
N12   Ni6   1.890671 S    
C83   C85   1.342253 D    
C12   H12   1.081385 S    
C1    N1    1.325624 A    
N19   Ni3   1.839007 S    
C1    C17   1.372727 A    
C25   H13   1.078390 S    
N36   O7    1.301283 A    
C15   N15   1.337352 A    
C26   N18   1.316503 A    
C11   N11   1.341080 A    
N37   O9    1.301838 A    
C11   H11   1.081849 S    
C37   C42   1.394977 A    
C37   H25   1.081502 S    
C73   H65   1.111959 S    
N7    N16   1.369158 A    
C28   H16   1.079318 S    
N7    Ni4   1.894744 S    
C37   N29   1.346827 A    
C32   H20   1.078082 S    
C59   H63   1.110586 S    
C39   C44   1.395191 A    
C71   C75   1.550008 S    
C55   H33   1.109313 S    
C15   Br3   1.931712 S    
N19   N32   1.451102 A    
C88   H76   1.082242 S    
H38   C58   1.103116 S    
N18   N29   1.442880 A    
C61   H49   1.110862 S    
C34   H22   1.078675 S    
N35   O5    1.302211 A    
C62   H46   1.111455 S    
C36   C47   1.384049 A    
C54   H36   1.115821 S    
C8    H8    1.079673 S    
C75   H67   1.113390 S    
N17   Ni1   1.839007 S    
N39   O14   1.301426 A    
N9    Ni5   1.909140 S    
N40   O15   1.302452 A    
N4    N11   1.323969 A    
H43   C75   1.108365 S    
N24   N27   1.387183 A    
C78   H54   1.113278 S    
C61   C67   1.551667 S    
C32   C48   1.386273 A    
N22   Ni1   1.894715 S    
C62   C68   1.558571 S    
N5    Ni2   1.894744 S    
C72   C76   1.547545 S    
N1    Ni1   1.838041 S    
N21   Ni2   1.894289 S    
N35   O6    1.301120 A    
C23   C68   1.469636 S    
C43   C81   1.450739 S    
C52   C68   1.578111 S    
C84   C86   1.344821 D    
C62   C78   1.534994 S    
N23   Ni4   1.894289 S    
C5    C21   1.378665 A    
C72   C80   1.565068 S    
C34   C45   1.383001 A    
C4    N4    1.328293 A    
C33   C46   1.370026 A    
C2    N2    1.329169 A    
H41   C73   1.110164 S    
C71   C79   1.562971 S    
C40   N32   1.345988 A    
C4    C20   1.367325 A    
C26   H14   1.079300 S    
C25   C41   1.385933 A    
N20   Ni4   1.838633 S    
C45   C69   1.474563 S    
C59   C67   1.560244 S    
N13   Ni7   1.864705 S    
C27   C43   1.385514 A    
C74   H66   1.115233 S    
N10   Ni5   1.890671 S    
C51   N35   1.473143 S    
C58   H62   1.114825 S    
C8    C24   1.383309 A    
C56   H34   1.115698 S    
C81   C87   1.342304 D    
C49   C65   1.572588 S    
C52   C56   1.551902 S    
C40   C43   1.401777 A    
N4    Ni4   1.837927 S    
C62   H50   1.109660 S    
C55   N39   1.472034 S    
C32   N24   1.327452 A    
C16   C23   1.394014 A    
C64   H48   1.111954 S    
C57   C65   1.560072 S    
C3    H3    1.076228 S    
C5    H5    1.075543 S    
C20   C85   1.447447 S    
H42   C74   1.111435 S    
N8    Ni3   1.894288 S    
C58   C66   1.557482 S    
N36   O8    1.301472 A    
C69   C77   1.556750 S    
H40   C60   1.102131 S    
N11   Ni6   1.909140 S    
C5    N5    1.323429 A    
C35   H23   1.080673 S    
C13   C22   1.375196 A    
C22   C65   1.481540 S    
C80   H60   1.114219 S    
C18   C87   1.448293 S    
C6    C22   1.370485 A    
N27   Ni6   1.864559 S    
C79   H55   1.110814 S    
C41   C83   1.449951 S    
C24   C67   1.491163 S    
C29   H17   1.076901 S    
C53   C71   1.563873 S    
N2    Ni2   1.837927 S    
C3    C19   1.372645 A    
H39   C59   1.112042 S    
C64   C80   1.533332 S    
C28   C44   1.373516 A    
N1    N10   1.316477 A    
C58   C76   1.508054 S    
N2    N9    1.323969 A    
C57   H61   1.112973 S    
N15   Ni8   1.864705 S    
N22   N25   1.387183 A    
C13   N13   1.339740 A    
N37   O10   1.301450 A    
C48   C72   1.467462 S    
N21   N26   1.395116 A    
C51   C67   1.589245 S    
C3    N3    1.325249 A    
C52   H32   1.099440 S    
N30   Ni7   1.837131 S    
C56   C70   1.563403 S    
C44   C82   1.451391 S    
N5    N14   1.369158 A    
N26   Ni5   1.846260 S    
C81   H69   1.083732 S    
N23   N28   1.395116 A    
C16   N16   1.325881 A    
C31   N23   1.328713 A    
C12   N12   1.341422 A    
C39   H27   1.081554 S    
C55   C69   1.557167 S    
C33   H21   1.080833 S    
C13   Br1   1.932527 S    
C60   C74   1.508606 S    
N8    N15   1.376988 A    
C77   H53   1.112846 S    
N3    Ni3   1.838041 S    
H37   C57   1.111652 S    
C50   C54   1.555034 S    
C38   C41   1.401743 A    
C39   N31   1.346908 A    
N33   O2    1.301735 A    
C49   C53   1.540680 S    
C9    C18   1.377614 A    
C38   N30   1.344745 A    
C69   C73   1.557821 S    
C60   C68   1.554868 S    
C9    N9    1.341295 A    
N18   Ni2   1.838633 S    
C10   H10   1.081356 S    
C53   N37   1.472106 S    
