data_mof_unit_59896.cif
_audit_creation_date              2012-12-11T14:33:08-0500
_audit_creation_method            fapswitch 2.2
_symmetry_space_group_name_H-M    P1
_symmetry_Int_Tables_number       1
_space_group_crystal_system       triclinic
_cell_length_a                    6.997619
_cell_length_b                    13.788924
_cell_length_c                    18.10148
_cell_angle_alpha                 112.794376
_cell_angle_beta                  95.101638
_cell_angle_gamma                 90.217604
_cell_volume                      1602.42670248

loop_
_atom_site_label
_atom_site_type_symbol
_atom_type_description
_atom_site_fract_x
_atom_site_fract_y
_atom_site_fract_z
_atom_type_partial_charge
O1    O     O_R   0.484560 0.544530 0.414330 -0.534147
O2    O     O_R   0.197040 0.638810 0.585080 -0.541415
O3    O     O_R   0.026800 0.455470 0.585670 -0.544389
C1    C     C_R   0.373901 0.678769 0.610994 0.677436
O4    O     O_R   0.155000 0.556150 0.414940 -0.543279
O5    O     O_R   0.984450 0.372220 0.414320 -0.535993
C2    C     C_R   0.318608 0.566361 0.387618 0.750972
O6    O     O_R   0.526900 0.627780 0.585680 -0.534877
O7    O     O_3   0.339170 0.439750 0.499990 -0.378361
V1    V     V_3+5 0.064350 0.511180 0.500000 1.369940
O8    O     O_R   0.654880 0.361190 0.414920 -0.541218
C3    C     C_R   0.819188 0.323416 0.389222 0.750600
O9    O     O_R   0.696930 0.443850 0.585060 -0.545043
C4    C     C_R   0.873082 0.433174 0.611316 0.688076
V2    V     V_3+5 0.564340 0.488820 0.500000 1.375965
O10   O     O_3   0.839390 0.560250 0.500010 -0.374220
C5    C     C_R   0.044088 0.868926 0.828239 -0.097492
C6    C     C_R   0.907859 0.399067 0.678379 -0.040220
C7    C     C_R   0.950977 0.833322 0.689150 -0.137092
C8    C     C_R   0.982589 0.798850 0.750736 -0.168195
C9    C     C_R   0.061217 0.980457 0.848458 0.045940
C10   C     C_R   0.013407 0.017920 0.783235 0.070974
C11   C     C_R   0.974095 0.939653 0.703522 0.106557
C12   C     C_R   0.000479 0.125302 0.789458 0.070266
C13   C     C_R   0.979273 0.151432 0.719807 0.067381
C14   C     C_R   0.967331 0.069477 0.643902 -0.175757
C15   C     C_R   0.962450 0.966037 0.636317 -0.231750
C16   C     C_R   0.981991 0.206669 0.862077 -0.198082
C17   C     C_R   0.001026 0.311603 0.873732 -0.237753
C18   C     C_R   0.998641 0.338794 0.807485 0.131262
C19   C     C_R   0.966988 0.259301 0.729011 0.097892
C20   C     C_R   0.008160 0.445080 0.819296 -0.134832
C21   C     C_R   0.963545 0.475019 0.755066 -0.148374
C22   C     C_R   0.916957 0.291619 0.664439 -0.217278
H1    H     H_    0.950726 0.904815 0.576179 0.115026
H2    H     H_    0.964383 0.715468 0.737160 0.101402
H3    H     H_    0.934150 0.187159 0.907590 0.194048
H4    H     H_    0.043619 0.505138 0.878917 0.149136
C23   C     C_2   0.118901 0.039073 0.182765 -0.399137
C24   C     C_2   0.952361 0.091478 0.203031 0.143522
H5    H     H_    0.707268 0.161364 0.320663 0.132423
C25   C     C_2   0.821968 0.217411 0.326214 -0.333025
C26   C     C_2   0.962337 0.190524 0.276061 -0.125866
C27   C     C_R   0.410786 0.787295 0.676317 -0.068296
C28   C     C_R   0.537865 0.476942 0.821142 -0.062229
C29   C     C_R   0.542098 0.895630 0.812015 -0.142244
C30   C     C_R   0.491650 0.797029 0.751959 -0.121439
C31   C     C_R   0.392159 0.880074 0.660813 -0.200297
C32   C     C_R   0.454398 0.983683 0.719157 0.080609
C33   C     C_R   0.520596 0.989503 0.798327 0.058176
C34   C     C_R   0.451570 0.081587 0.704405 0.033040
C35   C     C_R   0.489411 0.180601 0.773412 -0.017065
C36   C     C_R   0.522781 0.179342 0.850014 -0.172648
C37   C     C_R   0.558282 0.088527 0.863509 0.111382
C38   C     C_R   0.414549 0.089466 0.626688 0.170969
C39   C     C_R   0.400507 0.189675 0.623200 -0.255015
C40   C     C_R   0.436034 0.283209 0.690407 0.086256
C41   C     C_R   0.490680 0.281103 0.766119 0.106874
C42   C     C_R   0.419588 0.379631 0.681381 -0.111636
C43   C     C_R   0.467350 0.475035 0.745968 -0.143228
C44   C     C_R   0.546894 0.380492 0.831368 -0.193785
H6    H     H_    0.597607 0.896819 0.869972 0.128438
H7    H     H_    0.521537 0.251203 0.901616 0.142796
H8    H     H_    0.369852 0.381169 0.623570 0.149860
H9    H     H_    0.615521 0.605371 0.314228 0.136638
C45   C     C_2   0.317095 0.611429 0.324812 -0.354964
C46   C     C_2   0.479447 0.631024 0.295827 -0.134544
H10   H     H_    0.743630 0.619038 0.196651 0.108821
C47   C     C_2   0.627689 0.667648 0.189154 -0.385798
C48   C     C_2   0.482527 0.687109 0.239114 0.180471
H11   H     H_    0.179062 0.632246 0.304120 0.138443
O11   O     O_R   0.421600 0.630430 0.917010 -0.533238
O12   O     O_R   0.793840 0.702190 0.087630 -0.539343
O13   O     O_R   0.964010 0.886170 0.088190 -0.544325
C49   C     C_R   0.631024 0.700176 0.119226 0.744503
O14   O     O_R   0.751460 0.619510 0.917500 -0.541621
O15   O     O_R   0.921330 0.802900 0.916840 -0.543402
C50   C     C_R   0.574561 0.580994 0.890360 0.694284
O16   O     O_R   0.464290 0.713700 0.088350 -0.540658
O17   O     O_3   0.609200 0.818520 0.002630 -0.382975
V3    V     V_3+5 0.884140 0.747190 0.002530 1.348407
O18   O     O_R   0.251150 0.814630 0.917340 -0.545077
C51   C     C_R   0.075177 0.822396 0.889408 0.678869
O19   O     O_R   0.293530 0.897310 0.087470 -0.542897
C52   C     C_R   0.128137 0.935232 0.114498 0.741013
V4    V     V_3+5 0.384070 0.769710 0.002370 1.349007
O20   O     O_3   0.109180 0.698190 0.002460 -0.372361
H12   H     H_    0.084533 0.244563 0.286135 0.132816
C53   C     C_3   0.761583 0.055094 0.149524 -0.228757
C54   C     C_3   0.603567 0.134963 0.163817 -0.806689
H13   H     H_    0.525128 0.140009 0.215069 0.213972
H14   H     H_    0.660709 0.214675 0.174050 0.236426
H15   H     H_    0.496087 0.106850 0.110891 0.219226
H16   H     H_    0.791205 0.034173 0.085970 0.175233
H17   H     H_    0.701415 0.984509 0.156134 0.189760
H18   H     H_    0.249898 0.070587 0.221553 0.117476
C55   C     C_3   0.643784 0.098665 0.947509 -0.334224
C56   C     C_3   0.686167 0.210252 0.014148 -0.819660
H19   H     H_    0.753713 0.267649 0.994693 0.210889
H20   H     H_    0.556001 0.246901 0.040974 0.231193
H21   H     H_    0.787020 0.204256 0.062629 0.230006
H22   H     H_    0.558504 0.054046 0.972521 0.174146
H23   H     H_    0.778568 0.058703 0.938749 0.179237
H24   H     H_    0.602080 0.386574 0.890518 0.091309
H25   H     H_    0.450547 0.547654 0.736837 0.089681
H26   H     H_    0.363994 0.195881 0.565724 0.110468
H27   H     H_    0.880834 0.235773 0.603532 0.094343
H28   H     H_    0.514637 0.727692 0.765237 0.091152
H29   H     H_    0.324812 0.866265 0.602691 0.126236
C57   C     C_3   0.385042 0.999036 0.543915 -0.349074
C58   C     C_3   0.561249 0.932896 0.521511 -0.783902
H30   H     H_    0.673864 0.977657 0.506899 0.224039
H31   H     H_    0.619719 0.910007 0.570466 0.243061
H32   H     H_    0.522927 0.859025 0.468507 0.220060
H33   H     H_    0.251776 0.952006 0.536512 0.159181
H34   H     H_    0.355265 0.028758 0.495219 0.175202
C59   C     C_3   0.327012 0.766275 0.241380 -0.270454
C60   C     C_3   0.315343 0.850863 0.325448 -0.828948
H35   H     H_    0.265188 0.817289 0.367209 0.237910
H36   H     H_    0.457819 0.892098 0.349394 0.237173
H37   H     H_    0.210879 0.909851 0.322084 0.214954
H38   H     H_    0.354103 0.812365 0.205176 0.193661
H39   H     H_    0.185240 0.723953 0.217938 0.168437
H40   H     H_    0.968597 0.557822 0.765564 0.091989
H41   H     H_    0.998532 0.371528 0.933881 0.121543
H42   H     H_    0.910891 0.775500 0.628855 0.139748
C61   C     C_3   0.142921 0.039132 0.938402 -0.321420
C62   C     C_3   0.198795 0.155412 0.985841 -0.802119
H43   H     H_    0.270386 0.191518 0.950694 0.263727
H44   H     H_    0.078806 0.201719 0.015135 0.218872
H45   H     H_    0.295935 0.161930 0.038863 0.210990
H46   H     H_    0.051023 0.018173 0.977374 0.146571
H47   H     H_    0.276050 0.999473 0.943375 0.186269
H48   H     H_    0.962195 0.083011 0.588994 0.117489

loop_
_geom_bond_atom_site_label_1
_geom_bond_atom_site_label_2
_ccdc_geom_bond_type
C13   C19   A    
C38   C39   A    
C28   C43   A    
C17   H41   S    
H5    C25   S    
C4    C6    S    
O2    C1    A    
C58   H30   S    
C1    O6    A    
C62   H43   S    
C32   C34   A    
C55   C56   S    
C54   H13   S    
C36   C37   A    
C14   C15   A    
C33   C37   A    
C29   H6    S    
C26   H12   S    
C16   C17   A    
O19   V4    S    
O5    C3    A    
C18   C19   A    
C40   C42   A    
O15   C51   A    
C48   C59   S    
V2    O10   S    
C56   H19   S    
C5    C8    A    
C39   C40   A    
C53   H16   S    
C61   H46   S    
O11   C50   A    
C60   H35   S    
O8    V2    S    
C24   C26   S    
C7    C8    A    
H10   C47   S    
H9    C46   S    
C21   H40   S    
C3    C25   S    
C37   C55   S    
C47   C49   S    
C28   C50   S    
O1    V2    S    
C20   H4    S    
C24   C53   S    
C9    C61   S    
O7    V1    S    
C55   H22   S    
C27   C30   A    
C41   C44   A    
C45   C46   D    
C42   C43   A    
O9    C4    A    
O12   C49   A    
O12   V3    S    
C34   C35   A    
C61   H47   S    
C44   H24   S    
O19   C52   A    
C23   C24   D    
O4    C2    A    
V4    O20   S    
C1    C27   S    
C15   H1    S    
C13   C14   A    
O18   V4    S    
C5    C9    A    
C57   C58   S    
C5    C51   S    
C60   H37   S    
C53   H17   S    
C7    C11   A    
C59   H38   S    
C17   C18   A    
C14   H48   S    
C54   H14   S    
C45   H11   S    
O15   V3    S    
C42   H8    S    
C19   C22   A    
C58   H31   S    
V3    O20   S    
C12   C13   A    
C6    C22   A    
C39   H26   S    
C55   H23   S    
O3    C4    A    
C35   C41   A    
C31   C32   A    
O18   C51   A    
O6    V2    S    
C11   C15   A    
O9    V2    S    
C38   C57   S    
C10   C12   A    
C25   C26   D    
C22   H27   S    
O13   V3    S    
C61   C62   S    
O2    V1    S    
C62   H45   S    
C57   H34   S    
C35   C36   A    
C54   H15   S    
C30   H28   S    
C29   C30   A    
O1    C2    A    
C12   C16   A    
O14   C50   A    
O17   V3    S    
C62   H44   S    
O14   V3    S    
O5    V1    S    
O11   V4    S    
O8    C3    A    
C56   H21   S    
C29   C33   A    
C7    H42   S    
C56   H20   S    
C46   C48   S    
C20   C21   A    
C59   H39   S    
O4    V1    S    
O3    V1    S    
V1    O10   S    
C59   C60   S    
C2    C45   S    
C18   C20   A    
C36   H7    S    
C40   C41   A    
C16   H3    S    
C28   C44   A    
C31   H29   S    
C58   H32   S    
C34   C38   A    
O13   C52   A    
O7    V2    S    
C47   C48   D    
C6    C21   A    
C60   H36   S    
C23   H18   S    
C8    H2    S    
O17   V4    S    
C32   C33   A    
C23   C52   S    
C10   C11   A    
C53   C54   S    
C9    C10   A    
C49   O16   A    
C57   H33   S    
O16   V4    S    
C43   H25   S    
C27   C31   A    
