data_mof_unit_5863.cif
_audit_creation_date              2012-12-11T15:22:18-0500
_audit_creation_method            fapswitch 2.2
_symmetry_space_group_name_H-M    P1
_symmetry_Int_Tables_number       1
_space_group_crystal_system       triclinic
_cell_length_a                    22.985058
_cell_length_b                    13.117775
_cell_length_c                    26.517303
_cell_angle_alpha                 89.789007
_cell_angle_beta                  89.716536
_cell_angle_gamma                 89.5235
_cell_volume                      7994.87943778

loop_
_atom_site_label
_atom_site_type_symbol
_atom_type_description
_atom_site_fract_x
_atom_site_fract_y
_atom_site_fract_z
_atom_type_partial_charge
C1    C     C_R   0.719023 0.341825 0.176665 0.590131
C2    C     C_R   0.279283 0.342305 0.822997 0.568084
C3    C     C_R   0.219023 0.841825 0.176666 0.590133
C4    C     C_R   0.779283 0.842305 0.822998 0.568094
C5    C     C_R   0.482063 0.167738 0.868869 -0.004713
C6    C     C_R   0.518432 0.169907 0.131337 -0.025822
C7    C     C_R   0.982062 0.667737 0.868870 -0.004718
C8    C     C_R   0.018430 0.669906 0.131338 -0.025823
C9    C     C_R   0.515166 0.264942 0.106020 0.245567
C10   C     C_R   0.486266 0.263296 0.893219 0.250193
C11   C     C_R   0.015162 0.764941 0.106021 0.245570
C12   C     C_R   0.986264 0.763294 0.893220 0.250187
C13   C     C_R   0.507068 0.268082 0.052913 0.047226
C14   C     C_R   0.494212 0.267548 0.946345 0.053499
C15   C     C_R   0.007063 0.768079 0.052915 0.047220
C16   C     C_R   0.994209 0.767546 0.946346 0.053496
C17   C     C_R   0.502660 0.174826 0.026392 -0.100804
C18   C     C_R   0.500275 0.174168 0.973177 -0.081561
C19   C     C_R   0.002655 0.674824 0.026394 -0.100800
C20   C     C_R   0.000271 0.674165 0.973178 -0.081564
C21   C     C_R   0.508100 0.361556 0.025933 0.394892
C22   C     C_R   0.497306 0.361901 0.973153 0.356078
C23   C     C_R   0.008096 0.861553 0.025934 0.394876
C24   C     C_R   0.997302 0.861898 0.973154 0.356099
C25   C     C_R   0.746327 0.933781 0.136593 -0.056263
C26   C     C_R   0.259132 0.930844 0.863245 -0.040567
C27   C     C_R   0.246327 0.433781 0.136593 -0.056266
C28   C     C_R   0.759132 0.430844 0.863245 -0.040564
C29   C     C_R   0.797418 0.950125 0.108780 -0.139980
C30   C     C_R   0.203301 0.917511 0.882710 -0.130363
C31   C     C_R   0.297419 0.450123 0.108780 -0.139980
C32   C     C_R   0.703300 0.417513 0.882710 -0.130357
C33   C     C_R   0.803499 0.904911 0.061526 0.268301
C34   C     C_R   0.196662 0.865489 0.928194 0.225610
C35   C     C_R   0.303499 0.404908 0.061526 0.268308
C36   C     C_R   0.696660 0.365491 0.928194 0.225609
C37   C     C_R   0.755704 0.858857 0.038708 0.057983
C38   C     C_R   0.245450 0.853381 0.959915 0.021925
C39   C     C_R   0.255704 0.358856 0.038708 0.057980
C40   C     C_R   0.745449 0.353381 0.959915 0.021927
C41   C     C_R   0.718279 0.809522 0.072911 0.236577
C42   C     C_R   0.297920 0.833140 0.934342 0.266927
C43   C     C_R   0.218279 0.309523 0.072911 0.236575
C44   C     C_R   0.797918 0.333139 0.934342 0.266929
C45   C     C_R   0.551996 0.158527 0.178740 0.544440
C46   C     C_R   0.447877 0.157696 0.821493 0.558338
C47   C     C_R   0.051996 0.658527 0.178741 0.544437
C48   C     C_R   0.947877 0.657696 0.821493 0.558336
C49   C     C_R   0.710519 0.851892 0.121450 0.203159
C50   C     C_R   0.305371 0.872580 0.885464 0.247128
C51   C     C_R   0.210518 0.351892 0.121450 0.203161
C52   C     C_R   0.805370 0.372579 0.885463 0.247126
C53   C     C_R   0.707340 0.814201 0.952275 0.242135
C54   C     C_R   0.291778 0.878053 0.048118 0.275264
C55   C     C_R   0.207340 0.314203 0.952275 0.242131
C56   C     C_R   0.791777 0.378053 0.048118 0.275265
C57   C     C_R   0.712454 0.814680 0.899121 0.263466
C58   C     C_R   0.286084 0.866296 0.100892 0.257732
C59   C     C_R   0.212453 0.314683 0.899121 0.263464
C60   C     C_R   0.786083 0.366296 0.100892 0.257734
C61   C     C_R   0.787596 0.941568 0.903631 -0.130585
C62   C     C_R   0.182241 0.885510 0.092312 -0.113993
C63   C     C_R   0.287598 0.441567 0.903631 -0.130584
C64   C     C_R   0.682239 0.385506 0.092312 -0.113994
C65   C     C_R   0.777156 0.948808 0.955616 0.261338
C66   C     C_R   0.187549 0.889941 0.040234 0.250601
C67   C     C_R   0.277158 0.448807 0.955616 0.261337
C68   C     C_R   0.687547 0.389937 0.040234 0.250598
C69   C     C_R   0.747348 0.869542 0.981774 0.013818
C70   C     C_R   0.241850 0.870247 0.016543 -0.014689
C71   C     C_R   0.247348 0.369542 0.981774 0.013814
C72   C     C_R   0.741849 0.370245 0.016543 -0.014691
C73   C     C_R   0.758554 0.869025 0.875027 -0.056970
C74   C     C_R   0.230525 0.867039 0.123106 -0.054494
C75   C     C_R   0.258554 0.369026 0.875027 -0.056969
C76   C     C_R   0.730524 0.367037 0.123106 -0.054495
C77   C     C_R   0.516293 0.158782 0.367948 -0.040582
C78   C     C_R   0.484035 0.158399 0.632299 -0.041078
C79   C     C_R   0.016290 0.658779 0.367948 -0.040626
C80   C     C_R   0.984031 0.658400 0.632297 -0.041195
C81   C     C_R   0.509959 0.246270 0.397895 0.231080
C82   C     C_R   0.490010 0.246078 0.602271 0.229754
C83   C     C_R   0.009945 0.746266 0.397894 0.231065
C84   C     C_R   0.990005 0.746079 0.602269 0.229809
C85   C     C_R   0.486706 0.234656 0.446585 0.269616
C86   C     C_R   0.513322 0.234932 0.553578 0.267853
C87   C     C_R   0.986684 0.734646 0.446581 0.269625
C88   C     C_R   0.013308 0.734935 0.553574 0.267888
C89   C     C_R   0.732352 0.998577 0.180796 0.554653
C90   C     C_R   0.268728 0.998419 0.819410 0.557625
C91   C     C_R   0.232352 0.498577 0.180795 0.554649
C92   C     C_R   0.768728 0.498419 0.819410 0.557625
C93   C     C_R   0.494716 0.139307 0.471720 -0.031944
C94   C     C_R   0.506760 0.139422 0.528692 -0.031060
C95   C     C_R   0.994700 0.639300 0.471718 -0.031943
C96   C     C_R   0.006750 0.639420 0.528688 -0.031075
C97   C     C_R   0.485818 0.053828 0.440174 0.317864
C98   C     C_R   0.516024 0.053766 0.560530 0.318191
C99   C     C_R   0.985811 0.553820 0.440169 0.317884
C100  C     C_R   0.016011 0.553763 0.560529 0.318218
C101  C     C_R   0.492891 0.066124 0.387449 0.247716
C102  C     C_R   0.508137 0.065669 0.613135 0.245665
C103  C     C_R   0.992889 0.566119 0.387445 0.247710
C104  C     C_R   0.008130 0.565669 0.613133 0.245652
C105  C     C_R   0.740811 0.971248 0.375644 -0.009912
C106  C     C_R   0.259607 0.972357 0.624179 -0.009660
C107  C     C_R   0.240798 0.471242 0.375645 -0.009863
C108  C     C_R   0.759605 0.472336 0.624185 -0.009619
C109  C     C_R   0.697860 0.995445 0.411629 0.204909
C110  C     C_R   0.302375 0.996086 0.587995 0.206247
C111  C     C_R   0.197824 0.495404 0.411614 0.204867
C112  C     C_R   0.802372 0.496061 0.588000 0.206250
C113  C     C_R   0.713670 0.016576 0.460990 0.248800
C114  C     C_R   0.286448 0.015451 0.538324 0.247297
C115  C     C_R   0.213608 0.516584 0.460975 0.248733
C116  C     C_R   0.786444 0.515426 0.538330 0.247326
C117  C     C_R   0.770486 0.996703 0.477086 0.007642
C118  C     C_R   0.229622 0.996484 0.522507 0.006844
C119  C     C_R   0.270417 0.496747 0.477095 0.007759
C120  C     C_R   0.729618 0.496455 0.522513 0.006922
C121  C     C_R   0.814650 0.980954 0.441082 0.246985
C122  C     C_R   0.185650 0.981920 0.558717 0.245242
C123  C     C_R   0.314603 0.480995 0.441114 0.247020
C124  C     C_R   0.685647 0.481890 0.558725 0.245290
C125  C     C_R   0.798881 0.958852 0.391299 0.213005
C126  C     C_R   0.201621 0.960169 0.608613 0.212577
C127  C     C_R   0.298863 0.458878 0.391323 0.212858
C128  C     C_R   0.701619 0.460144 0.608621 0.212585
C129  C     C_R   0.805957 0.010389 0.566225 0.244347
C130  C     C_R   0.193999 0.011539 0.433310 0.244400
C131  C     C_R   0.305890 0.510489 0.566229 0.244238
C132  C     C_R   0.693985 0.511500 0.433320 0.244390
C133  C     C_R   0.720440 0.349079 0.321244 0.612919
C134  C     C_R   0.279518 0.349062 0.678740 0.602427
C135  C     C_R   0.220441 0.849083 0.321242 0.612910
C136  C     C_R   0.779521 0.849050 0.678736 0.602396
C137  C     C_R   0.793735 0.988483 0.617003 0.207722
C138  C     C_R   0.205896 0.988826 0.382562 0.206076
C139  C     C_R   0.293735 0.488526 0.617015 0.207628
C140  C     C_R   0.705888 0.488804 0.382572 0.206062
C141  C     C_R   0.736135 0.842192 0.592858 0.224692
C142  C     C_R   0.263329 0.840727 0.407303 0.223962
C143  C     C_R   0.236075 0.342285 0.592885 0.224631
C144  C     C_R   0.763328 0.340708 0.407306 0.223987
C145  C     C_R   0.740917 0.872131 0.542609 0.275869
C146  C     C_R   0.258675 0.870881 0.457445 0.276710
C147  C     C_R   0.240838 0.372232 0.542637 0.275946
C148  C     C_R   0.758675 0.370856 0.457449 0.276682
C149  C     C_R   0.776058 0.956645 0.528960 -0.009695
C150  C     C_R   0.223799 0.956676 0.470772 -0.006831
C151  C     C_R   0.275971 0.456744 0.528980 -0.009550
C152  C     C_R   0.723793 0.456642 0.470780 -0.006868
C153  C     C_R   0.764583 0.897581 0.630363 -0.015517
C154  C     C_R   0.235061 0.897063 0.369561 -0.014810
C155  C     C_R   0.264569 0.397631 0.630379 -0.015558
C156  C     C_R   0.735057 0.397048 0.369566 -0.014797
C157  C     C_R   0.552354 0.157693 0.320928 0.592392
C158  C     C_R   0.447756 0.157473 0.679167 0.591196
C159  C     C_R   0.052355 0.657693 0.320929 0.592346
C160  C     C_R   0.947756 0.657474 0.679167 0.591149
C161  C     C_R   0.731293 0.003929 0.323496 0.619376
C162  C     C_R   0.268889 0.004139 0.676383 0.612997
C163  C     C_R   0.231293 0.503924 0.323495 0.619358
C164  C     C_R   0.768888 0.504133 0.676386 0.613025
C165  C     C_R   0.501060 0.082432 0.106091 0.214134
C166  C     C_R   0.502954 0.080385 0.893528 0.225668
C167  C     C_R   0.001058 0.582430 0.106093 0.214137
C168  C     C_R   0.002952 0.580384 0.893529 0.225667
C169  C     C_R   0.503036 0.081378 0.053250 -0.002579
C170  C     C_R   0.506680 0.080147 0.946728 0.002680
C171  C     C_R   0.003033 0.581376 0.053252 -0.002574
C172  C     C_R   0.006677 0.580144 0.946729 0.002681
C173  C     C_R   0.514753 0.988580 0.974435 0.305287
C174  C     C_R   0.512193 0.989470 0.027103 0.327842
C175  C     C_R   0.014749 0.488578 0.974437 0.305283
C176  C     C_R   0.012190 0.489468 0.027104 0.327842
Cr1   Cr    Cr6+3 0.756570 0.170940 0.251190 1.157880
Cr2   Cr    Cr6+3 0.243430 0.170940 0.748810 1.177685
Cr3   Cr    Cr6+3 0.256570 0.670940 0.251190 1.157860
Cr4   Cr    Cr6+3 0.743430 0.670940 0.748810 1.177686
Cr5   Cr    Cr6+3 0.623740 0.299110 0.249580 1.101019
Cr6   Cr    Cr6+3 0.376260 0.299110 0.750420 1.094290
Cr7   Cr    Cr6+3 0.123740 0.799110 0.249580 1.101004
Cr8   Cr    Cr6+3 0.876260 0.799110 0.750420 1.094202
Cr9   Cr    Cr6+3 0.625990 0.036240 0.250480 1.199000
Cr10  Cr    Cr6+3 0.374010 0.036240 0.749520 1.213368
Cr11  Cr    Cr6+3 0.125990 0.536240 0.250480 1.199006
Cr12  Cr    Cr6+3 0.874010 0.536240 0.749520 1.213401
H1    H     H_    0.817426 0.994038 0.885649 0.183264
H2    H     H_    0.138950 0.892914 0.108274 0.228009
H3    H     H_    0.317429 0.494034 0.885650 0.183259
H4    H     H_    0.638949 0.392909 0.108275 0.228018
H5    H     H_    0.832145 0.996653 0.123405 0.171370
H6    H     H_    0.165586 0.939691 0.860876 0.164274
H7    H     H_    0.332146 0.496650 0.123405 0.171374
H8    H     H_    0.665586 0.439693 0.860876 0.164279
O1    O     O_R   0.769900 0.064540 0.196060 -0.508029
O2    O     O_R   0.230100 0.064540 0.803940 -0.478961
O3    O     O_R   0.269900 0.564540 0.196060 -0.508035
O4    O     O_R   0.730100 0.564540 0.803940 -0.478963
O5    O     O_R   0.574760 0.239320 0.300850 -0.487049
O6    O     O_R   0.425240 0.239320 0.699150 -0.486342
O7    O     O_R   0.074760 0.739320 0.300850 -0.487059
O8    O     O_R   0.925240 0.739320 0.699150 -0.486400
O9    O     O_R   0.566290 0.069580 0.305400 -0.410964
O10   O     O_R   0.433710 0.069580 0.694600 -0.413109
O11   O     O_R   0.066290 0.569580 0.305400 -0.410967
O12   O     O_R   0.933710 0.569580 0.694600 -0.413081
O13   O     O_R   0.680760 0.993330 0.302620 -0.439081
O14   O     O_R   0.319240 0.993330 0.697380 -0.448016
O15   O     O_R   0.180760 0.493330 0.302620 -0.439096
O16   O     O_R   0.819240 0.493330 0.697380 -0.448008
O17   O     O_3   0.668770 0.168760 0.250420 -0.331593
O18   O     O_3   0.331230 0.168760 0.749580 -0.330090
O19   O     O_3   0.168770 0.668760 0.250420 -0.331596
O20   O     O_3   0.831230 0.668760 0.749580 -0.330077
O21   O     O_R   0.750800 0.274080 0.199250 -0.458017
O22   O     O_R   0.249200 0.274080 0.800750 -0.441685
O23   O     O_R   0.250800 0.774080 0.199250 -0.458015
O24   O     O_R   0.749200 0.774080 0.800750 -0.441682
O25   O     O_R   0.669990 0.371670 0.194150 -0.481847
O26   O     O_R   0.330010 0.371670 0.805850 -0.488441
O27   O     O_R   0.169990 0.871670 0.194150 -0.481847
O28   O     O_R   0.830010 0.871670 0.805850 -0.488438
O29   O     O_R   0.574600 0.238480 0.197800 -0.486437
O30   O     O_R   0.425400 0.238480 0.802200 -0.482370
O31   O     O_R   0.074600 0.738480 0.197800 -0.486439
O32   O     O_R   0.925400 0.738480 0.802200 -0.482372
O33   O     O_R   0.566130 0.068680 0.194240 -0.456504
O34   O     O_R   0.433870 0.068680 0.805760 -0.427527
O35   O     O_R   0.066130 0.568680 0.194240 -0.456495
O36   O     O_R   0.933870 0.568680 0.805760 -0.427524
O37   O     O_R   0.680610 0.992490 0.199570 -0.459221
O38   O     O_R   0.319390 0.992490 0.800430 -0.448741
O39   O     O_R   0.180610 0.492490 0.199570 -0.459213
O40   O     O_R   0.819390 0.492490 0.800430 -0.448742
O41   O     O_R   0.770060 0.065440 0.307230 -0.444284
O42   O     O_R   0.229940 0.065440 0.692770 -0.444485
O43   O     O_R   0.270060 0.565440 0.307230 -0.444294
O44   O     O_R   0.729940 0.565440 0.692770 -0.444471
O45   O     O_R   0.750960 0.274920 0.302300 -0.433824
O46   O     O_R   0.249040 0.274920 0.697700 -0.436524
O47   O     O_R   0.250960 0.774920 0.302300 -0.433824
O48   O     O_R   0.749040 0.774920 0.697700 -0.436500
O49   O     O_R   0.670160 0.372580 0.305320 -0.467309
O50   O     O_R   0.329840 0.372580 0.694680 -0.467621
O51   O     O_R   0.170160 0.872580 0.305320 -0.467323
O52   O     O_R   0.829840 0.872580 0.694680 -0.467763
Cl1   Cl    Cl    0.527940 0.977190 0.855743 -0.396654
Cl2   Cl    Cl    0.474640 0.977328 0.141368 -0.352959
Cl3   Cl    Cl    0.027938 0.477189 0.855744 -0.396648
Cl4   Cl    Cl    0.974641 0.477324 0.141370 -0.352955
Cl5   Cl    Cl    0.713149 0.676199 0.068750 -0.518305
Cl6   Cl    Cl    0.348113 0.742379 0.958113 -0.584415
Cl7   Cl    Cl    0.213148 0.176200 0.068750 -0.518314
Cl8   Cl    Cl    0.848111 0.242378 0.958114 -0.584404
Cl9   Cl    Cl    0.663696 0.790678 0.165023 -0.451085
Cl10  Cl    Cl    0.370529 0.840427 0.852844 -0.480032
Cl11  Cl    Cl    0.163695 0.290679 0.165023 -0.451080
Cl12  Cl    Cl    0.870528 0.340425 0.852844 -0.480017
O53   O     O_3   0.536058 0.336962 0.384391 -0.567303
C177  C     C_3   0.495954 0.397473 0.357697 -0.043991
H9    H     H_    0.462715 0.428330 0.383930 0.210818
H10   H     H_    0.475411 0.355232 0.326148 0.160344
H11   H     H_    0.519352 0.463156 0.341009 0.141239
O54   O     O_3   0.464268 0.337425 0.616116 -0.566244
C178  C     C_3   0.505032 0.396296 0.642122 -0.046239
H12   H     H_    0.537800 0.426436 0.615360 0.213042
H13   H     H_    0.526151 0.352948 0.673376 0.158852
H14   H     H_    0.482089 0.462534 0.659153 0.140926
O55   O     O_3   0.036047 0.836959 0.384395 -0.567333
C179  C     C_3   0.995949 0.897474 0.357698 -0.043948
H15   H     H_    0.962714 0.928350 0.383928 0.210930
H16   H     H_    0.975401 0.855232 0.326152 0.160354
H17   H     H_    0.019355 0.963142 0.341005 0.141245
O56   O     O_3   0.964298 0.837447 0.616129 -0.566175
C180  C     C_3   0.005064 0.896206 0.642194 -0.046193
H18   H     H_    0.037776 0.926575 0.615441 0.212938
H19   H     H_    0.026262 0.852702 0.673362 0.158809
H20   H     H_    0.982100 0.962284 0.659358 0.140956
Cl13  Cl    Cl    0.548499 0.939224 0.539089 -0.299259
Cl14  Cl    Cl    0.454576 0.939311 0.462171 -0.301062
Cl15  Cl    Cl    0.048467 0.439202 0.539090 -0.299255
Cl16  Cl    Cl    0.954566 0.439300 0.462160 -0.301056
Cl17  Cl    Cl    0.528064 0.964108 0.654057 -0.368620
Cl18  Cl    Cl    0.472944 0.965189 0.346878 -0.363743
Cl19  Cl    Cl    0.028063 0.464113 0.654056 -0.368582
Cl20  Cl    Cl    0.972941 0.465189 0.346871 -0.363703
O57   O     O_3   0.458037 0.316308 0.469027 -0.488513
C181  C     C_3   0.403399 0.283204 0.487558 -0.018962
H21   H     H_    0.405947 0.217373 0.513528 0.148221
H22   H     H_    0.374496 0.265453 0.455449 0.175752
H23   H     H_    0.383603 0.342685 0.511570 0.167196
O58   O     O_3   0.539873 0.317778 0.530676 -0.492336
C182  C     C_3   0.595113 0.287159 0.511998 -0.019868
H24   H     H_    0.593886 0.221451 0.486181 0.149334
H25   H     H_    0.624626 0.270465 0.543993 0.175063
H26   H     H_    0.613278 0.347662 0.487785 0.170669
O59   O     O_3   0.958014 0.816297 0.469025 -0.488534
C183  C     C_3   0.903381 0.783188 0.487568 -0.019000
H27   H     H_    0.905939 0.717368 0.513544 0.148231
H28   H     H_    0.874477 0.765410 0.455464 0.175728
H29   H     H_    0.883584 0.842680 0.511574 0.167067
O60   O     O_3   0.039848 0.817792 0.530671 -0.492268
C184  C     C_3   0.095086 0.787188 0.511985 -0.019824
H30   H     H_    0.093854 0.721508 0.486151 0.149295
H31   H     H_    0.124599 0.770462 0.543976 0.175041
H32   H     H_    0.113250 0.847711 0.487785 0.170707
Cl21  Cl    Cl    0.623649 0.988368 0.397606 -0.464731
Cl22  Cl    Cl    0.376640 0.992249 0.602368 -0.469313
Cl23  Cl    Cl    0.123620 0.488175 0.397578 -0.464470
Cl24  Cl    Cl    0.876637 0.492220 0.602372 -0.469298
O61   O     O_3   0.841348 0.091074 0.552945 -0.554519
C185  C     C_3   0.899707 0.067389 0.565313 -0.041544
H33   H     H_    0.914233 0.993726 0.548753 0.169037
H34   H     H_    0.906883 0.066068 0.606600 0.185360
H35   H     H_    0.928055 0.127795 0.549551 0.162776
O62   O     O_3   0.159140 0.093920 0.446355 -0.555323
C186  C     C_3   0.100584 0.073245 0.434189 -0.043055
H36   H     H_    0.085837 0.999411 0.450153 0.160761
H37   H     H_    0.093063 0.074472 0.392967 0.185723
H38   H     H_    0.072616 0.133976 0.450670 0.165741
O63   O     O_3   0.341311 0.591116 0.552908 -0.554475
C187  C     C_3   0.399658 0.567500 0.565349 -0.040381
H39   H     H_    0.413934 0.492891 0.549698 0.168469
H40   H     H_    0.406967 0.568380 0.606598 0.186021
H41   H     H_    0.428133 0.626791 0.548748 0.161454
O64   O     O_3   0.659124 0.593876 0.446367 -0.555319
C188  C     C_3   0.600568 0.573186 0.434206 -0.043171
H42   H     H_    0.585798 0.499446 0.450262 0.160904
H43   H     H_    0.593059 0.574191 0.392980 0.185614
H44   H     H_    0.572612 0.634027 0.450600 0.165843
Cl25  Cl    Cl    0.811173 0.079302 0.663719 -0.495816
Cl26  Cl    Cl    0.188264 0.079689 0.335358 -0.468283
Cl27  Cl    Cl    0.311230 0.579283 0.663740 -0.496275
Cl28  Cl    Cl    0.688257 0.579681 0.335374 -0.468315
O65   O     O_3   0.529685 0.898151 0.950812 -0.474429
C189  C     C_3   0.480677 0.834480 0.949388 0.071864
H45   H     H_    0.472588 0.798375 0.986669 0.198749
H46   H     H_    0.441265 0.876681 0.936542 0.201220
H47   H     H_    0.489287 0.772353 0.922009 0.204944
O66   O     O_3   0.523608 0.899320 0.052443 -0.494097
C190  C     C_3   0.582541 0.897649 0.066921 -0.021072
H48   H     H_    0.594540 0.817601 0.075614 0.233156
H49   H     H_    0.612355 0.925813 0.036772 0.124210
H50   H     H_    0.589283 0.943162 0.101557 0.148373
O67   O     O_3   0.029683 0.398149 0.950813 -0.474429
C191  C     C_3   0.980675 0.334477 0.949389 0.071873
H51   H     H_    0.972586 0.298373 0.986670 0.198756
H52   H     H_    0.941264 0.376677 0.936542 0.201218
H53   H     H_    0.989286 0.272350 0.922011 0.204945
O68   O     O_3   0.023607 0.399319 0.052445 -0.494095
C192  C     C_3   0.082540 0.397649 0.066921 -0.021072
H54   H     H_    0.094540 0.317604 0.075617 0.233153
H55   H     H_    0.112352 0.425808 0.036769 0.124226
H56   H     H_    0.089284 0.443171 0.101554 0.148357
Cl29  Cl    Cl    0.661343 0.058160 0.505193 -0.567033
Cl30  Cl    Cl    0.338491 0.055101 0.493586 -0.560613
Cl31  Cl    Cl    0.161256 0.558185 0.505150 -0.567184
Cl32  Cl    Cl    0.838489 0.555070 0.493591 -0.560620
O69   O     O_3   0.704380 0.827350 0.507860 -0.470768
C193  C     C_3   0.736869 0.763677 0.475582 -0.025162
H57   H     H_    0.741396 0.687998 0.493167 0.195073
H58   H     H_    0.780513 0.792593 0.466065 0.063208
H59   H     H_    0.713277 0.756852 0.439435 0.230813
O70   O     O_3   0.295127 0.824867 0.492374 -0.472578
C194  C     C_3   0.262496 0.762564 0.524991 -0.025587
H60   H     H_    0.286055 0.755091 0.561188 0.229253
H61   H     H_    0.257839 0.686964 0.507805 0.197249
H62   H     H_    0.218858 0.792918 0.534293 0.065279
O71   O     O_3   0.204329 0.327396 0.507884 -0.470763
C195  C     C_3   0.236853 0.263707 0.475639 -0.025172
H63   H     H_    0.241324 0.188021 0.493222 0.195084
H64   H     H_    0.280527 0.292570 0.466185 0.063169
H65   H     H_    0.213322 0.256918 0.439461 0.230742
O72   O     O_3   0.795147 0.324866 0.492371 -0.472632
C196  C     C_3   0.762542 0.262546 0.524997 -0.025594
H66   H     H_    0.757897 0.186939 0.507814 0.197285
H67   H     H_    0.718900 0.292880 0.534314 0.065321
H68   H     H_    0.786121 0.255088 0.561186 0.229341
Cl33  Cl    Cl    0.692976 0.735726 0.607105 -0.549744
Cl34  Cl    Cl    0.305885 0.732446 0.393420 -0.557314
Cl35  Cl    Cl    0.192903 0.235835 0.607139 -0.549612
Cl36  Cl    Cl    0.805892 0.232441 0.393418 -0.557310
O73   O     O_3   0.872224 0.977669 0.455294 -0.566165
C197  C     C_3   0.899445 0.069505 0.441396 -0.021481
H69   H     H_    0.898716 0.082017 0.399932 0.198503
H70   H     H_    0.945766 0.065010 0.452833 0.126615
H71   H     H_    0.879567 0.135462 0.461424 0.228273
O74   O     O_3   0.128053 0.979529 0.544649 -0.571421
C198  C     C_3   0.100537 0.071816 0.558366 -0.022872
H72   H     H_    0.100913 0.083708 0.599831 0.200695
H73   H     H_    0.054317 0.068545 0.546658 0.126590
H74   H     H_    0.120489 0.137660 0.538508 0.226940
O75   O     O_3   0.372167 0.477719 0.455364 -0.565877
C199  C     C_3   0.399430 0.569470 0.441392 -0.021101
H75   H     H_    0.379580 0.635513 0.461370 0.228243
H76   H     H_    0.398700 0.581873 0.399921 0.198328
H77   H     H_    0.445750 0.564941 0.452826 0.126648
O76   O     O_3   0.628049 0.479505 0.544659 -0.571456
C200  C     C_3   0.600536 0.571796 0.558376 -0.022913
H78   H     H_    0.600920 0.583697 0.599841 0.200683
H79   H     H_    0.554313 0.568526 0.546677 0.126592
H80   H     H_    0.620483 0.637636 0.538511 0.226996
Cl37  Cl    Cl    0.851325 0.911620 0.348433 -0.602624
Cl38  Cl    Cl    0.149452 0.913755 0.651741 -0.610054
Cl39  Cl    Cl    0.351321 0.411611 0.348479 -0.602775
Cl40  Cl    Cl    0.649448 0.413746 0.651754 -0.610007
O77   O     O_3   0.477889 0.351610 0.865437 -0.548665
C201  C     C_3   0.529332 0.373425 0.838438 -0.031310
H81   H     H_    0.542922 0.309460 0.813425 0.125994
H82   H     H_    0.564947 0.393222 0.864632 0.190648
H83   H     H_    0.521160 0.440908 0.814085 0.153170
O78   O     O_3   0.522416 0.354311 0.132809 -0.518185
C202  C     C_3   0.470271 0.376616 0.158966 -0.061899
H84   H     H_    0.461266 0.318724 0.188690 0.134685
H85   H     H_    0.432719 0.382959 0.132810 0.157295
H86   H     H_    0.474936 0.451365 0.177872 0.156662
O79   O     O_3   0.977889 0.851610 0.865439 -0.548640
C203  C     C_3   0.029333 0.873424 0.838440 -0.031298
H87   H     H_    0.042923 0.809459 0.813428 0.125967
H88   H     H_    0.064947 0.893221 0.864635 0.190649
H89   H     H_    0.021161 0.940907 0.814087 0.153169
O80   O     O_3   0.022407 0.854312 0.132810 -0.518214
C204  C     C_3   0.970266 0.876597 0.158977 -0.061955
H90   H     H_    0.961283 0.818715 0.188709 0.134717
H91   H     H_    0.932703 0.882902 0.132830 0.157253
H92   H     H_    0.974921 0.951359 0.177871 0.156657
O81   O     O_3   0.498981 0.453716 0.947187 -0.567322
C205  C     C_3   0.441624 0.489732 0.938372 -0.026741
H93   H     H_    0.442444 0.541435 0.905181 0.188757
H94   H     H_    0.425116 0.535011 0.970591 0.188127
H95   H     H_    0.410174 0.427966 0.930058 0.178699
O82   O     O_3   0.533462 0.444757 0.049498 -0.513703
C206  C     C_3   0.498084 0.532772 0.050974 -0.052526
H96   H     H_    0.451813 0.516481 0.058224 0.170238
H97   H     H_    0.512609 0.579950 0.083097 0.178618
H98   H     H_    0.504785 0.580097 0.016781 0.157985
O83   O     O_3   0.998976 0.953712 0.947189 -0.567291
C207  C     C_3   0.941617 0.989734 0.938387 -0.026750
H99   H     H_    0.925093 0.034914 0.970634 0.188188
H100  H     H_    0.910179 0.927978 0.930027 0.178709
H101  H     H_    0.942439 0.041526 0.905231 0.188739
O84   O     O_3   0.033472 0.944748 0.049492 -0.513713
C208  C     C_3   0.998079 0.032740 0.051010 -0.052487
H102  H     H_    0.004696 0.080054 0.016800 0.157970
H103  H     H_    0.012671 0.079949 0.083101 0.178624
H104  H     H_    0.951825 0.016414 0.058347 0.170220
Cl41  Cl    Cl    0.644416 0.759413 0.978443 -0.579793
Cl42  Cl    Cl    0.357499 0.931319 0.025649 -0.485659
Cl43  Cl    Cl    0.144416 0.259414 0.978442 -0.579780
Cl44  Cl    Cl    0.857497 0.431321 0.025648 -0.485667
Cl45  Cl    Cl    0.658058 0.750628 0.864237 -0.418725
Cl46  Cl    Cl    0.348527 0.855770 0.138873 -0.372833
Cl47  Cl    Cl    0.158055 0.250636 0.864236 -0.418708
Cl48  Cl    Cl    0.848527 0.355773 0.138872 -0.372832
Cl49  Cl    Cl    0.872007 0.887628 0.034945 -0.696220
Cl50  Cl    Cl    0.137670 0.781100 0.933049 -0.626436
Cl51  Cl    Cl    0.372007 0.387620 0.034945 -0.696180
Cl52  Cl    Cl    0.637669 0.281102 0.933048 -0.626442
O85   O     O_3   0.796051 0.034721 0.980440 -0.505261
C209  C     C_3   0.746806 0.092676 0.995574 -0.036487
H105  H     H_    0.761286 0.154406 0.020860 0.172304
H106  H     H_    0.714444 0.047998 0.017552 0.065696
H107  H     H_    0.725462 0.127663 0.962162 0.195486
O86   O     O_3   0.138155 0.912446 0.013271 -0.506717
C210  C     C_3   0.138107 0.016668 0.000255 0.032260
H108  H     H_    0.180893 0.043120 0.985488 0.166496
H109  H     H_    0.123980 0.062824 0.033125 0.220541
H110  H     H_    0.105940 0.029358 0.969806 0.209925
O87   O     O_3   0.296055 0.534718 0.980440 -0.505259
C211  C     C_3   0.246811 0.592676 0.995574 -0.036487
H111  H     H_    0.261292 0.654401 0.020863 0.172302
H112  H     H_    0.214445 0.547999 0.017549 0.065699
H113  H     H_    0.225470 0.627671 0.962163 0.195488
O88   O     O_3   0.638153 0.412444 0.013272 -0.506731
C212  C     C_3   0.638107 0.516666 0.000256 0.032228
H114  H     H_    0.680893 0.543117 0.985490 0.166504
H115  H     H_    0.623980 0.562823 0.033125 0.220542
H116  H     H_    0.605942 0.529357 0.969805 0.209903

loop_
_geom_bond_atom_site_label_1
_geom_bond_atom_site_label_2
_ccdc_geom_bond_type
C198  H74   S    
Cr9   O37   S    
C7    C168  A    
Cr8   O8    S    
C37   C69   S    
C181  H23   S    
C204  H90   S    
C142  C146  A    
C131  C151  A    
C19   C20   A    
C32   H8    S    
C53   C69   A    
C38   C70   S    
O65   C189  S    
C62   H2    S    
C108  C164  S    
C173  O65   S    
C102  Cl17  S    
C203  H87   S    
C199  H76   S    
C55   C59   A    
C26   C50   A    
C11   O80   S    
C162  O42   A    
Cr5   O49   S    
C42   Cl6   S    
O55   C179  S    
C29   C33   A    
C100  C104  A    
C22   O81   S    
C195  H63   S    
C1    O25   A    
C135  O47   A    
C3    C74   S    
C9    C13   A    
C196  H68   S    
C146  C150  A    
C77   C101  A    
C12   C16   A    
C187  H39   S    
C56   C72   A    
C169  C174  A    
C172  C175  A    
C141  C145  A    
Cr11  O35   S    
C138  C154  A    
C138  Cl26  S    
C6    C165  A    
C21   C22   A    
C61   H1    S    
Cr8   O52   S    
C41   C49   A    
C192  H55   S    
C128  Cl40  S    
C192  H54   S    
C63   C67   A    
C18   C170  A    
C25   C29   A    
C27   C31   A    
O63   C187  S    
Cr1   O17   S    
C28   C32   A    
C157  O9    A    
Cr7   O31   S    
C62   C66   A    
O66   C190  S    
C44   Cl8   S    
C167  C171  A    
C162  O14   A    
Cr5   O29   S    
C185  H33   S    
C98   C102  A    
C60   C76   A    
C197  H70   S    
C78   C82   A    
C67   O87   S    
C134  C155  S    
C54   C70   A    
C16   C20   A    
O68   C192  S    
C137  C153  A    
C143  Cl35  S    
C140  C156  A    
C210  H109  S    
Cr11  O15   S    
C84   O56   S    
C132  C152  A    
C204  H92   S    
Cr9   O13   S    
C197  H71   S    
Cr8   O32   S    
C130  C138  A    
C163  O43   A    
C183  H27   S    
Cr1   O41   S    
C168  Cl3   S    
Cr3   O23   S    
C56   Cl44  S    
Cr9   O33   S    
C203  H89   S    
Cr5   O5    S    
C84   C88   A    
Cr1   O21   S    
C177  H10   S    
C159  O11   A    
Cr10  O34   S    
C119  C123  A    
C26   C90   S    
C50   Cl10  S    
C5    C46   S    
C195  H65   S    
C105  C125  A    
C7    C48   S    
C8    C47   S    
C107  C127  A    
C212  H115  S    
C175  C176  A    
C137  Cl25  S    
C31   H7    S    
C136  C153  S    
Cr12  O16   S    
C66   C70   A    
C164  O16   A    
C187  H41   S    
C29   H5    S    
C191  H51   S    
C194  H62   S    
C95   C99   A    
C208  H102  S    
C205  H94   S    
C80   C160  S    
C61   C65   A    
C59   Cl47  S    
C129  C137  A    
O86   C210  S    
Cr11  O11   S    
C2    O22   A    
Cr4   O44   S    
C117  C149  S    
C176  O68   S    
O77   C201  S    
C134  O50   A    
Cr3   O47   S    
C2    C75   S    
C206  H97   S    
Cr1   O45   S    
C186  H37   S    
C113  Cl29  S    
C115  Cl31  S    
O79   C203  S    
C88   O60   S    
C85   C93   A    
C30   C34   A    
C6    C9    A    
C200  H78   S    
C98   Cl13  S    
C182  H25   S    
O85   C209  S    
C129  C149  A    
C193  H58   S    
C64   C68   A    
C21   O82   S    
C179  H17   S    
O53   C177  S    
C48   O32   A    
C178  H14   S    
C65   C69   A    
C193  H57   S    
C52   Cl12  S    
C91   O39   A    
C110  Cl22  S    
C118  C122  A    
C89   O37   A    
C58   Cl46  S    
C143  C155  A    
C78   C158  S    
C202  H84   S    
C121  O73   S    
C184  H31   S    
C87   C95   A    
C130  C150  A    
C23   C24   A    
C202  H85   S    
C27   C91   S    
C110  C114  A    
C183  H29   S    
C44   C52   A    
C49   Cl9   S    
Cr1   O1    S    
C180  H18   S    
C188  H43   S    
C35   Cl51  S    
C11   C15   A    
C33   Cl49  S    
C27   C51   A    
O57   C181  S    
C46   O30   A    
C7    C12   A    
Cr10  O10   S    
C165  Cl2   S    
C135  O51   A    
C211  H111  S    
C99   C103  A    
C10   C14   A    
C179  H15   S    
C36   Cl52  S    
C191  H53   S    
C108  C128  A    
C167  Cl4   S    
C116  C120  A    
O84   C208  S    
C144  C156  A    
C208  H104  S    
C55   Cl43  S    
C121  C125  A    
Cr4   O4    S    
C160  O12   A    
C123  C127  A    
C139  C155  A    
C54   C58   A    
C17   C18   A    
C201  H81   S    
C5    C166  A    
C142  C154  A    
C4    C73   S    
C42   C50   A    
C113  C117  A    
O80   C204  S    
C68   O88   S    
C107  C163  S    
C166  C170  A    
C115  C119  A    
C190  H49   S    
C105  C161  S    
C157  O5    A    
C93   C97   A    
C112  C116  A    
C200  H80   S    
C58   C74   A    
C198  H73   S    
O87   C211  S    
C105  C109  A    
C3    O27   A    
C40   C72   S    
C1    C76   S    
C107  C111  A    
C148  C152  A    
O64   C188  S    
C178  H12   S    
C26   C30   A    
C177  H9    S    
C129  O61   S    
C189  H47   S    
C89   O1    A    
C171  C176  A    
C189  H46   S    
C13   C17   A    
C14   C22   A    
C203  H88   S    
C182  H24   S    
C209  H107  S    
C141  C153  A    
C63   C75   A    
C147  C151  A    
C96   C100  A    
C195  H64   S    
C37   C41   A    
C55   C71   A    
C196  H67   S    
C131  C139  A    
Cr6   O30   S    
C40   C44   A    
C47   O31   A    
O56   C180  S    
Cr7   O27   S    
C180  H20   S    
Cr3   O19   S    
Cr5   O17   S    
C92   O4    A    
C193  H59   S    
C81   C85   A    
C133  O49   A    
Cr10  O38   S    
C83   C87   A    
C88   C96   A    
C6    C45   S    
C59   C75   A    
C78   C102  A    
C133  C156  S    
C204  H91   S    
C211  H113  S    
C80   C84   A    
C177  H11   S    
O82   C206  S    
Cr12  O20   S    
C15   C19   A    
C135  C154  S    
C125  Cl37  S    
C80   C104  A    
Cr6   O50   S    
C79   C159  S    
O58   C182  S    
Cr8   O20   S    
C161  O41   A    
C94   C98   A    
C185  H34   S    
O71   C195  S    
C2    O26   A    
C207  H99   S    
C136  O52   A    
C181  H21   S    
C118  C150  S    
O70   C194  S    
C134  O46   A    
Cr3   O43   S    
C64   H4    S    
C194  H60   S    
C4    O24   A    
C142  Cl34  S    
C124  C128  A    
C99   Cl16  S    
C185  H35   S    
C111  Cl23  S    
C165  C169  A    
C46   O34   A    
C9    O78   S    
O88   C212  S    
C183  H28   S    
Cr6   O26   S    
Cr2   O18   S    
C158  O10   A    
Cr4   O20   S    
C199  H75   S    
O67   C191  S    
C60   Cl48  S    
C209  H105  S    
O76   C200  S    
C61   C73   A    
O81   C205  S    
Cr5   O25   S    
C33   C37   A    
C56   C60   A    
C35   C39   A    
O83   C207  S    
C212  H114  S    
C8    C167  A    
C77   C81   A    
C191  H52   S    
C82   O54   S    
C161  O13   A    
C83   O55   S    
C205  H95   S    
C145  O69   S    
Cr10  O14   S    
O78   C202  S    
C31   C35   A    
C32   C36   A    
Cr2   O42   S    
C192  H56   S    
O73   C197  S    
C51   Cl11  S    
Cr12  O12   S    
C53   C57   A    
C127  Cl39  S    
Cr6   O6    S    
Cr2   O22   S    
C124  O76   S    
C211  H112  S    
C160  O8    A    
O75   C199  S    
C187  H40   S    
O74   C198  S    
C132  C140  A    
C85   O57   S    
C106  C126  A    
C209  H106  S    
C25   C89   S    
C86   O58   S    
C207  H101  S    
C147  O71   S    
C197  H69   S    
C87   O59   S    
C82   C86   A    
C79   C83   A    
C178  H13   S    
C43   C51   A    
O61   C185  S    
C30   H6    S    
Cr3   O3    S    
C63   H3    S    
C100  Cl15  S    
C92   O40   A    
C101  Cl18  S    
Cr7   O51   S    
C67   C71   A    
C106  C162  S    
C25   C49   A    
C103  Cl20  S    
C186  H36   S    
C108  C112  A    
C168  C172  A    
C210  H110  S    
C3    O23   A    
C184  H30   S    
C62   C74   A    
C1    O21   A    
Cr12  O36   S    
C175  O67   S    
C145  C149  A    
C146  O70   S    
Cr2   O46   S    
C170  C173  A    
C114  Cl30  S    
C190  H48   S    
C93   C94   S    
C41   Cl5   S    
C28   C52   A    
C188  H42   S    
C14   C18   A    
C95   C96   S    
C199  H77   S    
C144  C148  A    
C198  H72   S    
C131  O63   S    
C173  C174  A    
C116  Cl32  S    
C143  C147  A    
C140  Cl28  S    
C19   C171  A    
C38   C42   A    
C212  H116  S    
C17   C169  A    
C47   O35   A    
C57   C73   A    
C90   O38   A    
C208  H103  S    
C117  C121  A    
C205  H93   S    
C86   C94   A    
C57   Cl45  S    
C130  O62   S    
Cr9   O17   S    
C174  O66   S    
C164  O44   A    
C201  H82   S    
Cr12  O40   S    
C68   C72   A    
C206  H98   S    
C133  O45   A    
C79   C103  A    
C15   C23   A    
Cr2   O2    S    
C186  H38   S    
C16   C24   A    
C39   C71   S    
C12   O79   S    
C126  Cl38  S    
C45   O33   A    
C34   Cl50  S    
C200  H79   S    
C182  H26   S    
Cr4   O48   S    
C119  C151  S    
Cr11  O19   S    
C120  C152  S    
C166  Cl1   S    
C136  O48   A    
C13   C21   A    
Cr9   O9    S    
C36   C40   A    
C201  H83   S    
C194  H61   S    
O59   C183  S    
C163  O15   A    
C81   O53   S    
C39   C43   A    
C4    O28   A    
C122  C126  A    
O62   C186  S    
C54   Cl42  S    
C53   Cl41  S    
C159  O7    A    
C210  H108  S    
C132  O64   S    
C184  H32   S    
C141  Cl33  S    
Cr7   O19   S    
C64   C76   A    
C202  H86   S    
C28   C92   S    
C196  H66   S    
C114  C118  A    
C179  H16   S    
O60   C184  S    
C180  H19   S    
C158  O6    A    
C188  H44   S    
Cr4   O24   S    
C65   O85   S    
C123  O75   S    
O72   C196  S    
C106  C110  A    
C43   Cl7   S    
Cr8   O28   S    
C122  O74   S    
C20   C172  A    
C34   C38   A    
C90   O2    A    
C109  C113  A    
C66   O86   S    
O69   C193  S    
Cr7   O7    S    
C45   O29   A    
C91   O3    A    
C5    C10   A    
C97   Cl14  S    
C24   O83   S    
C144  Cl36  S    
C23   O84   S    
C139  Cl27  S    
C8    C11   A    
Cr10  O18   S    
C10   O77   S    
C207  H100  S    
C181  H22   S    
C97   C101  A    
O54   C178  S    
C104  Cl19  S    
C206  H96   S    
C48   O36   A    
C148  O72   S    
C112  Cl24  S    
C189  H45   S    
C190  H50   S    
C109  Cl21  S    
Cr6   O18   S    
C111  C115  A    
Cr11  O39   S    
C120  C124  A    
C77   C157  S    
