data_mof_unit_18400.cif
_audit_creation_date              2012-12-10T19:44:27-0500
_audit_creation_method            fapswitch 2.2
_symmetry_space_group_name_H-M    P1
_symmetry_Int_Tables_number       1
_space_group_crystal_system       triclinic
_cell_length_a                    10.839785
_cell_length_b                    12.463257
_cell_length_c                    13.346394
_cell_angle_alpha                 117.355773
_cell_angle_beta                  76.537597
_cell_angle_gamma                 100.149966
_cell_volume                      1552.43045913

loop_
_atom_site_label
_atom_site_type_symbol
_atom_type_description
_atom_site_fract_x
_atom_site_fract_y
_atom_site_fract_z
_atom_type_partial_charge
C1    C     C_R   0.515238 0.854610 0.286728 0.860515
C2    C     C_R   0.659766 0.754784 0.743228 0.340561
C3    C     C_R   0.039630 0.943308 0.557149 -0.218990
C4    C     C_R   0.128857 0.003403 0.501401 -0.076724
C5    C     C_R   0.086153 0.066087 0.452449 0.016357
C6    C     C_R   0.956847 0.065406 0.458850 -0.245331
C7    C     C_R   0.868225 0.003764 0.511640 -0.080589
C8    C     C_R   0.909528 0.942715 0.563341 0.040164
C9    C     C_R   0.156902 0.246372 0.416587 -0.064928
C10   C     C_R   0.177234 0.291606 0.335631 -0.235649
C11   C     C_R   0.207315 0.213894 0.219516 -0.133661
C12   C     C_R   0.735695 0.001941 0.505130 0.782751
C13   C     C_R   0.230169 0.093406 0.183805 0.449596
C14   C     C_R   0.210186 0.048014 0.265919 -0.236190
C15   C     C_R   0.166825 0.122827 0.381641 0.121543
C16   C     C_R   0.454931 0.269821 0.029836 -0.160014
C17   C     C_R   0.510720 0.226870 0.830527 -0.184765
C18   C     C_R   0.632676 0.813671 0.093468 -0.241753
C19   C     C_R   0.698325 0.733571 0.990935 -0.127559
C20   C     C_R   0.672608 0.609452 0.954498 -0.018991
C21   C     C_R   0.572766 0.561974 0.015866 0.021700
C22   C     C_R   0.506620 0.643946 0.122492 0.027749
C23   C     C_R   0.495412 0.144362 0.711461 0.786607
C24   C     C_R   0.539448 0.435157 0.977645 0.030553
C25   C     C_R   0.471874 0.393654 0.059118 0.016634
C26   C     C_R   0.408190 0.474400 0.163319 -0.309884
C27   C     C_R   0.409679 0.595838 0.186101 0.427146
C28   C     C_R   0.561889 0.349016 0.861330 0.353035
C29   C     C_R   0.468284 0.186711 0.915597 -0.150543
C30   C     C_R   0.542918 0.770648 0.163831 -0.090626
C31   C     C_R   0.709461 0.334896 0.326097 0.322113
C32   C     C_R   0.330944 0.765823 0.650862 0.497479
C33   C     C_R   0.306691 0.677459 0.692464 0.206142
C34   C     C_R   0.263270 0.000451 0.499020 0.809861
C35   C     C_R   0.372277 0.573533 0.633535 -0.109932
C36   C     C_R   0.463136 0.553093 0.532995 -0.111298
C37   C     C_R   0.496425 0.650689 0.501079 0.118810
C38   C     C_R   0.529461 0.443485 0.469748 -0.042263
C39   C     C_R   0.636633 0.437212 0.383724 -0.079699
C40   C     C_R   0.673056 0.534198 0.358573 -0.330074
C41   C     C_R   0.604687 0.636285 0.409967 0.470889
C42   C     C_R   0.495012 0.338879 0.488680 0.555590
C43   C     C_R   0.679145 0.243534 0.360388 -0.010955
C44   C     C_R   0.659882 0.882763 0.787674 0.342616
C45   C     C_R   0.738781 0.942466 0.726313 -0.152274
C46   C     C_R   0.822001 0.878512 0.625209 0.056979
C47   C     C_R   0.827233 0.753835 0.586334 -0.235715
C48   C     C_R   0.746480 0.692764 0.644725 -0.180765
Cu1   Cu    Cu3+1 0.529370 0.098270 0.475420 0.962250
Cu2   Cu    Cu3+1 0.470630 0.901730 0.524580 1.042017
H1    H     H_    0.211381 0.247358 0.156975 0.158782
H2    H     H_    0.215404 0.952234 0.238498 0.131397
H3    H     H_    0.345041 0.440572 0.220144 0.137174
H4    H     H_    0.737056 0.553048 0.881314 0.179216
H5    H     H_    0.735324 0.166004 0.320260 0.163823
H6    H     H_    0.357317 0.515581 0.675739 0.242363
H7    H     H_    0.892342 0.703406 0.509380 0.168135
H8    H     H_    0.749000 0.595741 0.611483 0.183657
H9    H     H_    0.070858 0.897284 0.597691 0.180340
H10   H     H_    0.925733 0.109729 0.416537 0.170542
N1    N     N_R   0.573890 0.246290 0.438210 -0.264232
N2    N     N_R   0.426890 0.754320 0.561170 -0.220370
O1    O     O_R   0.536940 0.972510 0.318130 -0.603846
O2    O     O_R   0.487330 0.806530 0.359650 -0.487345
O3    O     O_R   0.705160 0.082990 0.479250 -0.612982
O4    O     O_R   0.655550 0.917010 0.520760 -0.516907
O5    O     O_R   0.512670 0.193470 0.640350 -0.581392
O6    O     O_R   0.463060 0.027490 0.681870 -0.531644
O7    O     O_R   0.344450 0.082990 0.479240 -0.570436
O8    O     O_R   0.294840 0.917010 0.520750 -0.529427
O9    O     O_3   0.576158 0.686977 0.791150 -0.721832
H11   H     H_    0.500865 0.732579 0.837776 0.338623
O10   O     O_3   0.264363 0.020906 0.068300 -0.741555
H12   H     H_    0.277811 0.939305 0.057463 0.325360
H13   H     H_    0.436895 0.092577 0.894194 0.250795
H14   H     H_    0.421530 0.237747 0.094513 0.180220
O11   O     O_3   0.618493 0.386815 0.778114 -0.719292
H15   H     H_    0.682292 0.328556 0.724792 0.322016
H16   H     H_    0.661633 0.909472 0.122532 0.172379
H17   H     H_    0.774188 0.767984 0.941832 0.156541
O12   O     O_3   0.588286 0.952728 0.891048 -0.749925
H18   H     H_    0.571379 0.910636 0.940769 0.330436
O13   O     O_3   0.313675 0.665851 0.264589 -0.729775
H19   H     H_    0.254089 0.617463 0.299833 0.318759
H20   H     H_    0.759962 0.533519 0.298818 0.163018
O14   O     O_3   0.810471 0.321480 0.237663 -0.732324
H21   H     H_    0.785528 0.347210 0.185619 0.328461
O15   O     O_3   0.376016 0.323870 0.546331 -0.758519
H22   H     H_    0.385437 0.291461 0.598538 0.368668
O16   O     O_3   0.262927 0.866775 0.700964 -0.698835
H23   H     H_    0.175943 0.845911 0.734504 0.302542
O17   O     O_3   0.224945 0.691527 0.793178 -0.732224
H24   H     H_    0.218146 0.779089 0.843747 0.341641
O18   O     O_3   0.653415 0.722989 0.373059 -0.690876
H25   H     H_    0.713871 0.691721 0.299347 0.293812
H26   H     H_    0.737693 0.039682 0.759220 0.140108
H27   H     H_    0.120724 0.304598 0.505170 0.160218
H28   H     H_    0.162014 0.385155 0.362382 0.154223

loop_
_geom_bond_atom_site_label_1
_geom_bond_atom_site_label_2
_ccdc_geom_bond_type
C40   H20   S    
C1    O2    A    
Cu1   O1    S    
Cu2   O2    S    
O10   H12   S    
C35   C36   A    
O12   H18   S    
C7    C8    A    
C41   O18   S    
O11   H15   S    
C26   C27   A    
C17   C23   S    
C31   C43   A    
O13   H19   S    
C36   C37   A    
C38   C42   A    
C5    C6    A    
C17   C29   A    
C18   C19   A    
C23   O5    A    
C10   H28   S    
O17   H24   S    
C14   H2    S    
C19   C20   A    
C2    C44   A    
C18   H16   S    
C18   C30   A    
C22   C30   A    
C9    C10   A    
C34   O8    A    
C31   O14   S    
Cu1   O7    S    
C21   C22   A    
C37   C41   A    
C19   H17   S    
C1    O1    A    
C32   O16   S    
C37   N2    A    
C7    C12   S    
C4    C34   S    
Cu1   N1    S    
C6    H10   S    
C24   C25   A    
C20   H4    S    
C44   O12   S    
C33   O17   S    
C39   C40   A    
O14   H21   S    
C2    C48   A    
C16   C29   A    
C45   C46   A    
C12   O4    A    
C23   O6    A    
C47   H7    S    
C47   C48   A    
C34   O7    A    
O15   H22   S    
C28   O11   S    
Cu2   O4    S    
C42   N1    A    
Cu1   O3    S    
C43   H5    S    
C40   C41   A    
C13   O10   S    
C3    C8    A    
C22   C27   A    
Cu2   N2    S    
C42   O15   S    
C3    C4    A    
C26   H3    S    
C44   C45   A    
C43   N1    A    
C16   C25   A    
C46   C47   A    
C9    H27   S    
Cu1   O5    S    
C35   H6    S    
C16   H14   S    
C17   C28   A    
C24   C28   A    
C4    C5    A    
C48   H8    S    
C6    C7    A    
C29   H13   S    
C12   O3    A    
C32   C33   A    
C36   C38   A    
C25   C26   A    
C32   N2    A    
O9    H11   S    
C11   C13   A    
O16   H23   S    
C38   C39   A    
C27   O13   S    
C1    C30   S    
C33   C35   A    
C31   C39   A    
Cu2   O8    S    
O18   H25   S    
C8    C46   S    
C5    C15   S    
C11   H1    S    
C10   C11   A    
C20   C21   A    
Cu1   Cu2   S    
C21   C24   A    
C14   C15   A    
C13   C14   A    
C45   H26   S    
Cu2   O6    S    
C2    O9    S    
C9    C15   A    
C3    H9    S    
