data_mof_unit_12958.cif
_audit_creation_date              2013-03-05T16:10:47-0500
_audit_creation_method            fapswitch 2.2
_symmetry_space_group_name_H-M    P1
_symmetry_Int_Tables_number       1
_space_group_crystal_system       triclinic
_cell_length_a                    22.337307
_cell_length_b                    7.081219
_cell_length_c                    19.626817
_cell_angle_alpha                 90.499795
_cell_angle_beta                  99.04455
_cell_angle_gamma                 90.532956
_cell_volume                      3065.58337126

loop_
_atom_site_label
_atom_site_type_symbol
_atom_site_description
_atom_site_fract_x
_atom_site_fract_y
_atom_site_fract_z
_atom_type_partial_charge
O1    O     O_R   0.443980 0.494320 0.557430 -0.565570
O2    O     O_R   0.556020 0.994320 0.442570 -0.580000
O3    O     O_R   0.441210 0.822520 0.414610 -0.579608
O4    O     O_R   0.558790 0.322520 0.585390 -0.588722
C1    C     C_R   0.426380 0.653295 0.389673 1.085962
C2    C     C_R   0.573355 0.157059 0.610864 1.022666
O5    O     O_R   0.436920 0.823940 0.555180 -0.597521
O6    O     O_R   0.563080 0.323940 0.444820 -0.574556
O7    O     O_R   0.551700 0.995760 0.584140 -0.585939
O8    O     O_R   0.448300 0.495760 0.415860 -0.592286
C3    C     C_R   0.421834 0.655286 0.575142 0.994507
C4    C     C_R   0.578361 0.155563 0.425029 0.981407
O9    O     O_3   0.537660 0.661290 0.509340 -0.283778
O10   O     O_3   0.462340 0.161290 0.490660 -0.282798
V1    V     V_3+5 0.493010 0.935560 0.498270 1.224575
V2    V     V_3+5 0.506990 0.435560 0.501730 1.241852
C5    C     C_R   0.746819 0.967909 0.200287 -0.307424
C6    C     C_R   0.253786 0.470387 0.800346 -0.313011
H1    H     H_    0.744067 0.855648 0.161980 0.158909
H2    H     H_    0.257331 0.362892 0.839719 0.163442
C7    C     C_R   0.794562 0.100045 0.205802 0.099521
C8    C     C_R   0.205561 0.597801 0.794130 0.097859
C9    C     C_R   0.797282 0.247705 0.255146 0.178886
C10   C     C_R   0.201667 0.738451 0.743089 0.187878
C11   C     C_R   0.753255 0.256705 0.299296 -0.283685
C12   C     C_R   0.244383 0.743528 0.697321 -0.306976
H3    H     H_    0.756027 0.368718 0.337695 0.152176
H4    H     H_    0.240693 0.850301 0.657689 0.153509
C13   C     C_R   0.705476 0.124463 0.293766 0.102034
C14   C     C_R   0.292746 0.616614 0.703661 0.104799
C15   C     C_R   0.701875 0.980035 0.243155 0.168513
C16   C     C_R   0.297436 0.478680 0.755696 0.179695
C17   C     C_1   0.840384 0.082397 0.160754 0.057744
C18   C     C_1   0.159998 0.581900 0.839633 0.064720
C19   C     C_1   0.660978 0.137207 0.340691 0.055655
C20   C     C_1   0.338046 0.632814 0.657860 0.050168
C21   C     C_1   0.623595 0.146588 0.379433 -0.200522
C22   C     C_1   0.376053 0.644812 0.619987 -0.210667
C23   C     C_1   0.878437 0.070782 0.122964 -0.180350
C24   C     C_1   0.121808 0.571214 0.877318 -0.177268
C25   C     C_R   0.636915 0.289163 0.794938 0.048223
C26   C     C_R   0.372728 0.512830 0.204674 0.058410
H5    H     H_    0.713737 0.253825 0.912105 0.196434
H6    H     H_    0.294192 0.505099 0.087881 0.192756
C27   C     C_R   0.614609 0.160278 0.677936 -0.356541
C28   C     C_R   0.385749 0.632482 0.322901 -0.335462
C29   C     C_R   0.909054 0.043507 0.761697 0.024811
C30   C     C_R   0.089084 0.590910 0.237621 0.027317
C31   C     C_R   0.871894 0.043232 0.696712 0.369316
C32   C     C_R   0.125668 0.585697 0.302844 0.380291
C33   C     C_R   0.809622 0.072052 0.692286 -0.287438
C34   C     C_R   0.188688 0.584343 0.307408 -0.338992
C35   C     C_R   0.781463 0.093337 0.751149 0.058048
C36   C     C_R   0.217709 0.594775 0.249027 0.063164
C37   C     C_R   0.819039 0.096658 0.817594 -0.077923
C38   C     C_R   0.181020 0.578975 0.182423 -0.067641
C39   C     C_R   0.717305 0.128243 0.744982 0.054350
C40   C     C_R   0.282902 0.601602 0.255810 0.007033
C41   C     C_R   0.695685 0.212277 0.801937 -0.005539
C42   C     C_R   0.309733 0.544757 0.198269 0.007211
C43   C     C_R   0.732131 0.210736 0.866556 -0.250977
C44   C     C_R   0.273633 0.529209 0.133614 -0.246606
C45   C     C_R   0.790904 0.141482 0.875544 0.337574
C46   C     C_R   0.211393 0.557355 0.124631 0.338606
C47   C     C_R   0.673917 0.084575 0.684820 0.045135
C48   C     C_R   0.322352 0.663505 0.316991 0.072891
C49   C     C_R   0.596803 0.265119 0.732635 0.274291
C50   C     C_R   0.410445 0.553835 0.267392 0.246887
C51   C     C_R   0.883282 0.065746 0.822771 -0.278393
C52   C     C_R   0.115961 0.578929 0.176965 -0.282726
H7    H     H_    0.784209 0.088638 0.641376 0.186924
H8    H     H_    0.214832 0.561526 0.357390 0.200190
O11   O     O_R   0.051730 0.724670 0.084120 -0.579927
O12   O     O_R   0.948270 0.224670 0.915880 -0.596999
O13   O     O_R   0.063080 0.393540 0.944820 -0.576350
O14   O     O_R   0.936920 0.893540 0.055180 -0.575218
C53   C     C_R   0.076408 0.561629 0.922740 1.042172
C54   C     C_R   0.923607 0.061622 0.077304 1.046076
O15   O     O_R   0.058800 0.395030 0.085390 -0.598911
O16   O     O_R   0.941200 0.895030 0.914610 -0.585137
O17   O     O_R   0.943980 0.223310 0.057440 -0.580780
O18   O     O_R   0.056020 0.723310 0.942560 -0.580172
C55   C     C_R   0.074276 0.565405 0.109949 1.010231
C56   C     C_R   0.925638 0.062647 0.889804 1.013738
O19   O     O_3   0.962360 0.556290 0.990650 -0.270762
O20   O     O_3   0.037640 0.056290 0.009350 -0.268209
V3    V     V_3+5 0.006980 0.281990 0.001730 1.232142
V4    V     V_3+5 0.993020 0.781990 0.998270 1.241680
N1    N     N_2   0.653510 0.845426 0.235313 -0.103219
H9    H     H_    0.665551 0.714072 0.219110 0.180948
C57   C     C_3   0.598202 0.911406 0.194444 -0.769737
H10   H     H_    0.606086 0.944698 0.141295 0.224384
H11   H     H_    0.581493 0.039164 0.218433 0.269640
H12   H     H_    0.562668 0.799657 0.191144 0.268552
N2    N     N_2   0.346100 0.348460 0.763780 -0.091413
H13   H     H_    0.360076 0.310138 0.814348 0.180762
C58   C     C_3   0.335584 0.185565 0.718393 -0.788725
H14   H     H_    0.375631 0.092009 0.726961 0.273570
H15   H     H_    0.328213 0.229521 0.663516 0.248649
H16   H     H_    0.295353 0.105017 0.729418 0.225972
N3    N     N_R   0.897317 0.017156 0.634156 0.245634
O21   O     O_R   0.944793 0.912363 0.633537 -0.346948
O22   O     O_R   0.870204 0.084952 0.576082 -0.379977
N4    N     N_R   0.099343 0.576381 0.365281 0.245036
O23   O     O_R   0.047071 0.493989 0.365651 -0.348376
O24   O     O_R   0.129777 0.637099 0.423496 -0.389277
N5    N     N_R   0.819561 0.112770 0.944660 0.199602
O25   O     O_R   0.824731 0.940186 0.966771 -0.427429
O26   O     O_R   0.820256 0.250395 0.989155 -0.426833
N6    N     N_R   0.181171 0.568003 0.055417 0.197187
O27   O     O_R   0.168880 0.734771 0.030052 -0.419429
O28   O     O_R   0.186648 0.427908 0.013589 -0.430996
N7    N     N_2   0.844809 0.385467 0.261798 -0.105558
H17   H     H_    0.855050 0.448845 0.309814 0.202252
C59   C     C_3   0.843347 0.516500 0.205162 -0.854196
H18   H     H_    0.839148 0.663383 0.224012 0.234601
H19   H     H_    0.804742 0.487264 0.163092 0.258918
H20   H     H_    0.886169 0.505755 0.183526 0.255396
N8    N     N_2   0.155353 0.876807 0.737970 -0.106055
H21   H     H_    0.144172 0.936179 0.689878 0.200884
C60   C     C_3   0.160859 0.013550 0.794189 -0.881193
H22   H     H_    0.162611 0.158949 0.773761 0.239730
H23   H     H_    0.202495 0.992542 0.832562 0.259656
H24   H     H_    0.120900 0.000404 0.821055 0.260666
N9    N     N_R   0.536895 0.342913 0.725492 0.229277
O29   O     O_R   0.529618 0.523423 0.733310 -0.423121
O30   O     O_R   0.489545 0.234856 0.707333 -0.414930
N10   N     N_R   0.474621 0.520651 0.274262 0.223966
O31   O     O_R   0.513265 0.654528 0.296497 -0.421277
O32   O     O_R   0.494615 0.353432 0.262536 -0.430628
N11   N     N_2   0.618320 0.391128 0.851004 -0.112155
H25   H     H_    0.572821 0.380595 0.854404 0.211146
C61   C     C_3   0.641628 0.582945 0.859636 -0.800059
H26   H     H_    0.624046 0.668776 0.813862 0.269669
H27   H     H_    0.691948 0.585070 0.866915 0.253200
H28   H     H_    0.627183 0.648147 0.905988 0.243114
N12   N     N_2   0.398192 0.442397 0.147214 -0.112102
H29   H     H_    0.441526 0.489632 0.144381 0.205273
C62   C     C_3   0.390289 0.241032 0.134848 -0.807507
H30   H     H_    0.414745 0.160799 0.178841 0.275139
H31   H     H_    0.408614 0.201398 0.087356 0.238521
H32   H     H_    0.341537 0.200567 0.127474 0.250147
N13   N     N_2   0.687739 0.950957 0.634943 -0.114263
H33   H     H_    0.668015 0.975001 0.584733 0.153183
C63   C     C_3   0.683058 0.755944 0.655106 -0.781596
H34   H     H_    0.697657 0.662085 0.615323 0.234578
H35   H     H_    0.635391 0.720009 0.660072 0.261526
H36   H     H_    0.712833 0.730307 0.705009 0.242647
N14   N     N_2   0.300866 0.787860 0.365460 -0.103555
H37   H     H_    0.264890 0.873390 0.347174 0.196249
C64   C     C_3   0.304900 0.730684 0.436785 -0.917953
H38   H     H_    0.259363 0.733091 0.452688 0.275898
H39   H     H_    0.334033 0.833175 0.470063 0.256740
H40   H     H_    0.323369 0.586050 0.445070 0.223856
N15   N     N_2   0.973256 0.038460 0.764562 -0.083372
H41   H     H_    0.996709 0.963880 0.804903 0.158636
C65   C     C_3   0.000565 0.220513 0.754832 -0.778876
H42   H     H_    0.997464 0.315389 0.799477 0.211610
H43   H     H_    0.977762 0.287356 0.706771 0.271144
H44   H     H_    0.048922 0.202410 0.750058 0.243586
N16   N     N_2   0.024925 0.605547 0.233637 -0.082514
H45   H     H_    0.999229 0.531252 0.193866 0.151961
C66   C     C_3   0.003817 0.795980 0.241261 -0.764867
H46   H     H_    0.013663 0.884822 0.197904 0.211757
H47   H     H_    0.026071 0.859659 0.290858 0.270324
H48   H     H_    0.954117 0.793485 0.241211 0.231955

loop_
_geom_bond_atom_site_label_1
_geom_bond_atom_site_label_2
_geom_bond_distance
_ccdc_geom_bond_type
O15   C55   1.317992 A    
C32   N4    1.441909 S    
N3    O21   1.301507 A    
C2    C27   1.483353 S    
N15   C65   1.448040 S    
N2    H13   1.031984 S    
O1    C3    1.312414 A    
O16   C56   1.315754 A    
O2    C4    1.312076 A    
N10   O31   1.301311 A    
C58   H16   1.110639 S    
C2    O7    1.308888 A    
O15   V3    2.009713 S    
C63   H34   1.110298 S    
C29   C31   1.408126 A    
N11   C61   1.449078 S    
O5    C3    1.317394 A    
N12   C62   1.448822 S    
C17   C23   1.215659 T    
C18   C24   1.215988 T    
C66   H47   1.110869 S    
O14   C54   1.315976 A    
C28   C48   1.421859 A    
N14   C64   1.450051 S    
O12   C56   1.315846 A    
C31   N3    1.442643 S    
C47   N13   1.425895 S    
C62   H32   1.110362 S    
O20   V4    2.168407 S    
C39   C41   1.414347 A    
C7    C17   1.459434 S    
C40   C42   1.416346 A    
N13   H33   1.030555 S    
C58   H14   1.110423 S    
C42   C44   1.395289 A    
C31   C33   1.397010 A    
C4    C21   1.452674 S    
C43   C45   1.391336 A    
N6    O27   1.300423 A    
C29   C51   1.417193 A    
C60   H24   1.109376 S    
C44   C46   1.390107 A    
C63   H35   1.111738 S    
C40   C48   1.435801 A    
C65   H42   1.110700 S    
C66   H46   1.110802 S    
C15   N1    1.423173 S    
C37   C45   1.418277 A    
C27   C49   1.409869 A    
C61   H28   1.110240 S    
C32   C34   1.396546 A    
C64   H38   1.110138 S    
C38   C46   1.418147 A    
N16   C66   1.446931 S    
O12   V3    2.001774 S    
N1    C57   1.446960 S    
O14   V4    1.971032 S    
C35   C37   1.435505 A    
O6    V2    1.971068 S    
C26   N12   1.428724 S    
C26   C50   1.404466 A    
N5    O26   1.301245 A    
C33   H7    1.076748 S    
C13   C15   1.412362 A    
N4    O24   1.301635 A    
N4    O23   1.301466 A    
C58   H15   1.111342 S    
C34   C36   1.404538 A    
N16   H45   1.030479 S    
N8    C60   1.451444 S    
C11   C13   1.403901 A    
C8    C18   1.459963 S    
C36   C38   1.432452 A    
C41   C43   1.395410 A    
O19   V3    2.188323 S    
C9    N7    1.425012 S    
C23   C54   1.452517 S    
C66   H48   1.109983 S    
C25   C41   1.412993 A    
C48   N14   1.430925 S    
C25   C49   1.405748 A    
C30   C52   1.417303 A    
C57   H10   1.111765 S    
C25   N11   1.428339 S    
C35   C39   1.442961 A    
O20   V3    1.743008 S    
C30   N16   1.427748 S    
C59   H19   1.112699 S    
C5    C7    1.402814 A    
C33   C35   1.407219 A    
O4    V2    2.029404 S    
C3    C22   1.452127 S    
O11   V4    2.012655 S    
C28   C50   1.409073 A    
O2    V1    1.957048 S    
C57   H11   1.110643 S    
C46   N6    1.421682 S    
O10   V1    1.743283 S    
O6    C4    1.315366 A    
C59   H20   1.108848 S    
C39   C47   1.434369 A    
C34   H8    1.074184 S    
C16   N2    1.422699 S    
O1    V2    1.958561 S    
O17   V3    1.956878 S    
N8    H21   1.031910 S    
C52   C55   1.489062 S    
O13   C53   1.317641 A    
C60   H22   1.110736 S    
C37   C51   1.441484 A    
C1    C28   1.477530 S    
C64   H40   1.111416 S    
O13   V3    1.969499 S    
C12   C14   1.402834 A    
C65   H44   1.107301 S    
C38   C52   1.440297 A    
C7    C9    1.413363 A    
C27   C47   1.420863 A    
C61   H26   1.110776 S    
C5    C15   1.410324 A    
C8    C10   1.412339 A    
O4    C2    1.301840 A    
C6    C16   1.410863 A    
N5    O25   1.300512 A    
C45   N5    1.423191 S    
N11   H25   1.030990 S    
C26   C42   1.413405 A    
C63   H36   1.111386 S    
O3    V1    2.009518 S    
H5    C43   1.083601 S    
C61   H27   1.110517 S    
N7    H17   1.031889 S    
C36   C40   1.441635 A    
O19   V4    1.728875 S    
N13   C63   1.447189 S    
C50   N10   1.440283 S    
C10   N8    1.424119 S    
C19   C21   1.216418 T    
C6    C8    1.402862 A    
C10   C12   1.409978 A    
O3    C1    1.310211 A    
N10   O32   1.300750 A    
C65   H43   1.111066 S    
C62   H30   1.110312 S    
N2    C58   1.445853 S    
C11   H3    1.083948 S    
N12   H29   1.031100 S    
C13   C19   1.460275 S    
C12   H4    1.083862 S    
C14   C20   1.459701 S    
H6    C44   1.083563 S    
C49   N9    1.438738 S    
O7    V1    2.005792 S    
C1    O8    1.299762 A    
O16   V4    2.029603 S    
C51   C56   1.495360 S    
O8    V2    2.017193 S    
N14   H37   1.031285 S    
C20   C22   1.216020 T    
C14   C16   1.411974 A    
C62   H31   1.110255 S    
C54   O17   1.312966 A    
N9    O29   1.300811 A    
C29   N15   1.427139 S    
C53   O18   1.314212 A    
O18   V4    1.958390 S    
O5    V1    1.969537 S    
C30   C32   1.407249 A    
C5    H1    1.084037 S    
C6    H2    1.083980 S    
C64   H39   1.107288 S    
N6    O28   1.301048 A    
C60   H23   1.112933 S    
C9    C11   1.410757 A    
N3    O22   1.301688 A    
O9    V2    1.729150 S    
N15   H41   1.030670 S    
N9    O30   1.301096 A    
C24   C53   1.453202 S    
N7    C59   1.450781 S    
N1    H9    1.032004 S    
O11   C55   1.312553 A    
C59   H18   1.110636 S    
C57   H12   1.109799 S    
