data_mof_unit_53123.cif
_audit_creation_date              2012-12-11T16:49:09-0500
_audit_creation_method            fapswitch 2.2
_symmetry_space_group_name_H-M    P1
_symmetry_Int_Tables_number       1
_space_group_crystal_system       triclinic
_cell_length_a                    6.924567
_cell_length_b                    26.006843
_cell_length_c                    28.836387
_cell_angle_alpha                 89.913534
_cell_angle_beta                  89.816042
_cell_angle_gamma                 89.878883
_cell_volume                      5192.9890172

loop_
_atom_site_label
_atom_site_type_symbol
_atom_type_description
_atom_site_fract_x
_atom_site_fract_y
_atom_site_fract_z
_atom_type_partial_charge
O1    O     O_R   0.601010 0.796750 0.202520 -0.543904
O2    O     O_R   0.398990 0.203250 0.797480 -0.505249
O3    O     O_R   0.271260 0.802890 0.297300 -0.542409
O4    O     O_R   0.728740 0.197110 0.702700 -0.546116
O5    O     O_R   0.100940 0.703200 0.297630 -0.543298
O6    O     O_R   0.899060 0.296800 0.702370 -0.540284
C1    C     C_R   0.440044 0.815557 0.312997 0.687420
C2    C     C_R   0.560054 0.184852 0.686670 0.709957
O7    O     O_R   0.271300 0.802890 0.202860 -0.516324
O8    O     O_R   0.728700 0.197110 0.797140 -0.553269
O9    O     O_R   0.100980 0.703210 0.202520 -0.537270
O10   O     O_R   0.899020 0.296790 0.797480 -0.536747
C3    C     C_R   0.440236 0.816148 0.187272 0.713960
C4    C     C_R   0.559637 0.183880 0.812659 0.733381
O11   O     O_R   0.600970 0.796740 0.297640 -0.544404
O12   O     O_R   0.399030 0.203260 0.702360 -0.537167
O13   O     O_3   0.434500 0.717270 0.250080 -0.361557
O14   O     O_3   0.565500 0.282730 0.749920 -0.372111
V1    V     V_3+5 0.159650 0.756040 0.250080 1.431479
V2    V     V_3+5 0.840350 0.243960 0.749920 1.412391
O15   O     O_R   0.771260 0.697060 0.202850 -0.535911
O16   O     O_R   0.228740 0.302940 0.797150 -0.540344
C5    C     C_R   0.940737 0.684224 0.187304 0.677642
C6    C     C_R   0.059414 0.315338 0.812960 0.684459
O17   O     O_R   0.771230 0.697050 0.297300 -0.517558
O18   O     O_R   0.228770 0.302950 0.702700 -0.522999
C7    C     C_R   0.939636 0.684820 0.313856 0.702684
C8    C     C_R   0.060129 0.316030 0.686809 0.699634
V3    V     V_3+5 0.659640 0.743910 0.250080 1.436488
V4    V     V_3+5 0.340360 0.256090 0.749920 1.459736
O19   O     O_3   0.934660 0.782680 0.250080 -0.367050
O20   O     O_3   0.065340 0.217320 0.749920 -0.361293
C9    C     C_R   0.125944 0.623525 0.364402 -0.215366
C10   C     C_R   0.874837 0.364399 0.625762 -0.222089
H1    H     H_    0.254832 0.632426 0.344733 0.194222
H2    H     H_    0.746729 0.343006 0.635214 0.189902
C11   C     C_R   0.139470 0.587842 0.400745 -0.140696
C12   C     C_R   0.861724 0.400298 0.589606 -0.141479
H3    H     H_    0.278924 0.570943 0.408322 0.159510
H4    H     H_    0.723547 0.405829 0.572820 0.159601
C13   C     C_R   0.975107 0.573548 0.426383 -0.045828
C14   C     C_R   0.024962 0.427921 0.574778 -0.045577
C15   C     C_R   0.797303 0.596349 0.414930 -0.204609
C16   C     C_R   0.201141 0.419133 0.597578 -0.204280
H5    H     H_    0.667733 0.585920 0.433834 0.150096
H6    H     H_    0.329756 0.439617 0.586817 0.149694
C17   C     C_R   0.783549 0.633763 0.379806 0.427210
C18   C     C_R   0.214356 0.384635 0.635053 0.420702
C19   C     C_R   0.948748 0.646905 0.353011 -0.160640
C20   C     C_R   0.050507 0.355575 0.648969 -0.166039
N1    N     N_R   0.826293 0.515059 0.484468 -0.278222
N2    N     N_R   0.174096 0.485901 0.516286 -0.278916
N3    N     N_R   0.837799 0.481018 0.519032 -0.284615
N4    N     N_R   0.162607 0.519774 0.481580 -0.284914
C21   C     C_R   0.011987 0.465693 0.535815 0.532467
C22   C     C_R   0.988381 0.535213 0.464892 0.533850
C23   C     C_R   0.026781 0.659508 0.106199 -0.171851
C24   C     C_R   0.987311 0.337243 0.895369 -0.154800
H7    H     H_    0.078756 0.697982 0.100166 0.097867
H8    H     H_    0.949700 0.297430 0.901723 0.106792
C25   C     C_R   0.031042 0.624081 0.069719 -0.109205
C26   C     C_R   0.978799 0.372521 0.932013 -0.091257
H9    H     H_    0.082244 0.636721 0.036073 0.119118
H10   H     H_    0.936053 0.359109 0.966096 0.123235
C27   C     C_R   0.969008 0.573101 0.076460 0.119048
C28   C     C_R   0.027344 0.424465 0.924913 0.129042
C29   C     C_R   0.906911 0.558486 0.121217 -0.072542
C30   C     C_R   0.080170 0.440392 0.879886 -0.061740
H11   H     H_    0.866211 0.519081 0.128313 0.114442
H12   H     H_    0.112610 0.480390 0.872955 0.101518
C31   C     C_R   0.893072 0.594815 0.157055 -0.149621
C32   C     C_R   0.094196 0.404759 0.843560 -0.157299
H13   H     H_    0.839572 0.582984 0.190748 0.109238
H14   H     H_    0.138501 0.417719 0.809429 0.090436
C33   C     C_R   0.952541 0.645707 0.149715 -0.038399
C34   C     C_R   0.047858 0.352954 0.851108 -0.039105
C35   C     C_R   0.826122 0.499814 0.027699 0.015933
C36   C     C_R   0.169047 0.497296 0.973802 0.030655
C37   C     C_R   0.851041 0.463403 0.991988 -0.193753
C38   C     C_R   0.143643 0.533844 0.009221 -0.196387
H15   H     H_    0.735132 0.436814 0.984521 0.185921
H16   H     H_    0.259282 0.560583 0.016243 0.171402
C39   C     C_R   0.018492 0.461951 0.964282 -0.024740
C40   C     C_R   0.976652 0.535279 0.037160 -0.014528
C41   C     C_R   0.405618 0.154301 0.613852 -0.275371
C42   C     C_R   0.603939 0.890186 0.350176 -0.269815
H17   H     H_    0.306763 0.186102 0.618181 0.123517
H18   H     H_    0.710832 0.887365 0.322931 0.125933
C43   C     C_R   0.393459 0.120874 0.575010 0.441918
C44   C     C_R   0.616332 0.929093 0.384506 0.436433
C45   C     C_R   0.520923 0.077997 0.572886 0.016966
C46   C     C_R   0.480630 0.928812 0.421590 0.014781
C47   C     C_R   0.663018 0.072141 0.607465 -0.219980
C48   C     C_R   0.329594 0.892507 0.421048 -0.213878
H19   H     H_    0.761644 0.039805 0.606784 0.133064
H20   H     H_    0.224289 0.891197 0.448840 0.134244
C49   C     C_R   0.679221 0.107287 0.643780 -0.180285
C50   C     C_R   0.312883 0.856826 0.385176 -0.187865
H21   H     H_    0.791131 0.101869 0.669483 0.128081
H22   H     H_    0.194433 0.829687 0.385756 0.120197
C51   C     C_R   0.548849 0.148109 0.647662 -0.084526
C52   C     C_R   0.451292 0.854884 0.349865 -0.083961
C53   C     C_R   0.679348 0.017766 0.515465 -0.190002
C54   C     C_R   0.322294 0.987719 0.480079 -0.191463
H23   H     H_    0.820033 0.029297 0.527905 0.113248
H24   H     H_    0.181821 0.977541 0.466577 0.118994
C55   C     C_R   0.670171 0.981067 0.480085 -0.089812
C56   C     C_R   0.331082 0.022360 0.517102 -0.087431
H25   H     H_    0.803717 0.963823 0.468238 0.141196
H26   H     H_    0.196759 0.035580 0.532221 0.140224
C57   C     C_R   0.491773 0.966614 0.460774 0.113883
C58   C     C_R   0.509932 0.039246 0.534454 0.116507
C59   C     C_R   0.711448 0.138147 0.879571 -0.247824
C60   C     C_R   0.628577 0.882221 0.143050 -0.223957
H27   H     H_    0.840402 0.161036 0.874601 0.161096
H28   H     H_    0.754664 0.872546 0.163372 0.190567
C61   C     C_R   0.707139 0.103018 0.916211 -0.110682
C62   C     C_R   0.645203 0.920817 0.109463 -0.134328
H29   H     H_    0.832005 0.099536 0.938544 0.126366
H30   H     H_    0.783630 0.939364 0.104354 0.150274
C63   C     C_R   0.542033 0.073420 0.924647 0.101035
C64   C     C_R   0.485351 0.935321 0.082665 0.071418
C65   C     C_R   0.381022 0.079421 0.895692 -0.233117
C66   C     C_R   0.308269 0.910573 0.090407 -0.160468
H31   H     H_    0.253050 0.057154 0.903401 0.125364
H32   H     H_    0.183054 0.921328 0.070162 0.118437
C67   C     C_R   0.384820 0.113790 0.857412 0.403595
C68   C     C_R   0.289843 0.871618 0.123843 0.422215
C69   C     C_R   0.550880 0.144646 0.850320 -0.120049
C70   C     C_R   0.451782 0.856925 0.150868 -0.162247
C71   C     C_R   0.671697 0.998593 0.972687 0.030636
C72   C     C_R   0.369916 0.014264 0.037724 0.020928
C73   C     C_R   0.656529 0.967630 0.012541 -0.172426
C74   C     C_R   0.384423 0.044963 0.997696 -0.166039
H33   H     H_    0.758248 0.936325 0.017351 0.135850
H34   H     H_    0.281754 0.075956 0.992423 0.148550
C75   C     C_R   0.505586 0.974067 0.044756 0.015581
C76   C     C_R   0.533073 0.037827 0.965079 0.007998
O21   O     O_3   0.260007 0.126937 0.538984 -0.585709
C77   C     C_3   0.171455 0.175908 0.535781 0.072359
H35   H     H_    0.137671 0.182749 0.498647 0.151222
H36   H     H_    0.269679 0.207977 0.545383 0.112683
C78   C     C_3   0.979599 0.176577 0.562658 -0.319073
H37   H     H_    0.874333 0.151183 0.544880 0.207227
H38   H     H_    0.999845 0.161399 0.598297 0.200203
C79   C     C_3   0.896057 0.230795 0.565734 -0.806806
H39   H     H_    0.996690 0.256378 0.584731 0.226012
H40   H     H_    0.756341 0.229802 0.584727 0.228896
H41   H     H_    0.870791 0.246596 0.530464 0.235544
O22   O     O_3   0.762443 0.966071 0.384974 -0.586791
C80   C     C_3   0.832572 0.980479 0.340646 0.068762
H42   H     H_    0.853537 0.022813 0.340957 0.152107
H43   H     H_    0.728914 0.973256 0.311926 0.110380
C81   C     C_3   0.029855 0.955376 0.331813 -0.315626
H44   H     H_    0.135338 0.970175 0.357502 0.209490
H45   H     H_    0.020157 0.913108 0.336406 0.201359
C82   C     C_3   0.104142 0.966768 0.283032 -0.797941
H46   H     H_    0.003604 0.950908 0.256757 0.233079
H47   H     H_    0.248007 0.948548 0.278192 0.231019
H48   H     H_    0.118683 0.008898 0.277759 0.233936
O23   O     O_3   0.227949 0.120528 0.827737 -0.568321
C83   C     C_3   0.122252 0.074833 0.820424 0.046986
H49   H     H_    0.019170 0.069330 0.849575 0.154241
H50   H     H_    0.218775 0.040595 0.817231 0.120719
C84   C     C_3   0.007582 0.079897 0.775439 -0.271225
H51   H     H_    0.924466 0.116375 0.775713 0.222264
H52   H     H_    0.109047 0.080910 0.745495 0.185293
C85   C     C_3   0.867034 0.035286 0.769498 -0.850570
H53   H     H_    0.945931 0.998060 0.769752 0.238577
H54   H     H_    0.790339 0.039214 0.735941 0.225942
H55   H     H_    0.758087 0.035505 0.797876 0.257373
O24   O     O_3   0.108865 0.851103 0.131923 -0.577686
C86   C     C_3   0.082376 0.806625 0.104524 0.084539
H56   H     H_    0.979044 0.781651 0.123561 0.141446
H57   H     H_    0.217727 0.783772 0.099814 0.083372
C87   C     C_3   0.994288 0.820265 0.057294 -0.346378
H58   H     H_    0.867825 0.845953 0.062330 0.210612
H59   H     H_    0.102617 0.840657 0.035628 0.195624
C88   C     C_3   0.929240 0.772318 0.031297 -0.803785
H60   H     H_    0.054383 0.746564 0.024601 0.230158
H61   H     H_    0.865488 0.783683 0.997510 0.241718
H62   H     H_    0.818158 0.751279 0.051677 0.230336
C89   C     C_2   0.826507 0.986644 0.938572 0.727197
O25   O     O_2   0.982130 0.970042 0.951958 -0.564033
O26   O     O_R   0.792928 0.992555 0.891085 -0.670818
H63   H     H_    0.907792 0.981693 0.871511 0.286591
C90   C     C_2   0.216776 0.026732 0.072202 0.744963
O27   O     O_2   0.063843 0.045503 0.059345 -0.557728
O28   O     O_R   0.248489 0.018280 0.119481 -0.657230
H64   H     H_    0.133137 0.028193 0.139305 0.300891
O29   O     O_3   0.603904 0.654487 0.370307 -0.581198
C91   C     C_3   0.583033 0.702610 0.392708 0.101548
H65   H     H_    0.474312 0.724979 0.372837 0.141158
H66   H     H_    0.718354 0.725863 0.392415 0.084297
C92   C     C_3   0.508564 0.695884 0.442479 -0.351537
H67   H     H_    0.381794 0.669773 0.442647 0.215151
H68   H     H_    0.623537 0.678530 0.464277 0.192682
C93   C     C_3   0.449384 0.747350 0.463575 -0.809330
H69   H     H_    0.572105 0.774786 0.462570 0.234344
H70   H     H_    0.404844 0.741568 0.500230 0.236197
H71   H     H_    0.325460 0.763868 0.444253 0.225981
O30   O     O_3   0.392269 0.377729 0.655835 -0.581326
C94   C     C_3   0.403952 0.408020 0.696518 0.103138
H72   H     H_    0.492700 0.386358 0.721979 0.157910
H73   H     H_    0.261269 0.415023 0.713625 0.077994
C95   C     C_3   0.504429 0.459169 0.686164 -0.343940
H74   H     H_    0.644869 0.451739 0.668647 0.214610
H75   H     H_    0.413002 0.482692 0.662683 0.196203
C96   C     C_3   0.540538 0.489402 0.730602 -0.814024
H76   H     H_    0.401776 0.497659 0.748579 0.232084
H77   H     H_    0.611801 0.526425 0.721989 0.238304
H78   H     H_    0.636287 0.467266 0.754210 0.229246
C97   C     C_2   0.637315 0.501168 0.052441 0.745036
O31   O     O_2   0.544316 0.461593 0.057448 -0.553956
O32   O     O_R   0.562786 0.547662 0.069055 -0.663033
H79   H     H_    0.437541 0.543056 0.086880 0.293165
C98   C     C_2   0.359160 0.495749 0.949653 0.736002
O33   O     O_2   0.422995 0.455237 0.934484 -0.561276
O34   O     O_R   0.469136 0.540612 0.945735 -0.666468
H80   H     H_    0.596997 0.534606 0.929361 0.296699

loop_
_geom_bond_atom_site_label_1
_geom_bond_atom_site_label_2
_ccdc_geom_bond_type
C24   C26   A    
C78   C79   S    
C28   C30   A    
C94   H72   S    
C73   C75   A    
C84   H51   S    
C13   C15   A    
C77   C78   S    
O4    C2    A    
V1    O19   S    
C54   H24   S    
O23   C83   S    
C24   C34   A    
C17   C19   A    
C97   O31   D    
C94   H73   S    
O9    V1    S    
C82   H46   S    
C59   C69   A    
C11   C13   A    
C77   H36   S    
C83   H49   S    
O3    C1    A    
C61   H29   S    
C36   C98   S    
C36   C38   A    
C85   H54   S    
C23   H7    S    
C48   C50   A    
C9    C19   A    
C78   H37   S    
C83   C84   S    
C18   O30   S    
C96   H78   S    
O13   V3    S    
N1    C22   A    
C62   C64   A    
C80   C81   S    
C71   C89   S    
C23   C25   A    
C25   H9    S    
O7    C3    A    
C47   H19   S    
C26   H10   S    
C96   H77   S    
C28   C39   S    
O5    C7    A    
C8    C20   S    
C36   C39   A    
O7    V1    S    
C85   H55   S    
O6    C8    A    
C16   H6    S    
C43   O21   S    
C1    C52   S    
C80   H42   S    
O3    V1    S    
C93   H69   S    
O14   V4    S    
C43   C45   A    
C2    C51   S    
C29   C31   A    
N2    C21   A    
C38   C40   A    
C66   C68   A    
C92   C93   S    
C18   C20   A    
C81   H45   S    
C67   O23   S    
C88   H61   S    
V3    O19   S    
C60   C70   A    
C84   H52   S    
C14   C16   A    
C72   C90   S    
O1    V3    S    
O18   C8    A    
C49   H21   S    
N2    N4    A    
O11   V3    S    
C83   H50   S    
N3    C21   A    
O17   V3    S    
C44   C46   A    
C94   C95   S    
N4    C22   A    
C31   C33   A    
C10   C20   A    
O30   C94   S    
C26   C28   A    
C42   H18   S    
C35   C97   S    
O29   C91   S    
V4    O20   S    
C91   C92   S    
C16   C18   A    
C77   H35   S    
C30   C32   A    
C81   C82   S    
C32   H14   S    
C42   C44   A    
O8    V2    S    
O34   H80   S    
C31   H13   S    
C41   C43   A    
C95   H74   S    
C6    C34   S    
C27   C40   S    
C74   H34   S    
C1    O11   A    
C35   C40   A    
C27   C29   A    
C98   O33   D    
C86   H56   S    
O15   V3    S    
C9    C11   A    
C56   C58   A    
C59   H27   S    
C53   C58   A    
C29   H11   S    
C91   H66   S    
C45   C58   S    
C82   H47   S    
C89   O25   D    
C67   C69   A    
C13   C22   S    
C14   C21   S    
C45   C47   A    
C79   H41   S    
C65   C67   A    
C3    C70   S    
O10   V2    S    
C93   H71   S    
C46   C48   A    
C96   H76   S    
C35   C37   A    
C32   C34   A    
C53   H23   S    
C48   H20   S    
C15   H5    S    
C81   H44   S    
C60   C62   A    
C86   H57   S    
C72   C74   A    
C59   C61   A    
C38   H16   S    
C85   H53   S    
C68   O24   S    
C82   H48   S    
C50   H22   S    
O15   C5    A    
O8    C4    A    
O17   C7    A    
O16   C6    A    
O1    C3    A    
C87   C88   S    
O12   V4    S    
C64   C66   A    
C42   C52   A    
C47   C49   A    
C54   C56   A    
C63   C65   A    
C41   C51   A    
O24   C86   S    
O21   C77   S    
C66   H32   S    
C79   H39   S    
V2    O20   S    
C86   C87   S    
C78   H38   S    
C87   H58   S    
C79   H40   S    
O16   V4    S    
C10   C12   A    
C55   C57   A    
C64   C75   S    
C5    C33   S    
C71   C73   A    
C63   C76   S    
C68   C70   A    
C74   C76   A    
C54   C57   A    
C60   H28   S    
C44   O22   S    
C46   C57   S    
O18   V4    S    
C84   C85   S    
O5    V1    S    
O4    V2    S    
C61   C63   A    
C98   O34   S    
O6    V2    S    
O10   C6    A    
C37   H15   S    
O2    V4    S    
C53   C55   A    
C91   H65   S    
C88   H62   S    
C89   O26   S    
C72   C75   A    
C97   O32   S    
C90   O27   D    
C11   H3    S    
C71   C76   A    
C50   C52   A    
C92   H67   S    
C12   H4    S    
C95   C96   S    
C23   C33   A    
O26   H63   S    
C55   H25   S    
C15   C17   A    
O9    C5    A    
C9    H1    S    
C10   H2    S    
C56   H26   S    
O14   V2    S    
C80   H43   S    
O32   H79   S    
C17   O29   S    
O28   H64   S    
O2    C4    A    
C62   H30   S    
C90   O28   S    
C65   H31   S    
C12   C14   A    
C88   H60   S    
C37   C39   A    
O13   V1    S    
C25   C27   A    
C41   H17   S    
C2    O12   A    
C73   H33   S    
C30   H12   S    
O22   C80   S    
C93   H70   S    
N1    N3    A    
C95   H75   S    
C24   H8    S    
C49   C51   A    
C7    C19   S    
C87   H59   S    
C92   H68   S    
C4    C69   S    
