data_mof_unit_45951.cif
_audit_creation_date              2012-12-10T19:00:45-0500
_audit_creation_method            fapswitch 2.2
_symmetry_space_group_name_H-M    P1
_symmetry_Int_Tables_number       1
_space_group_crystal_system       triclinic
_cell_length_a                    15.079033
_cell_length_b                    10.842275
_cell_length_c                    9.532946
_cell_angle_alpha                 90.031328
_cell_angle_beta                  90.002831
_cell_angle_gamma                 90.037868
_cell_volume                      1558.55051386

loop_
_atom_site_label
_atom_site_type_symbol
_atom_type_description
_atom_site_fract_x
_atom_site_fract_y
_atom_site_fract_z
_atom_type_partial_charge
C1    C     C_R   0.500255 0.262703 0.500117 0.872098
C2    C     C_R   0.907088 0.497136 0.371535 0.110150
C3    C     C_R   0.953788 0.500641 0.755750 -0.202270
C4    C     C_R   0.046247 0.500868 0.755746 -0.185800
C5    C     C_R   0.092924 0.499909 0.628571 0.101238
C6    C     C_R   0.046487 0.498353 0.500061 0.061695
C7    C     C_R   0.092913 0.497194 0.371544 0.111242
C8    C     C_R   0.046224 0.495756 0.244372 -0.186386
C9    C     C_R   0.953768 0.495762 0.244367 -0.201239
C10   C     C_R   0.185301 0.500692 0.627652 -0.171764
C11   C     C_R   0.231688 0.499472 0.500042 -0.057491
C12   C     C_R   0.328576 0.499956 0.500012 0.866734
C13   C     C_R   0.185299 0.497643 0.372446 -0.219154
C14   C     C_R   0.473227 0.060976 0.611313 -0.057172
C15   C     C_R   0.505424 0.130307 0.500275 -0.147055
C16   C     C_R   0.546183 0.066876 0.388521 -0.184510
C17   C     C_R   0.551736 0.937386 0.388649 0.407045
C18   C     C_R   0.511316 0.869788 0.500023 -0.167033
C19   C     C_R   0.475756 0.936732 0.610460 -0.057092
C20   C     C_3   0.420929 0.923831 0.739838 0.185454
C21   C     C_3   0.418986 0.066699 0.742616 0.359326
C22   C     C_R   0.572905 0.463073 0.073580 0.255514
C23   C     C_R   0.503772 0.737177 0.499904 0.802419
C24   C     C_R   0.431499 0.551287 0.074447 -0.041966
C25   C     C_R   0.431448 0.551121 0.925552 -0.041969
C26   C     C_R   0.573030 0.463454 0.926159 0.251319
C27   C     C_3   0.615152 0.339322 0.919439 -0.489212
C28   C     C_3   0.614249 0.338285 0.078663 -0.496964
C29   C     C_R   0.671426 0.499750 0.499998 0.791003
C30   C     C_R   0.814703 0.497631 0.372425 -0.242354
C31   C     C_R   0.768316 0.499109 0.500026 -0.067403
C32   C     C_R   0.814708 0.499919 0.627652 -0.241788
C33   C     C_R   0.907096 0.499532 0.628573 0.109573
C34   C     C_R   0.953525 0.498245 0.500058 0.068464
Cu1   Cu    Cu3+1 0.500000 0.499980 0.640670 0.973659
Cu2   Cu    Cu3+1 0.500000 0.500020 0.359330 0.967580
H1    H     H_    0.779079 0.497035 0.273626 0.151047
H2    H     H_    0.456916 0.881109 0.829531 0.075106
H3    H     H_    0.456136 0.106969 0.832282 0.017614
H4    H     H_    0.375445 0.589721 0.129982 0.142529
H5    H     H_    0.375279 0.589188 0.870099 0.129000
H6    H     H_    0.571171 0.268348 0.872189 0.217700
H7    H     H_    0.683131 0.343242 0.874597 0.188933
H8    H     H_    0.568854 0.267481 0.122521 0.220099
H9    H     H_    0.779084 0.501150 0.726441 0.150685
H10   H     H_    0.681684 0.340322 0.125672 0.190678
H11   H     H_    0.918813 0.501521 0.855063 0.136621
H12   H     H_    0.081231 0.501916 0.855054 0.141666
H13   H     H_    0.220920 0.502348 0.726448 0.165282
H14   H     H_    0.220928 0.496669 0.273647 0.154429
H15   H     H_    0.081195 0.494802 0.145057 0.141147
H16   H     H_    0.918787 0.494809 0.145052 0.136670
H17   H     H_    0.576001 0.117441 0.302821 0.162947
N1    N     N_R   0.500570 0.500930 0.147930 -0.188659
N2    N     N_R   0.500570 0.500890 0.852020 -0.184042
O1    O     O_R   0.500000 0.319640 0.618810 -0.565275
O2    O     O_R   0.500010 0.319680 0.381230 -0.585837
O3    O     O_R   0.370250 0.499950 0.618800 -0.567476
O4    O     O_R   0.370260 0.499990 0.381220 -0.594924
O5    O     O_R   0.499990 0.680320 0.618770 -0.600330
O6    O     O_R   0.500000 0.680360 0.381190 -0.566633
O7    O     O_R   0.629740 0.500010 0.618780 -0.593070
O8    O     O_R   0.629750 0.500050 0.381200 -0.597255
O9    O     O_3   0.597776 0.882342 0.280438 -0.722276
H18   H     H_    0.623910 0.804481 0.315413 0.326406
O10   O     O_3   0.338411 0.869859 0.710401 -0.621690
H19   H     H_    0.347419 0.779437 0.716363 0.319749
S1    S     S_3+6 0.311867 0.135256 0.716749 0.058554
O11   O     O_2   0.318642 0.271584 0.742108 -0.317325
O12   O     O_2   0.279771 0.112220 0.569696 -0.249185
O13   O     O_3   0.239568 0.074405 0.831821 -0.476494
H20   H     H_    0.183233 0.118915 0.814778 0.367716

loop_
_geom_bond_atom_site_label_1
_geom_bond_atom_site_label_2
_ccdc_geom_bond_type
C8    C9    A    
C29   O8    A    
C11   C13   A    
C32   H9    S    
C19   C20   S    
Cu2   O4    S    
C26   N2    A    
C7    C8    A    
C22   N1    A    
C28   H10   S    
C26   C27   S    
Cu1   O3    S    
C14   C21   S    
C20   O10   S    
C1    O1    A    
C17   O9    S    
C5    C6    A    
C3    C33   A    
C24   N1    A    
C15   C16   A    
C18   C19   A    
C16   H17   S    
C12   O4    A    
Cu1   Cu2   S    
C16   C17   A    
C1    C15   S    
Cu2   O8    S    
C12   O3    A    
C2    C34   A    
O10   H19   S    
C22   C28   S    
C9    H16   S    
C17   C18   A    
C23   O5    A    
Cu1   N2    S    
C18   C23   S    
C24   C25   A    
Cu2   O2    S    
C25   H5    S    
S1    O11   D    
C28   H8    S    
C6    C34   A    
C30   H1    S    
Cu1   O5    S    
C1    O2    A    
C20   H2    S    
C31   C32   A    
C21   H3    S    
C7    C13   A    
C33   C34   A    
C8    H15   S    
C21   S1    S    
C3    C4    A    
C4    H12   S    
C29   O7    A    
Cu1   O1    S    
C14   C19   A    
C25   N2    A    
C4    C5    A    
C11   C12   S    
C6    C7    A    
C2    C30   A    
C32   C33   A    
C5    C10   A    
C29   C31   S    
O9    H18   S    
C10   H13   S    
C27   H6    S    
C30   C31   A    
S1    O13   S    
C3    H11   S    
C24   H4    S    
Cu1   O7    S    
Cu2   N1    S    
C10   C11   A    
C13   H14   S    
C27   H7    S    
C23   O6    A    
O13   H20   S    
C20   C21   S    
S1    O12   D    
C22   C26   A    
C27   C28   S    
C14   C15   A    
C2    C9    A    
Cu2   O6    S    
