data_mof_unit_17450.cif
_audit_creation_date              2012-12-11T15:44:59-0500
_audit_creation_method            fapswitch 2.2
_symmetry_space_group_name_H-M    P1
_symmetry_Int_Tables_number       1
_space_group_crystal_system       triclinic
_cell_length_a                    19.178612
_cell_length_b                    11.085878
_cell_length_c                    18.787937
_cell_angle_alpha                 89.741399
_cell_angle_beta                  89.860832
_cell_angle_gamma                 90.306056
_cell_volume                      3994.42652403

loop_
_atom_site_label
_atom_site_type_symbol
_atom_type_description
_atom_site_fract_x
_atom_site_fract_y
_atom_site_fract_z
_atom_type_partial_charge
C1    C     C_R   0.760496 0.534246 0.646838 0.556694
C2    C     C_R   0.188163 0.043068 0.541349 -0.161841
C3    C     C_R   0.532523 0.930785 0.955917 -0.009947
C4    C     C_R   0.933266 0.304458 0.978794 0.258482
C5    C     C_R   0.946850 0.308906 0.051789 0.249143
C6    C     C_R   0.484976 0.728353 0.966463 0.263216
C7    C     C_R   0.485486 0.738739 0.040975 0.235762
C8    C     C_3   0.115371 0.460753 0.014028 -0.243312
C9    C     C_3   0.100640 0.457034 0.934874 -0.260881
C10   C     C_3   0.521451 0.066163 0.030641 -0.214434
C11   C     C_3   0.519056 0.063744 0.950391 -0.226870
C12   C     C_R   0.773392 0.487686 0.859918 0.635983
C13   C     C_R   0.315359 0.575366 0.453834 -0.165430
C14   C     C_R   0.240830 0.533921 0.148808 0.561787
C15   C     C_R   0.261108 0.028274 0.853320 0.591767
C16   C     C_R   0.738464 0.027298 0.145915 0.615997
C17   C     C_R   0.769972 0.121891 0.850610 0.599313
C18   C     C_R   0.210338 0.168485 0.139814 0.543511
C19   C     C_R   0.273937 0.630992 0.854692 0.564128
C20   C     C_R   0.727977 0.624261 0.148154 0.554045
C21   C     C_R   0.967977 0.346421 0.854178 0.598008
C22   C     C_R   0.031957 0.347439 0.146386 0.595608
C23   C     C_R   0.470160 0.845613 0.853231 0.627935
C24   C     C_R   0.688160 0.543083 0.541357 -0.162011
C25   C     C_R   0.531108 0.847679 0.146098 0.573293
C26   C     C_R   0.750320 0.088826 0.421787 0.011372
C27   C     C_R   0.246214 0.087504 0.578118 0.012431
C28   C     C_R   0.250312 0.588808 0.421793 0.009916
C29   C     C_R   0.746208 0.587522 0.578129 0.013688
C30   C     C_R   0.692159 0.114259 0.463882 0.034607
C31   C     C_R   0.297671 0.150667 0.541127 0.040557
C32   C     C_R   0.192150 0.614234 0.463889 0.035614
C33   C     C_R   0.797662 0.650694 0.541140 0.038074
C34   C     C_R   0.698721 0.122580 0.537602 0.003628
C35   C     C_3   0.652034 0.228733 0.460066 -0.272280
C36   C     C_R   0.291722 0.162215 0.467124 0.019202
C37   C     C_R   0.198713 0.622560 0.537608 0.002060
C38   C     C_R   0.791714 0.662244 0.467136 0.019302
C39   C     C_3   0.309110 0.283043 0.549706 -0.277662
C40   C     C_3   0.152013 0.728696 0.460072 -0.272902
C41   C     C_3   0.809096 0.783069 0.549726 -0.274537
C42   C     C_3   0.659752 0.238007 0.539647 -0.266653
C43   C     C_3   0.299852 0.295722 0.470725 -0.238017
C44   C     C_3   0.159732 0.737976 0.539654 -0.266151
C45   C     C_R   0.239152 0.534171 0.353071 0.543035
C46   C     C_3   0.799839 0.795753 0.470745 -0.239485
C47   C     C_R   0.762789 0.100587 0.570205 0.008698
C48   C     C_R   0.239166 0.101268 0.429604 0.007575
C49   C     C_R   0.262784 0.600579 0.570209 0.007921
C50   C     C_R   0.739161 0.601290 0.429613 0.010060
C51   C     C_R   0.989409 0.331352 0.420806 -0.036800
C52   C     C_R   0.997089 0.343053 0.571122 -0.036212
C53   C     C_R   0.489402 0.831369 0.420800 -0.038995
C54   C     C_R   0.497087 0.843056 0.571115 -0.033655
C55   C     C_R   0.994287 0.109088 0.428698 -0.089441
C56   C     C_R   0.260501 0.034228 0.646827 0.540754
C57   C     C_R   0.017836 0.123507 0.574515 -0.087523
C58   C     C_R   0.494265 0.609108 0.428679 -0.089697
C59   C     C_R   0.517836 0.623515 0.574489 -0.087506
C60   C     C_R   0.002918 0.004303 0.468763 -0.157493
C61   C     C_R   0.015543 0.011852 0.541354 -0.151204
C62   C     C_R   0.502911 0.504319 0.468734 -0.156326
C63   C     C_R   0.515547 0.511863 0.541322 -0.152491
C64   C     C_R   0.003459 0.230357 0.536295 0.005709
C65   C     C_R   0.996139 0.223746 0.461211 0.013466
C66   C     C_R   0.503450 0.730365 0.536281 0.006518
C67   C     C_R   0.739155 0.034181 0.353066 0.549803
C68   C     C_R   0.496122 0.723760 0.461199 0.013146
C69   C     C_R   0.990511 0.449492 0.528630 0.022479
C70   C     C_R   0.973751 0.438783 0.456174 0.012076
C71   C     C_R   0.490518 0.949501 0.528629 0.023417
C72   C     C_R   0.473758 0.938804 0.456172 0.012328
C73   C     C_R   0.775404 0.129921 0.644218 0.543323
C74   C     C_R   0.224724 0.130166 0.355892 0.554514
C75   C     C_R   0.275402 0.629919 0.644220 0.537828
C76   C     C_R   0.724722 0.630175 0.355897 0.550741
C77   C     C_R   0.999131 0.567506 0.555817 -0.067750
C78   C     C_R   0.821247 0.077682 0.527110 -0.154498
C79   C     C_R   0.949343 0.540280 0.418345 -0.064530
C80   C     C_R   0.499151 0.067507 0.555821 -0.067536
C81   C     C_R   0.449362 0.040314 0.418346 -0.064455
C82   C     C_R   0.979840 0.668012 0.516023 -0.141226
C83   C     C_R   0.954786 0.654405 0.447385 -0.117959
C84   C     C_R   0.479871 0.168023 0.516030 -0.141825
C85   C     C_R   0.454817 0.154433 0.447391 -0.116699
C86   C     C_R   0.743668 0.054467 0.070016 0.097945
C87   C     C_R   0.249702 0.074330 0.924728 0.010116
C88   C     C_R   0.257978 0.585116 0.078959 0.028973
C89   C     C_R   0.186812 0.042720 0.468292 -0.158877
C90   C     C_R   0.768724 0.521767 0.935015 0.077870
C91   C     C_R   0.772771 0.967205 0.025481 -0.025741
C92   C     C_R   0.182527 0.106430 0.946016 -0.010374
C93   C     C_R   0.305966 0.520986 0.036983 0.117278
C94   C     C_R   0.704077 0.506981 0.966284 0.012895
C95   C     C_R   0.773264 0.978278 0.952827 -0.014934
C96   C     C_R   0.169551 0.140780 0.016413 -0.057314
C97   C     C_R   0.305609 0.530813 0.964338 0.077896
C98   C     C_R   0.693557 0.532597 0.036584 0.080558
C99   C     C_R   0.703689 0.156637 0.962600 -0.092357
C100  C     C_R   0.321240 0.577668 0.527113 -0.153287
C101  C     C_R   0.287882 0.088724 0.047432 -0.065399
C102  C     C_R   0.221185 0.688413 0.971213 -0.101043
C103  C     C_R   0.814891 0.579112 0.051885 -0.088719
C104  C     C_R   0.705481 0.147647 0.037446 0.221665
C105  C     C_R   0.299009 0.050631 0.978196 0.189951
C106  C     C_R   0.219396 0.677521 0.045923 0.199703
C107  C     C_R   0.825494 0.560231 0.978666 0.219813
C108  C     C_3   0.839077 0.897074 0.025849 0.013882
C109  C     C_3   0.121923 0.020357 0.947970 -0.011765
C110  C     C_3   0.317683 0.387668 0.031439 0.005383
C111  C     C_R   0.686809 0.542737 0.468299 -0.158638
C112  C     C_3   0.638165 0.566754 0.943926 -0.047013
C113  C     C_3   0.840045 0.910999 0.945179 -0.191329
C114  C     C_3   0.104118 0.066804 0.020437 -0.196468
C115  C     C_3   0.316771 0.400256 0.951447 -0.246246
C116  C     C_3   0.625753 0.592324 0.021788 -0.210877
C117  C     C_R   0.744263 0.078288 0.919667 0.031593
C118  C     C_R   0.223540 0.136440 0.066616 -0.022425
C119  C     C_R   0.260993 0.608504 0.929684 -0.035554
C120  C     C_R   0.747480 0.573177 0.080005 0.019276
C121  C     C_R   0.970744 0.347169 0.645955 0.521875
C122  C     C_R   0.815367 0.075386 0.453829 -0.164615
C123  C     C_R   0.026539 0.344386 0.351587 0.538852
C124  C     C_R   0.470743 0.847170 0.645951 0.528688
C125  C     C_R   0.526539 0.844390 0.351586 0.531212
C126  C     C_R   0.013494 0.340767 0.073348 0.008653
C127  C     C_R   0.985570 0.334031 0.928195 0.058499
C128  C     C_R   0.510989 0.843927 0.072149 0.013352
C129  C     C_R   0.501229 0.831430 0.923354 0.062615
C130  C     C_R   0.066013 0.358641 0.022902 -0.054613
C131  C     C_R   0.052590 0.354986 0.951202 -0.028450
C132  C     C_R   0.537725 0.935248 0.028600 -0.040430
Cl1   Cl    Cl    0.668901 0.264119 0.088608 -0.575053
Cl2   Cl    Cl    0.359255 0.935631 0.968050 -0.654622
Cl3   Cl    Cl    0.164923 0.773289 0.095039 -0.602287
Cl4   Cl    Cl    0.907667 0.601874 0.945145 -0.614101
Cl5   Cl    Cl    0.848521 0.279117 0.952688 -0.594193
Cl6   Cl    Cl    0.879470 0.289341 0.115498 -0.515088
Cl7   Cl    Cl    0.464082 0.585973 0.930316 -0.570792
Cl8   Cl    Cl    0.449943 0.625031 0.095810 -0.518935
Cr1   Cr    Cr6+3 0.885860 0.491680 0.749630 1.081481
Cr2   Cr    Cr6+3 0.112430 0.179310 0.249850 1.056888
Cr3   Cr    Cr6+3 0.387570 0.679310 0.750150 1.076880
Cr4   Cr    Cr6+3 0.612430 0.679310 0.249850 1.077509
Cr5   Cr    Cr6+3 0.114140 0.491680 0.250370 1.072046
Cr6   Cr    Cr6+3 0.385860 0.991680 0.749630 1.038973
Cr7   Cr    Cr6+3 0.614140 0.991680 0.250370 1.069323
Cr8   Cr    Cr6+3 0.730490 0.332970 0.748720 1.023348
Cr9   Cr    Cr6+3 0.269510 0.332970 0.251280 1.048811
Cr10  Cr    Cr6+3 0.230490 0.832970 0.748720 1.037048
Cr11  Cr    Cr6+3 0.769510 0.832970 0.251280 1.039283
Cr12  Cr    Cr6+3 0.887570 0.179310 0.750150 1.062737
H1    H     H_    0.872390 0.064772 0.549754 0.168109
H2    H     H_    0.326650 0.069712 0.087800 0.181637
H3    H     H_    0.190483 0.756379 0.945399 0.161321
H4    H     H_    0.857663 0.610031 0.084805 0.169851
H5    H     H_    0.829541 0.804047 0.043614 0.141952
H6    H     H_    0.138607 0.925482 0.950507 0.171056
H7    H     H_    0.272286 0.339019 0.052362 0.093094
H8    H     H_    0.600895 0.500583 0.921026 0.207169
H9    H     H_    0.883989 0.967607 0.925456 0.219166
H10   H     H_    0.056240 0.121626 0.020931 0.166487
H11   H     H_    0.367592 0.381817 0.925381 0.214598
H12   H     H_    0.142441 0.001632 0.442456 0.157373
H13   H     H_    0.626937 0.689759 0.035328 0.129394
H14   H     H_    0.832373 0.824510 0.916587 0.181368
H15   H     H_    0.105064 0.995875 0.062183 0.225438
H16   H     H_    0.271027 0.355634 0.926337 0.085250
H17   H     H_    0.581658 0.539550 0.044630 0.232751
H18   H     H_    0.168487 0.431064 0.027262 0.099305
H19   H     H_    0.073255 0.538533 0.914862 0.195355
H20   H     H_    0.564545 0.120442 0.052242 0.209197
H21   H     H_    0.467062 0.089538 0.929849 0.214948
H22   H     H_    0.096689 0.544157 0.040321 0.214316
H23   H     H_    0.372385 0.564759 0.549755 0.167491
H24   H     H_    0.146130 0.428030 0.902594 0.128319
H25   H     H_    0.469922 0.082005 0.055821 0.194829
H26   H     H_    0.563204 0.112853 0.924957 0.134507
H27   H     H_    0.860533 0.052830 0.422341 0.141714
H28   H     H_    0.146471 0.997311 0.569014 0.146861
H29   H     H_    0.360524 0.552806 0.422346 0.141109
H30   H     H_    0.646469 0.497316 0.569019 0.146471
H31   H     H_    0.097816 0.713464 0.441936 0.158842
H32   H     H_    0.862695 0.804824 0.568018 0.143797
H33   H     H_    0.597835 0.213519 0.441927 0.159109
H34   H     H_    0.642441 0.501643 0.442462 0.157555
H35   H     H_    0.362711 0.304796 0.567993 0.141932
H36   H     H_    0.680622 0.299971 0.430003 0.141829
H37   H     H_    0.267165 0.327558 0.580889 0.137614
H38   H     H_    0.180593 0.799942 0.430009 0.140883
H39   H     H_    0.767147 0.827574 0.580912 0.143094
H40   H     H_    0.694641 0.312243 0.556095 0.173129
H41   H     H_    0.250622 0.342454 0.456690 0.155311
H42   H     H_    0.194613 0.812223 0.556101 0.174127
H43   H     H_    0.750609 0.842483 0.456709 0.155247
H44   H     H_    0.610302 0.231092 0.569862 0.125164
H45   H     H_    0.985131 0.756564 0.538314 0.092800
H46   H     H_    0.346792 0.330120 0.442882 0.145795
H47   H     H_    0.110283 0.731048 0.569870 0.126180
H48   H     H_    0.846781 0.830157 0.442906 0.145505
H49   H     H_    0.001455 0.917438 0.442981 0.105057
H50   H     H_    0.025884 0.931835 0.572392 0.101464
H51   H     H_    0.501452 0.417459 0.442948 0.105856
H52   H     H_    0.525904 0.431846 0.572353 0.098148
H53   H     H_    0.982324 0.098725 0.372845 0.143125
H54   H     H_    0.032677 0.125005 0.629978 0.143572
H55   H     H_    0.482296 0.598752 0.372827 0.143812
H56   H     H_    0.942154 0.732127 0.415290 0.101757
H57   H     H_    0.532688 0.625018 0.629946 0.142327
H58   H     H_    0.929973 0.532021 0.364434 0.138827
H59   H     H_    0.023167 0.584095 0.606826 0.137133
H60   H     H_    0.429992 0.032072 0.364435 0.135648
H61   H     H_    0.523189 0.084081 0.606830 0.136292
H62   H     H_    0.485169 0.256570 0.538325 0.091530
H63   H     H_    0.442194 0.232163 0.415298 0.102738
H64   H     H_    0.679102 0.235222 0.939406 0.161288
I1    I     I_    0.927028 0.979618 0.076245 -0.258709
I2    I     I_    0.046656 0.045043 0.866653 -0.355454
I3    I     I_    0.415557 0.327421 0.072384 -0.262647
I4    I     I_    0.657630 0.727008 0.880448 -0.435127
O1    O     O_R   0.957020 0.451640 0.669920 -0.530069
O2    O     O_R   0.168040 0.093290 0.169870 -0.468150
O3    O     O_R   0.331960 0.593290 0.830130 -0.462673
O4    O     O_R   0.668040 0.593290 0.169870 -0.472122
O5    O     O_R   0.945600 0.250580 0.824860 -0.459203
O6    O     O_R   0.054400 0.250580 0.175140 -0.502469
O7    O     O_R   0.445600 0.750580 0.824860 -0.433941
O8    O     O_R   0.554400 0.750580 0.175140 -0.465803
O9    O     O_3   0.834640 0.334650 0.749500 -0.277779
O10   O     O_3   0.165360 0.334650 0.250500 -0.302827
O11   O     O_3   0.334640 0.834650 0.749500 -0.260631
O12   O     O_R   0.042980 0.451640 0.330080 -0.512829
O13   O     O_3   0.665360 0.834650 0.250500 -0.289048
O14   O     O_R   0.821450 0.543440 0.674610 -0.489986
O15   O     O_R   0.178550 0.543440 0.325390 -0.487271
O16   O     O_R   0.321450 0.043440 0.674610 -0.497220
O17   O     O_R   0.678550 0.043440 0.325390 -0.486578
O18   O     O_R   0.715320 0.458650 0.668100 -0.537934
O19   O     O_R   0.284680 0.458650 0.331900 -0.532636
O20   O     O_R   0.215320 0.958650 0.668100 -0.537894
O21   O     O_R   0.784680 0.958650 0.331900 -0.533047
O22   O     O_R   0.737170 0.209590 0.674530 -0.511252
O23   O     O_R   0.457020 0.951640 0.669920 -0.529134
O24   O     O_R   0.262830 0.209590 0.325470 -0.500267
O25   O     O_R   0.237170 0.709590 0.674530 -0.507692
O26   O     O_R   0.762830 0.709590 0.325470 -0.505110
O27   O     O_R   0.832710 0.092740 0.669580 -0.526090
O28   O     O_R   0.167290 0.092740 0.330420 -0.514934
O29   O     O_R   0.332710 0.592740 0.669580 -0.532848
O30   O     O_R   0.667290 0.592740 0.330420 -0.516785
O31   O     O_R   0.946290 0.250060 0.676040 -0.506199
O32   O     O_R   0.053710 0.250060 0.323960 -0.506374
O33   O     O_R   0.446290 0.750060 0.676040 -0.510228
O34   O     O_R   0.542980 0.951640 0.330080 -0.514641
O35   O     O_R   0.553710 0.750060 0.323960 -0.505653
O36   O     O_R   0.956270 0.452200 0.830470 -0.468490
O37   O     O_R   0.043730 0.452200 0.169530 -0.495750
O38   O     O_R   0.456270 0.952200 0.830470 -0.513594
O39   O     O_R   0.543730 0.952200 0.169530 -0.517310
O40   O     O_R   0.820760 0.543950 0.823440 -0.445559
O41   O     O_R   0.179240 0.543950 0.176560 -0.465126
O42   O     O_R   0.320760 0.043950 0.823440 -0.479216
O43   O     O_R   0.679240 0.043950 0.176560 -0.469198
O44   O     O_R   0.714570 0.459210 0.828640 -0.508450
O45   O     O_R   0.736470 0.210100 0.823360 -0.518849
O46   O     O_R   0.285430 0.459210 0.171360 -0.487541
O47   O     O_R   0.214570 0.959210 0.828640 -0.500775
O48   O     O_R   0.785430 0.959210 0.171360 -0.487510
O49   O     O_R   0.263530 0.210100 0.176640 -0.496654
O50   O     O_R   0.236470 0.710100 0.823360 -0.509344
O51   O     O_R   0.763530 0.710100 0.176640 -0.520853
O52   O     O_R   0.831960 0.093290 0.830130 -0.477069

loop_
_geom_bond_atom_site_label_1
_geom_bond_atom_site_label_2
_ccdc_geom_bond_type
C58   C62   A    
Cr10  O25   S    
C66   C68   A    
Cr5   O10   S    
C97   C119  A    
C79   H58   S    
C51   C123  S    
C6    C7    A    
C59   H57   S    
C69   C77   A    
C103  C120  A    
C34   C42   S    
Cr9   O10   S    
C80   C84   A    
C86   C104  A    
Cr10  O50   S    
Cr11  O26   S    
Cr6   O42   S    
C85   H63   S    
C67   O21   A    
C114  H15   S    
C102  C119  A    
Cr4   O4    S    
C95   C117  A    
C101  H2    S    
C10   C132  S    
C76   O30   A    
C83   H56   S    
Cr4   O13   S    
Cr7   O39   S    
Cr8   O18   S    
C26   C67   S    
C77   C82   A    
C96   C118  A    
C25   C128  S    
C95   C113  S    
C90   C107  A    
C15   O47   A    
C86   C91   A    
C6    C129  A    
C59   C66   A    
Cr3   O3    S    
C7    Cl8   S    
C39   H37   S    
C8    H22   S    
C92   C109  S    
Cr2   O10   S    
C99   C117  A    
C99   H64   S    
C94   C98   A    
C10   H20   S    
Cr11  O13   S    
C29   C33   A    
C92   C96   A    
C74   O28   A    
C23   C129  S    
C9    H24   S    
C45   O15   A    
C73   O27   A    
C51   C65   A    
C6    Cl7   S    
C125  O35   A    
C53   C68   A    
C24   C29   A    
C50   C111  A    
Cr12  O27   S    
C17   O45   A    
C52   C69   A    
C46   H43   S    
C4    Cl5   S    
C16   O43   A    
C46   H48   S    
C73   O22   A    
C23   O38   A    
C84   H62   S    
C8    C9    S    
C20   C120  S    
C5    C126  A    
C12   O40   A    
C41   C46   S    
C49   C75   S    
C13   C28   A    
C90   C94   A    
C2    C27   A    
C109  I2    S    
C51   C70   A    
C7    C128  A    
C21   C127  S    
C112  H8    S    
C18   C118  S    
C89   H12   S    
Cr11  O48   S    
C72   C81   A    
C75   O25   A    
C17   C117  S    
C93   C110  S    
C40   H31   S    
C39   H35   S    
C9    C131  S    
C99   C104  A    
C19   C119  S    
C98   C120  A    
C87   C92   A    
C16   C86   S    
C10   H25   S    
C96   C114  S    
C69   C70   A    
C24   C111  A    
C2    H28   S    
Cr9   O46   S    
C17   O52   A    
C18   O2    A    
C109  H6    S    
C128  C132  A    
C71   C80   A    
C55   C65   A    
C8    H18   S    
C91   C95   A    
Cr2   O6    S    
C19   O50   A    
Cr4   O30   S    
Cr6   O11   S    
Cr7   O17   S    
C22   O37   A    
C101  C105  A    
C122  H27   S    
C55   H53   S    
Cr4   O35   S    
Cr6   O16   S    
C28   C45   S    
C11   H21   S    
C121  O31   A    
Cr2   O32   S    
C63   H52   S    
C30   C34   A    
C24   H30   S    
C3    C132  A    
C48   C74   S    
C56   O16   A    
C5    Cl6   S    
C36   C48   A    
C3    C11   S    
C84   C85   A    
C47   C73   S    
C82   H45   S    
C52   C64   A    
C113  H14   S    
C41   H39   S    
C27   C56   S    
Cr1   O14   S    
C39   C43   S    
C108  H5    S    
C114  H10   S    
Cr5   O41   S    
C27   C31   A    
C57   H54   S    
C67   O17   A    
Cr10  O11   S    
Cr9   O19   S    
C60   C61   A    
C108  C113  S    
Cr6   O23   S    
C2    C89   A    
C45   O19   A    
C62   C63   A    
Cr6   O38   S    
C14   O41   A    
C50   C76   S    
C61   H50   S    
Cr11  O21   S    
C88   C106  A    
C52   C121  S    
C103  H4    S    
C98   C116  S    
C87   C105  A    
C28   C32   A    
C1    O14   A    
C35   H33   S    
C100  H23   S    
C1    C29   S    
C20   O4    A    
C71   C72   A    
C19   O3    A    
Cr8   O22   S    
C11   H26   S    
C32   C37   A    
Cr8   O44   S    
C124  O23   A    
C42   H44   S    
C110  I3    S    
Cr8   O9    S    
C20   O51   A    
C37   C49   A    
C16   O48   A    
C53   C125  S    
C109  C114  S    
C110  C115  S    
C54   C66   A    
C108  I1    S    
Cr7   O13   S    
C58   C68   A    
C106  Cl3   S    
Cr5   O12   S    
C26   C30   A    
Cr2   O28   S    
C48   C89   A    
Cr5   O15   S    
C8    C130  S    
Cr10  O20   S    
C116  H13   S    
C9    H19   S    
C113  H9    S    
C97   C115  S    
C101  C118  A    
Cr7   O43   S    
C93   C97   A    
C112  C116  S    
C21   O5    A    
C57   C64   A    
C15   C87   S    
Cr12  O9    S    
C12   C90   S    
C74   O24   A    
C54   C124  S    
C88   C93   A    
C123  O12   A    
C111  H34   S    
C121  O1    A    
Cr3   O29   S    
C4    C127  A    
C70   C79   A    
C3    C129  A    
Cr1   O36   S    
C59   C63   A    
C91   C108  S    
C56   O20   A    
C76   O26   A    
C54   C71   A    
Cr3   O7    S    
C124  O33   A    
Cr5   O37   S    
C23   O7    A    
C112  I4    S    
C78   H1    S    
C57   C61   A    
C80   H61   S    
C22   O6    A    
C1    O18   A    
C30   C35   S    
C25   O8    A    
C13   H29   S    
C33   C38   A    
C38   C50   A    
C43   H41   S    
C103  C107  A    
C33   C41   S    
C104  Cl1   S    
C13   C100  A    
C41   H32   S    
C130  C131  A    
C14   C88   S    
C123  O32   A    
C15   O42   A    
C75   O29   A    
C64   C65   A    
C21   O36   A    
C79   C83   A    
Cr11  O51   S    
Cr3   O33   S    
C58   H55   S    
Cr12  O52   S    
Cr9   O24   S    
C4    C5    A    
C102  H3    S    
C94   C112  S    
C44   H42   S    
C35   C42   S    
Cr1   O40   S    
C31   C39   S    
C116  H17   S    
C102  C106  A    
C43   H46   S    
C32   C40   S    
C115  H11   S    
C125  O34   A    
C78   C122  A    
C127  C131  A    
C62   H51   S    
C38   C46   S    
Cr8   O45   S    
C22   C126  S    
C10   C11   S    
C77   H59   S    
Cr9   O49   S    
Cr12  O5    S    
C25   O39   A    
C37   C44   S    
C42   H40   S    
C60   H49   S    
C40   C44   S    
C81   H60   S    
C40   H38   S    
C44   H47   S    
C81   C85   A    
C82   C83   A    
C35   H36   S    
C126  C130  A    
Cr7   O34   S    
Cr4   O8    S    
C36   C43   S    
C31   C36   A    
C34   C47   A    
C26   C122  A    
C47   C78   A    
Cr3   O11   S    
C115  H16   S    
C55   C60   A    
C53   C72   A    
Cr1   O9    S    
Cr10  O47   S    
Cr2   O2    S    
C18   O49   A    
C12   O44   A    
C110  H7    S    
C14   O46   A    
Cr1   O1    S    
C105  Cl2   S    
C49   C100  A    
C107  Cl4   S    
Cr12  O31   S    
