data_mof_unit_46916.cif
_audit_creation_date              2012-12-10T17:05:06-0500
_audit_creation_method            fapswitch 2.2
_symmetry_space_group_name_H-M    P1
_symmetry_Int_Tables_number       1
_space_group_crystal_system       triclinic
_cell_length_a                    30.041206
_cell_length_b                    30.592593
_cell_length_c                    21.46747
_cell_angle_alpha                 90.067988
_cell_angle_beta                  134.185162
_cell_angle_gamma                 89.86991
_cell_volume                      14147.7599319

loop_
_atom_site_label
_atom_site_type_symbol
_atom_type_description
_atom_site_fract_x
_atom_site_fract_y
_atom_site_fract_z
_atom_type_partial_charge
C1    C     C_R   0.308651 0.810073 0.119134 0.981481
C2    C     C_R   0.691200 0.810061 0.880931 0.985331
C3    C     C_R   0.807358 0.310050 0.119130 0.985133
C4    C     C_R   0.192584 0.310041 0.880889 0.985976
C5    C     C_R   0.546605 0.788800 0.000685 0.139049
C6    C     C_R   0.452239 0.788747 0.997236 0.137664
C7    C     C_R   0.045659 0.288664 0.998656 0.139102
C8    C     C_R   0.950911 0.288538 0.994400 0.137430
C9    C     C_R   0.521332 0.668102 0.995856 0.282110
C10   C     C_R   0.483427 0.668308 0.012764 0.285319
C11   C     C_R   0.025203 0.167947 0.003513 0.282985
C12   C     C_R   0.987207 0.168564 0.020267 0.285174
C13   C     C_R   0.474778 0.828355 0.996024 -0.179510
C14   C     C_R   0.522273 0.828391 0.998695 -0.180705
C15   C     C_R   0.972027 0.328095 0.990320 -0.180083
C16   C     C_R   0.019739 0.328188 0.993451 -0.183077
C17   C     C_R   0.248990 0.864044 0.156626 -0.169409
C18   C     C_R   0.752639 0.863916 0.847012 -0.168777
C19   C     C_R   0.749150 0.359858 0.164209 -0.178986
C20   C     C_R   0.251582 0.360425 0.837879 -0.175649
C21   C     C_R   0.226206 0.879904 0.191063 0.502445
C22   C     C_R   0.776791 0.880256 0.814904 0.497695
C23   C     C_R   0.728199 0.373823 0.202333 0.496381
C24   C     C_R   0.273140 0.374897 0.800911 0.495301
C25   C     C_R   0.267857 0.889325 0.279406 -0.255392
C26   C     C_R   0.736094 0.890945 0.727157 -0.252565
C27   C     C_R   0.771401 0.386025 0.289180 -0.251993
C28   C     C_R   0.230358 0.387060 0.713989 -0.252491
C29   C     C_R   0.331763 0.889045 0.330265 0.423895
C30   C     C_R   0.671882 0.890911 0.674663 0.418038
C31   C     C_R   0.834472 0.387743 0.336439 0.420796
C32   C     C_R   0.167063 0.388416 0.665662 0.419367
C33   C     C_R   0.353308 0.884862 0.288745 -0.075230
C34   C     C_R   0.648942 0.886032 0.714271 -0.072452
C35   C     C_R   0.853798 0.384038 0.291815 -0.071629
C36   C     C_R   0.146993 0.384373 0.709270 -0.072259
C37   C     C_R   0.313493 0.864034 0.208022 -0.108431
C38   C     C_R   0.687900 0.864458 0.794303 -0.105108
C39   C     C_R   0.813061 0.362525 0.211455 -0.107082
C40   C     C_R   0.187449 0.362777 0.789588 -0.105689
C41   C     C_R   0.340551 0.843713 0.182715 -0.164527
C42   C     C_R   0.659783 0.843787 0.817620 -0.165861
C43   C     C_R   0.838891 0.343691 0.182906 -0.169646
C44   C     C_R   0.161152 0.343706 0.817169 -0.169136
C45   C     C_R   0.336654 0.749925 0.999865 0.862371
C46   C     C_R   0.663374 0.750005 0.000146 0.860758
C47   C     C_R   0.836583 0.249839 0.999688 0.865267
C48   C     C_R   0.163458 0.249957 0.000281 0.862986
C49   C     C_R   0.399603 0.855047 0.219944 0.341743
C50   C     C_R   0.600825 0.855635 0.780302 0.336942
C51   C     C_R   0.896751 0.356427 0.217156 0.344452
C52   C     C_R   0.103106 0.356478 0.782392 0.341888
C53   C     C_R   0.427029 0.891818 0.273148 0.288304
C54   C     C_R   0.574183 0.892759 0.728152 0.293214
C55   C     C_R   0.923871 0.393244 0.269951 0.287073
C56   C     C_R   0.076265 0.393463 0.730049 0.290075
C57   C     C_R   0.408417 0.903772 0.316715 -0.267669
C58   C     C_R   0.593070 0.904614 0.685048 -0.272051
C59   C     C_R   0.907458 0.404000 0.316513 -0.274691
C60   C     C_R   0.092960 0.404226 0.683914 -0.276049
C61   C     C_R   0.867070 0.736776 0.917022 0.411901
C62   C     C_R   0.133356 0.736612 0.083443 0.412483
C63   C     C_R   0.366887 0.236414 0.917205 0.412344
C64   C     C_R   0.632895 0.236181 0.082338 0.412040
C65   C     C_R   0.883492 0.748633 0.995007 -0.323051
C66   C     C_R   0.117125 0.750332 0.006414 -0.319148
C67   C     C_R   0.383311 0.249103 0.994964 -0.289502
C68   C     C_R   0.616579 0.249328 0.004871 -0.289671
C69   C     C_R   0.946589 0.753060 0.073937 0.511085
C70   C     C_R   0.054087 0.757433 0.928624 0.515777
C71   C     C_R   0.446449 0.255006 0.073515 0.513533
C72   C     C_R   0.553468 0.255814 0.926452 0.513284
C73   C     C_R   0.993561 0.737604 0.079798 -0.155851
C74   C     C_R   0.006905 0.741045 0.921378 -0.135466
C75   C     C_R   0.493501 0.239783 0.079438 -0.157113
C76   C     C_R   0.506291 0.240619 0.920155 -0.157026
C77   C     C_R   0.977047 0.732053 0.000388 -0.103722
C78   C     C_R   0.023361 0.732577 0.000017 -0.098093
C79   C     C_R   0.476819 0.233378 0.000069 -0.112650
C80   C     C_R   0.522939 0.233498 0.999336 -0.114509
C81   C     C_R   0.915037 0.728703 0.920963 -0.135624
C82   C     C_R   0.085273 0.727705 0.078893 -0.145448
C83   C     C_R   0.414895 0.228822 0.921141 -0.157927
C84   C     C_R   0.584832 0.228450 0.078147 -0.159603
C85   C     C_R   0.055778 0.726174 0.158542 0.337304
C86   C     C_R   0.944536 0.731171 0.841587 0.319674
C87   C     C_R   0.556090 0.229376 0.158490 0.348228
C88   C     C_R   0.443607 0.230802 0.840822 0.349174
C89   C     C_R   0.189371 0.689901 0.880497 0.973356
C90   C     C_R   0.810712 0.689902 0.119415 0.972118
C91   C     C_R   0.689627 0.189887 0.880492 0.973418
C92   C     C_R   0.310390 0.189892 0.119489 0.972804
C93   C     C_R   0.096170 0.712203 0.150124 0.403870
C94   C     C_R   0.903740 0.715804 0.848119 0.410181
C95   C     C_R   0.595800 0.213952 0.149926 0.410219
C96   C     C_R   0.403837 0.215052 0.848920 0.408641
C97   C     C_R   0.235546 0.664884 0.806776 -0.163297
C98   C     C_R   0.762476 0.663649 0.189590 -0.160589
C99   C     C_R   0.736190 0.164340 0.807322 -0.162479
C100  C     C_R   0.263946 0.165050 0.192938 -0.161402
C101  C     C_R   0.255206 0.656657 0.765464 -0.182776
C102  C     C_R   0.741763 0.654865 0.229301 -0.175838
C103  C     C_R   0.755590 0.156291 0.765599 -0.185137
C104  C     C_R   0.244356 0.157075 0.234377 -0.172928
C105  C     C_R   0.218198 0.632245 0.689386 0.431447
C106  C     C_R   0.778490 0.630499 0.305453 0.423799
C107  C     C_R   0.718252 0.132176 0.689105 0.434022
C108  C     C_R   0.281391 0.132641 0.310496 0.433085
C109  C     C_R   0.161759 0.615380 0.655824 -0.211805
C110  C     C_R   0.835749 0.614239 0.340711 -0.210523
C111  C     C_R   0.661879 0.115300 0.655689 -0.208832
C112  C     C_R   0.337727 0.115455 0.343923 -0.209516
C113  C     C_R   0.142671 0.620573 0.700186 0.003919
C114  C     C_R   0.855922 0.619888 0.297852 0.008822
C115  C     C_R   0.642952 0.120419 0.700235 0.006285
C116  C     C_R   0.356848 0.120553 0.299632 0.006198
C117  C     C_R   0.178898 0.647653 0.774131 0.037909
C118  C     C_R   0.819856 0.646936 0.223787 0.036471
C119  C     C_R   0.679412 0.147322 0.774506 0.035562
C120  C     C_R   0.320556 0.147619 0.225552 0.035318
C121  C     C_R   0.158193 0.656791 0.814686 -0.276691
C122  C     C_R   0.841551 0.656660 0.184789 -0.290454
C123  C     C_R   0.658555 0.156698 0.814813 -0.290554
C124  C     C_R   0.341367 0.156710 0.185140 -0.291170
C125  C     C_R   0.102589 0.639647 0.783818 0.291538
C126  C     C_R   0.897614 0.639795 0.216755 0.318191
C127  C     C_R   0.602514 0.140049 0.783074 0.319808
C128  C     C_R   0.397243 0.139694 0.216640 0.319290
C129  C     C_R   0.063939 0.616579 0.706183 0.411326
C130  C     C_R   0.936060 0.616946 0.294566 0.409712
C131  C     C_R   0.563733 0.117345 0.705052 0.411174
C132  C     C_R   0.436059 0.117088 0.294760 0.412081
C133  C     C_R   0.164560 0.751478 0.003514 1.028314
C134  C     C_R   0.835801 0.750895 0.997216 1.023518
C135  C     C_R   0.664178 0.250976 0.002653 1.012120
C136  C     C_R   0.335782 0.250905 0.997300 1.011993
C137  C     C_R   0.087750 0.601322 0.672135 -0.291581
C138  C     C_R   0.911790 0.601253 0.327590 -0.307486
C139  C     C_R   0.587691 0.101537 0.671628 -0.309042
C140  C     C_R   0.412131 0.101499 0.328274 -0.309456
C141  C     C_R   0.942404 0.563194 0.385732 0.877575
C142  C     C_R   0.057515 0.563168 0.614283 0.877248
C143  C     C_R   0.442540 0.063281 0.385992 0.875283
C144  C     C_R   0.557398 0.063280 0.614012 0.875237
C145  C     C_R   0.440405 0.938955 0.380725 1.022008
C146  C     C_R   0.560039 0.939224 0.619842 1.024012
C147  C     C_R   0.940246 0.439001 0.380722 1.032824
C148  C     C_R   0.059904 0.439083 0.619431 1.033636
C149  C     C_R   0.593511 0.789023 0.002271 -0.221907
C150  C     C_R   0.405189 0.788912 0.995362 -0.218741
C151  C     C_R   0.092617 0.288918 0.000372 -0.228872
C152  C     C_R   0.903649 0.288663 0.992084 -0.221158
C153  C     C_R   0.615986 0.749630 0.001002 -0.114250
C154  C     C_R   0.384277 0.749554 0.999417 -0.119249
C155  C     C_R   0.116296 0.249530 0.001531 -0.113404
C156  C     C_R   0.884194 0.249421 0.999143 -0.123175
C157  C     C_R   0.592530 0.709731 0.998537 -0.139913
C158  C     C_R   0.409668 0.709753 0.005333 -0.139397
C159  C     C_R   0.094382 0.209606 0.002092 -0.138863
C160  C     C_R   0.911279 0.209772 0.008442 -0.137786
C161  C     C_R   0.545506 0.708311 0.997501 -0.070403
C162  C     C_R   0.457086 0.708411 0.007153 -0.069479
C163  C     C_R   0.047617 0.208156 0.001596 -0.071209
C164  C     C_R   0.958997 0.208489 0.010877 -0.070131
C165  C     C_R   0.523441 0.748408 0.000369 0.009710
C166  C     C_R   0.477320 0.748411 0.001002 0.007483
C167  C     C_R   0.023973 0.248292 0.001297 0.009894
C168  C     C_R   0.977698 0.248317 0.001619 0.006646
H1    H     H_    0.611666 0.819724 0.002516 0.185646
H2    H     H_    0.385626 0.819585 0.992553 0.185155
H3    H     H_    0.109688 0.319602 0.998425 0.187429
H4    H     H_    0.882868 0.319272 0.986754 0.185723
H5    H     H_    0.265501 0.684568 0.865029 0.129492
H6    H     H_    0.732791 0.683362 0.131349 0.128594
H7    H     H_    0.766307 0.183848 0.865816 0.129854
H8    H     H_    0.234130 0.184843 0.134819 0.126896
H9    H     H_    0.298926 0.670044 0.792230 0.156989
H10   H     H_    0.697475 0.667846 0.201328 0.157917
H11   H     H_    0.799287 0.169673 0.792284 0.158204
H12   H     H_    0.200738 0.170743 0.207756 0.157271
H13   H     H_    0.132727 0.600250 0.593137 0.174921
H14   H     H_    0.864563 0.599362 0.403596 0.175671
H15   H     H_    0.632661 0.100332 0.592802 0.174386
H16   H     H_    0.366744 0.100271 0.406613 0.174983
H17   H     H_    0.613670 0.680130 0.001541 0.208961
H18   H     H_    0.389772 0.680070 0.004435 0.211716
H19   H     H_    0.116533 0.180112 0.007012 0.207144
H20   H     H_    0.892562 0.180065 0.009832 0.212953
H21   H     H_    0.455996 0.859283 0.993722 0.179445
H22   H     H_    0.539600 0.859346 0.998385 0.180276
H23   H     H_    0.951963 0.358953 0.985423 0.179540
H24   H     H_    0.035935 0.359113 0.990854 0.181996
H25   H     H_    0.216597 0.852221 0.090339 0.172649
H26   H     H_    0.784262 0.851173 0.912608 0.176464
H27   H     H_    0.716071 0.346745 0.098891 0.177458
H28   H     H_    0.284419 0.347314 0.903235 0.176858
H29   H     H_    0.250776 0.895093 0.309505 0.224230
H30   H     H_    0.754138 0.897039 0.698480 0.227148
H31   H     H_    0.756387 0.391524 0.322080 0.231971
H32   H     H_    0.245901 0.392906 0.681900 0.232400
O1    O     O_R   0.321630 0.769940 0.143350 -0.606025
O2    O     O_R   0.678370 0.769940 0.856650 -0.605859
O3    O     O_R   0.821630 0.269940 0.143350 -0.603510
O4    O     O_R   0.178370 0.269940 0.856650 -0.603770
O5    O     O_R   0.916920 0.545810 0.408440 -0.646901
O6    O     O_R   0.083080 0.545810 0.591560 -0.645700
O7    O     O_R   0.416920 0.045810 0.408440 -0.643880
O8    O     O_R   0.583080 0.045810 0.591560 -0.644195
O9    O     O_R   0.491480 0.954180 0.408380 -0.523014
O10   O     O_R   0.508520 0.954180 0.591620 -0.521346
O11   O     O_R   0.991480 0.454180 0.408380 -0.517545
O12   O     O_R   0.008520 0.454180 0.591620 -0.517330
O13   O     O_R   0.416890 0.954190 0.408420 -0.593687
O14   O     O_R   0.583110 0.954190 0.591580 -0.591999
O15   O     O_R   0.916890 0.454190 0.408420 -0.597975
O16   O     O_R   0.083110 0.454190 0.591580 -0.597539
O17   O     O_R   0.269950 0.821660 0.039930 -0.631559
O18   O     O_R   0.730050 0.821660 0.960070 -0.629901
O19   O     O_R   0.769950 0.321660 0.039930 -0.627694
O20   O     O_R   0.230050 0.321660 0.960070 -0.627647
O21   O     O_R   0.341900 0.724110 0.051720 -0.625418
O22   O     O_R   0.658100 0.724110 0.948280 -0.624900
O23   O     O_R   0.841900 0.224110 0.051720 -0.625134
O24   O     O_R   0.158100 0.224110 0.948280 -0.623021
O25   O     O_R   0.290220 0.775830 0.948290 -0.616868
O26   O     O_R   0.709780 0.775830 0.051710 -0.614979
O27   O     O_R   0.790220 0.275830 0.948290 -0.615147
O28   O     O_R   0.209780 0.275830 0.051710 -0.613849
O29   O     O_R   0.230030 0.678320 0.960120 -0.583980
O30   O     O_R   0.769970 0.678320 0.039880 -0.580940
O31   O     O_R   0.730030 0.178320 0.960120 -0.579371
O32   O     O_R   0.269970 0.178320 0.039880 -0.579368
O33   O     O_R   0.178350 0.730040 0.856700 -0.618023
O34   O     O_R   0.821650 0.730040 0.143300 -0.621737
O35   O     O_R   0.678350 0.230040 0.856700 -0.621335
O36   O     O_R   0.321650 0.230040 0.143300 -0.621903
O37   O     O_R   0.209770 0.724150 0.051760 -0.535505
O38   O     O_R   0.790230 0.724150 0.948240 -0.531989
O39   O     O_R   0.709770 0.224150 0.051760 -0.529498
O40   O     O_R   0.290230 0.224150 0.948240 -0.530143
O41   O     O_R   0.158090 0.775870 0.948330 -0.611569
O42   O     O_R   0.841910 0.775870 0.051670 -0.617869
O43   O     O_R   0.658090 0.275870 0.948330 -0.629821
O44   O     O_R   0.341910 0.275870 0.051670 -0.629512
O45   O     O_R   0.991500 0.545800 0.408400 -0.571886
O46   O     O_R   0.008500 0.545800 0.591600 -0.572651
O47   O     O_R   0.491500 0.045800 0.408400 -0.573023
O48   O     O_R   0.508500 0.045800 0.591600 -0.573581
Zn1   Zn    Zn3+2 0.284500 0.715460 0.069080 1.121037
Zn2   Zn    Zn3+2 0.715500 0.715460 0.930920 1.119229
Zn3   Zn    Zn3+2 0.784500 0.215460 0.069080 1.121172
Zn4   Zn    Zn3+2 0.215500 0.215460 0.930920 1.120955
Zn5   Zn    Zn3+2 0.215490 0.784530 0.930970 1.033454
Zn6   Zn    Zn3+2 0.784510 0.784530 0.069030 1.032564
Zn7   Zn    Zn3+2 0.715490 0.284530 0.930970 1.022494
Zn8   Zn    Zn3+2 0.284510 0.284530 0.069030 1.024331
Zn9   Zn    Zn3+2 0.549790 0.999990 0.499990 1.165089
Zn10  Zn    Zn3+2 0.450210 0.999990 0.500010 1.163994
Zn11  Zn    Zn3+2 0.049790 0.499990 0.499990 1.165659
Zn12  Zn    Zn3+2 0.950210 0.499990 0.500010 1.158934
S1    S     S_3+6 0.472188 0.925522 0.266562 0.083860
O49   O     O_2   0.539966 0.918925 0.345944 -0.240293
O50   O     O_2   0.460047 0.914089 0.187684 -0.231606
O51   O     O_3   0.453251 0.978434 0.258639 -0.523154
H33   H     H_    0.485069 0.995089 0.266391 0.406676
S2    S     S_3+6 0.530546 0.927299 0.736679 0.085597
O52   O     O_2   0.462391 0.920819 0.659139 -0.239170
O53   O     O_2   0.544695 0.916580 0.817335 -0.232378
O54   O     O_3   0.549237 0.980000 0.742666 -0.526196
H34   H     H_    0.518373 0.997055 0.736723 0.406582
S3    S     S_3+6 0.965869 0.428452 0.259664 0.086054
O55   O     O_2   0.034362 0.422208 0.335891 -0.237919
O56   O     O_2   0.950395 0.418301 0.177810 -0.229338
O57   O     O_3   0.946672 0.480930 0.254869 -0.528453
H35   H     H_    0.976673 0.498375 0.259628 0.409491
S4    S     S_3+6 0.034784 0.428977 0.741106 0.088913
O58   O     O_2   0.966198 0.422846 0.665640 -0.237951
O59   O     O_2   0.051057 0.419012 0.823585 -0.228588
O60   O     O_3   0.053741 0.481364 0.745246 -0.525780
H36   H     H_    0.023960 0.498962 0.740934 0.410741
S5    S     S_3+6 0.788373 0.739606 0.812830 0.105832
O61   O     O_2   0.786322 0.754139 0.743965 -0.213495
O62   O     O_2   0.759002 0.695278 0.789823 -0.197883
O63   O     O_3   0.745943 0.775041 0.812714 -0.603066
H37   H     H_    0.704694 0.775159 0.752060 0.390822
S6    S     S_3+6 0.212038 0.738911 0.187816 0.103430
O64   O     O_2   0.213774 0.751873 0.257059 -0.217053
O65   O     O_2   0.242426 0.694999 0.209676 -0.195742
O66   O     O_3   0.253767 0.775462 0.188851 -0.606116
H38   H     H_    0.295142 0.775252 0.249368 0.390991
S7    S     S_3+6 0.287948 0.237309 0.812771 0.101373
O67   O     O_2   0.285323 0.251778 0.743355 -0.220173
O68   O     O_2   0.260708 0.192310 0.791732 -0.194946
O69   O     O_3   0.243289 0.271502 0.810144 -0.601024
H39   H     H_    0.202218 0.270522 0.749354 0.390081
S8    S     S_3+6 0.711812 0.236613 0.186896 0.102373
O70   O     O_2   0.714323 0.250599 0.256458 -0.218852
O71   O     O_2   0.739037 0.191569 0.207202 -0.194817
O72   O     O_3   0.756588 0.270921 0.190263 -0.600236
H40   H     H_    0.797645 0.269648 0.251043 0.390061
O73   O     O_3   0.961360 0.775895 0.141756 -0.541917
C169  C     C_3   0.960702 0.821459 0.128608 0.097556
H41   H     H_    0.939399 0.838145 0.148570 0.185253
H42   H     H_    0.931874 0.830695 0.059423 0.166155
C170  C     C_3   0.026922 0.838739 0.185164 -0.385845
H43   H     H_    0.052909 0.834338 0.254736 0.277711
H44   H     H_    0.051132 0.820257 0.171403 0.241359
C171  C     C_3   0.027147 0.887175 0.168742 -0.708584
H45   H     H_    0.008678 0.891974 0.102933 0.298762
H46   H     H_    0.075444 0.899654 0.217507 0.297860
H47   H     H_    0.998726 0.906178 0.174730 0.264257
O74   O     O_3   0.039505 0.782249 0.862618 -0.541068
C172  C     C_3   0.045489 0.827371 0.882638 0.068936
H48   H     H_    0.070811 0.843155 0.868326 0.187035
H49   H     H_    0.072834 0.834212 0.952209 0.171577
C173  C     C_3   0.981299 0.848469 0.825377 -0.355585
H50   H     H_    0.956905 0.845035 0.756259 0.282349
H51   H     H_    0.954204 0.831625 0.835786 0.254860
C174  C     C_3   0.985023 0.896900 0.845375 -0.703516
H52   H     H_    0.000265 0.900967 0.909276 0.305163
H53   H     H_    0.938353 0.911963 0.794972 0.292718
H54   H     H_    0.017605 0.914106 0.845499 0.263634
O75   O     O_3   0.461663 0.275240 0.143800 -0.542306
C175  C     C_3   0.455755 0.321316 0.132338 0.125184
H55   H     H_    0.454786 0.335041 0.179313 0.179542
H56   H     H_    0.411071 0.331178 0.066960 0.166603
C176  C     C_3   0.510557 0.342040 0.150799 -0.369327
H57   H     H_    0.554837 0.333843 0.217632 0.291688
H58   H     H_    0.512792 0.329417 0.104565 0.214567
C177  C     C_3   0.503931 0.391687 0.142038 -0.722123
H59   H     H_    0.459768 0.400956 0.075849 0.296002
H60   H     H_    0.542984 0.405966 0.153345 0.318755
H61   H     H_    0.504592 0.405502 0.190549 0.248887
O76   O     O_3   0.538354 0.276403 0.856516 -0.541598
C178  C     C_3   0.545467 0.322379 0.869404 0.126884
H62   H     H_    0.546381 0.336189 0.822474 0.178675
H63   H     H_    0.590571 0.331520 0.934840 0.165812
C179  C     C_3   0.491534 0.343935 0.852391 -0.367127
H64   H     H_    0.446986 0.337269 0.784880 0.290487
H65   H     H_    0.488499 0.330621 0.897370 0.214609
C180  C     C_3   0.500502 0.393338 0.865207 -0.725420
H66   H     H_    0.544913 0.401091 0.932251 0.296119
H67   H     H_    0.461982 0.408247 0.854659 0.318385
H68   H     H_    0.500846 0.407885 0.818164 0.248642
S9    S     S_3+6 0.085515 0.721600 0.265409 0.112852
O77   O     O_2   0.058634 0.752865 0.285701 -0.261252
O78   O     O_2   0.075289 0.675911 0.278559 -0.198195
O79   O     O_3   0.162390 0.730888 0.337989 -0.475174
H69   H     H_    0.178297 0.720908 0.394395 0.403649
S10   S     S_3+6 0.912857 0.738414 0.734095 0.104261
O80   O     O_2   0.880950 0.782037 0.700999 -0.242438
O81   O     O_2   0.960863 0.737077 0.730453 -0.256465
O82   O     O_3   0.858634 0.700866 0.664010 -0.429226
H70   H     H_    0.881182 0.676437 0.665898 0.364688
S11   S     S_3+6 0.586581 0.226835 0.265941 0.125498
O83   O     O_2   0.566372 0.263272 0.288385 -0.263145
O84   O     O_2   0.568683 0.184028 0.277285 -0.193601
O85   O     O_3   0.664464 0.229127 0.338165 -0.462860
H71   H     H_    0.679046 0.220175 0.394246 0.403546
S12   S     S_3+6 0.413062 0.229424 0.733310 0.127040
O86   O     O_2   0.432680 0.266753 0.711841 -0.262981
O87   O     O_2   0.431708 0.187252 0.721036 -0.192724
O88   O     O_3   0.335145 0.231229 0.661064 -0.462162
H72   H     H_    0.320741 0.222902 0.604822 0.403149
S13   S     S_3+6 0.133291 0.660295 0.193464 0.155917
O89   O     O_2   0.145187 0.641066 0.141684 -0.222084
O90   O     O_2   0.193680 0.664502 0.286848 -0.162320
O91   O     O_3   0.086548 0.625868 0.186710 -0.512497
H73   H     H_    0.111204 0.598748 0.215884 0.403672
S14   S     S_3+6 0.868197 0.663879 0.802800 0.134985
O92   O     O_2   0.863562 0.640562 0.859730 -0.230936
O93   O     O_2   0.804268 0.668858 0.713312 -0.151539
O94   O     O_3   0.912061 0.633488 0.797293 -0.543958
H74   H     H_    0.888202 0.606216 0.767561 0.403418
S15   S     S_3+6 0.629961 0.161158 0.192020 0.150155
O95   O     O_2   0.636974 0.139659 0.136219 -0.237634
O96   O     O_2   0.692503 0.164307 0.283646 -0.157045
O97   O     O_3   0.583552 0.129670 0.190689 -0.515817
H75   H     H_    0.606346 0.101731 0.217761 0.402008
S16   S     S_3+6 0.369463 0.162521 0.805264 0.150127
O98   O     O_2   0.362972 0.140215 0.860969 -0.238590
O99   O     O_2   0.306641 0.166298 0.714067 -0.156013
O100  O     O_3   0.415360 0.131467 0.804665 -0.514382
H76   H     H_    0.392543 0.103638 0.777084 0.401981
S17   S     S_3+6 0.081206 0.647719 0.842043 0.085961
O101  O     O_2   0.133738 0.633659 0.934759 -0.216182
O102  O     O_2   0.070041 0.695551 0.840881 -0.317344
O103  O     O_3   0.017447 0.619442 0.800134 -0.431069
H77   H     H_    0.982515 0.640191 0.761039 0.384337
S18   S     S_3+6 0.922002 0.649188 0.162775 0.077811
O104  O     O_2   0.867970 0.645290 0.066149 -0.291251
O105  O     O_2   0.947615 0.694593 0.184546 -0.267860
O106  O     O_3   0.976850 0.613029 0.194635 -0.430935
H78   H     H_    0.979723 0.615971 0.151591 0.413728
S19   S     S_3+6 0.578625 0.149923 0.837568 0.080292
O107  O     O_2   0.632402 0.143578 0.933726 -0.291319
O108  O     O_2   0.556743 0.196332 0.820106 -0.267370
O109  O     O_3   0.520990 0.116042 0.802546 -0.429672
H79   H     H_    0.522263 0.115618 0.849889 0.410301
S20   S     S_3+6 0.421025 0.149022 0.161914 0.080644
O110  O     O_2   0.367067 0.143120 0.065708 -0.290603
O111  O     O_2   0.443737 0.195150 0.179929 -0.267737
O112  O     O_3   0.477997 0.114383 0.196324 -0.429912
H80   H     H_    0.477806 0.114791 0.150018 0.411053
S21   S     S_3+6 0.242877 0.623085 0.636227 0.056193
O113  O     O_2   0.205910 0.586929 0.570732 -0.238983
O114  O     O_2   0.234170 0.664166 0.590381 -0.313989
O115  O     O_3   0.318496 0.609165 0.709673 -0.445334
H81   H     H_    0.341406 0.637123 0.735198 0.364939
S22   S     S_3+6 0.752497 0.620861 0.356729 0.057672
O116  O     O_2   0.791079 0.586002 0.425001 -0.252380
O117  O     O_2   0.757371 0.662320 0.398792 -0.292184
O118  O     O_3   0.677922 0.604629 0.282368 -0.435659
H82   H     H_    0.653287 0.631789 0.253467 0.369162
S23   S     S_3+6 0.741985 0.123643 0.634601 0.056095
O119  O     O_2   0.708544 0.085127 0.574428 -0.233914
O120  O     O_2   0.727264 0.163624 0.582349 -0.316729
O121  O     O_3   0.818937 0.114178 0.707330 -0.452363
H83   H     H_    0.838496 0.143456 0.726725 0.362357
S24   S     S_3+6 0.257321 0.124185 0.364535 0.060097
O122  O     O_2   0.291255 0.085958 0.425538 -0.235095
O123  O     O_2   0.271047 0.164377 0.415789 -0.316925
O124  O     O_3   0.180527 0.114260 0.291447 -0.436253
H84   H     H_    0.160415 0.143396 0.270594 0.364028
O125  O     O_3   0.003271 0.608443 0.665265 -0.574988
C181  C     C_3   0.961171 0.631055 0.584713 0.075736
H85   H     H_    0.972245 0.627155 0.545137 0.092986
H86   H     H_    0.914677 0.616346 0.546417 0.210488
C182  C     C_3   0.956739 0.679663 0.596942 -0.341968
H87   H     H_    0.936334 0.682727 0.624098 0.270307
H88   H     H_    0.003546 0.694816 0.642713 0.233192
C183  C     C_3   0.915905 0.704246 0.510777 -0.837528
H89   H     H_    0.936018 0.702190 0.482809 0.238878
H90   H     H_    0.912830 0.739174 0.521556 0.294613
H91   H     H_    0.868427 0.690300 0.463904 0.288222
O126  O     O_3   0.997546 0.610432 0.337564 -0.537584
C184  C     C_3   0.037439 0.634388 0.416590 0.140824
H92   H     H_    0.029249 0.626707 0.458582 0.069306
H93   H     H_    0.085663 0.624000 0.452959 0.217604
C185  C     C_3   0.033085 0.683997 0.402072 -0.334128
H94   H     H_    0.044579 0.691639 0.364212 0.321474
H95   H     H_    0.985244 0.695763 0.365166 0.206185
C186  C     C_3   0.077719 0.708411 0.488418 -0.881135
H96   H     H_    0.066448 0.701663 0.527005 0.245990
H97   H     H_    0.073606 0.744111 0.476083 0.288679
H98   H     H_    0.126291 0.698256 0.526385 0.297385
O127  O     O_3   0.502005 0.111808 0.661515 -0.538589
C187  C     C_3   0.462664 0.135495 0.582031 0.150971
H99   H     H_    0.469302 0.125458 0.539147 0.071525
H100  H     H_    0.414085 0.127162 0.547049 0.218052
C188  C     C_3   0.470176 0.185337 0.595115 -0.353125
H101  H     H_    0.461197 0.195638 0.635028 0.316540
H102  H     H_    0.518184 0.195112 0.629289 0.201611
C189  C     C_3   0.425311 0.209184 0.508055 -0.878874
H103  H     H_    0.434242 0.199820 0.467526 0.246080
H104  H     H_    0.431788 0.245021 0.519214 0.286909
H105  H     H_    0.376593 0.201090 0.472642 0.297395
O128  O     O_3   0.497778 0.111366 0.338246 -0.537795
C190  C     C_3   0.537034 0.135310 0.417357 0.148232
H106  H     H_    0.530068 0.125913 0.460103 0.071333
H107  H     H_    0.585628 0.126561 0.452794 0.218016
C191  C     C_3   0.529850 0.185107 0.403396 -0.347952
H108  H     H_    0.539823 0.194750 0.364409 0.317016
H109  H     H_    0.481663 0.195284 0.367903 0.202571
C192  C     C_3   0.573980 0.209269 0.490079 -0.879388
H110  H     H_    0.563999 0.200611 0.529602 0.246191
H111  H     H_    0.567824 0.245073 0.478263 0.287162
H112  H     H_    0.622878 0.200742 0.526869 0.297456
S25   S     S_3+6 0.532567 0.619181 0.962587 0.082200
O129  O     O_2   0.594586 0.599713 0.039433 -0.261642
O130  O     O_2   0.482241 0.586431 0.926201 -0.160008
O131  O     O_3   0.531043 0.630790 0.884496 -0.563594
H113  H     H_    0.544330 0.603468 0.876500 0.395863
S26   S     S_3+6 0.474948 0.620332 0.051127 0.080939
O132  O     O_2   0.414154 0.598836 0.976415 -0.253974
O133  O     O_2   0.527178 0.588611 0.091075 -0.165235
O134  O     O_3   0.475580 0.634027 0.127700 -0.566472
H114  H     H_    0.464274 0.606879 0.139025 0.396967
S27   S     S_3+6 0.038892 0.118252 0.975136 0.089577
O135  O     O_2   0.101929 0.100841 0.053731 -0.257602
O136  O     O_2   0.990377 0.084543 0.942365 -0.153687
O137  O     O_3   0.036567 0.127854 0.895720 -0.561063
H115  H     H_    0.051456 0.100437 0.890663 0.396463
S28   S     S_3+6 0.981065 0.121626 0.063348 0.086289
O138  O     O_2   0.921522 0.098159 0.990831 -0.248356
O139  O     O_2   0.034987 0.091052 0.106722 -0.155674
O140  O     O_3   0.980662 0.137265 0.138150 -0.568253
H116  H     H_    0.970911 0.110398 0.152378 0.397821
O141  O     O_3   0.424250 0.835003 0.191575 -0.610243
C193  C     C_3   0.476769 0.810338 0.260841 0.102675
H117  H     H_    0.464232 0.786207 0.285436 0.138726
H118  H     H_    0.514138 0.832098 0.315113 0.191934
C194  C     C_3   0.501497 0.785403 0.228462 -0.343571
H119  H     H_    0.466005 0.761587 0.178188 0.238928
H120  H     H_    0.510766 0.808666 0.198867 0.256038
C195  C     C_3   0.561098 0.760679 0.302024 -0.778082
H121  H     H_    0.552644 0.736800 0.331774 0.274604
H122  H     H_    0.597995 0.783843 0.352624 0.288519
H123  H     H_    0.577294 0.742643 0.275917 0.275234
O142  O     O_3   0.575822 0.835956 0.808309 -0.611710
C196  C     C_3   0.522976 0.811796 0.738674 0.101722
H124  H     H_    0.535265 0.787370 0.714021 0.138594
H125  H     H_    0.486024 0.833882 0.684548 0.194352
C197  C     C_3   0.497667 0.787389 0.770549 -0.337613
H126  H     H_    0.532838 0.763399 0.820978 0.237360
H127  H     H_    0.488391 0.810965 0.799861 0.254282
C198  C     C_3   0.437903 0.763057 0.696655 -0.797231
H128  H     H_    0.446354 0.738859 0.667203 0.275760
H129  H     H_    0.401367 0.786428 0.645910 0.287643
H130  H     H_    0.421211 0.745438 0.722342 0.271905
O143  O     O_3   0.920856 0.337112 0.187435 -0.608452
C199  C     C_3   0.974824 0.313460 0.256635 0.100405
H131  H     H_    0.964314 0.289126 0.283581 0.137005
H132  H     H_    0.011808 0.335939 0.309465 0.196045
C200  C     C_3   0.998995 0.288930 0.223133 -0.336524
H133  H     H_    0.964295 0.264129 0.175098 0.238450
H134  H     H_    0.005787 0.312227 0.190646 0.254722
C201  C     C_3   0.060299 0.265802 0.296567 -0.794207
H135  H     H_    0.054349 0.241938 0.329255 0.276755
H136  H     H_    0.096458 0.289959 0.344959 0.286898
H137  H     H_    0.075987 0.247949 0.269610 0.271415
O144  O     O_3   0.078652 0.337185 0.811505 -0.610840
C202  C     C_3   0.024763 0.313760 0.741859 0.101225
H138  H     H_    0.035733 0.289050 0.715887 0.137916
H139  H     H_    0.988193 0.336313 0.688506 0.196278
C203  C     C_3   0.999467 0.289903 0.774201 -0.339173
H140  H     H_    0.033855 0.265134 0.823114 0.236352
H141  H     H_    0.991922 0.313654 0.805356 0.253770
C204  C     C_3   0.938380 0.266885 0.700153 -0.799409
H142  H     H_    0.945042 0.242568 0.668754 0.275935
H143  H     H_    0.902579 0.291045 0.650889 0.289605
H144  H     H_    0.921753 0.249582 0.726195 0.269053
S29   S     S_3+6 0.146080 0.885587 0.125344 0.019264
O145  O     O_2   0.134330 0.915154 0.168581 -0.263016
O146  O     O_2   0.117517 0.905242 0.040183 -0.332786
O147  O     O_3   0.114861 0.836246 0.108802 -0.588178
H145  H     H_    0.069711 0.841679 0.069089 0.352950
S30   S     S_3+6 0.857464 0.883956 0.882268 0.024525
O148  O     O_2   0.871384 0.913457 0.841710 -0.262616
O149  O     O_2   0.886630 0.902302 0.968651 -0.327371
O150  O     O_3   0.886473 0.833941 0.896157 -0.582676
H146  H     H_    0.931946 0.838153 0.937236 0.350983
S31   S     S_3+6 0.649332 0.372215 0.146725 0.020201
O151  O     O_2   0.644185 0.361942 0.209978 -0.296442
O152  O     O_2   0.620642 0.416170 0.106514 -0.263403
O153  O     O_3   0.611304 0.334103 0.068855 -0.631976
H147  H     H_    0.572749 0.328734 0.055152 0.362204
S32   S     S_3+6 0.352468 0.374327 0.858608 0.021947
O154  O     O_2   0.359370 0.367943 0.796235 -0.298739
O155  O     O_2   0.380712 0.417351 0.904293 -0.263096
O156  O     O_3   0.389532 0.333898 0.931864 -0.630261
H148  H     H_    0.428453 0.329478 0.946066 0.362358
S33   S     S_3+6 0.379375 0.879391 0.442312 0.059334
O157  O     O_2   0.378205 0.919224 0.482100 -0.223422
O158  O     O_2   0.353146 0.841491 0.452594 -0.275027
O159  O     O_3   0.452481 0.867457 0.492499 -0.555970
H149  H     H_    0.471892 0.854815 0.549165 0.366313
S34   S     S_3+6 0.626011 0.881351 0.562982 0.068405
O160  O     O_2   0.627186 0.921495 0.523933 -0.222599
O161  O     O_2   0.653903 0.843939 0.554255 -0.260867
O162  O     O_3   0.552698 0.868638 0.510602 -0.552858
H150  H     H_    0.534166 0.856817 0.453815 0.368920
S35   S     S_3+6 0.883946 0.379482 0.449365 0.056986
O163  O     O_2   0.883459 0.420004 0.488421 -0.222490
O164  O     O_2   0.858863 0.342211 0.462905 -0.280307
O165  O     O_3   0.956470 0.367268 0.498028 -0.551087
H151  H     H_    0.975570 0.352935 0.553311 0.364811
S36   S     S_3+6 0.118561 0.380130 0.552919 0.060464
O166  O     O_2   0.118945 0.420757 0.514103 -0.222422
O167  O     O_2   0.144683 0.343069 0.540419 -0.275497
O168  O     O_3   0.045911 0.367546 0.502999 -0.549299
H152  H     H_    0.027163 0.354013 0.447262 0.365732

loop_
_geom_bond_atom_site_label_1
_geom_bond_atom_site_label_2
_ccdc_geom_bond_type
C99   C103  A    
C190  H106  S    
O11   Zn11  S    
C55   C59   A    
O125  C181  S    
S7    O67   D    
C2    O2    A    
C6    C166  A    
C112  H16   S    
C184  H92   S    
O126  C184  S    
S5    O63   S    
S34   O162  S    
S24   O122  D    
C154  C158  A    
C57   C145  S    
C148  O12   A    
C20   C40   A    
C191  H109  S    
C198  H129  S    
C92   O32   A    
S3    O55   D    
C29   C33   A    
C100  C104  A    
C192  H112  S    
O43   Zn7   S    
S36   O166  D    
O57   H35   S    
S33   O157  D    
C135  O43   A    
C149  C153  A    
C64   C84   A    
C47   O23   A    
C8    C168  A    
O28   Zn8   S    
C152  C156  A    
C175  H55   S    
C142  O46   A    
C70   C74   A    
O32   Zn4   S    
C151  C155  A    
C171  H47   S    
C29   S33   S    
C182  H88   S    
C145  O13   A    
C10   C162  A    
C134  O38   A    
C41   C49   A    
O91   H73   S    
O47   Zn9   S    
C25   C29   A    
C97   H5    S    
C177  H59   S    
C27   C31   A    
S35   O163  D    
C164  C168  A    
C178  H63   S    
C62   C66   A    
S18   O105  D    
S25   O129  D    
O7    Zn10  S    
C92   O36   A    
C195  H123  S    
C17   C21   A    
C173  H50   S    
C61   S5    S    
C19   C23   A    
C78   C82   A    
O9    Zn9   S    
S11   O83   D    
C68   C72   A    
C188  H102  S    
C199  H131  S    
C94   S14   S    
C64   S8    S    
S29   O146  D    
C50   C54   A    
S9    O79   S    
C146  O14   A    
C1    C41   S    
C183  H89   S    
C48   C155  S    
C115  C139  A    
S25   O130  D    
C50   O142  S    
C136  O40   A    
S33   O159  S    
C113  C137  A    
S13   O91   S    
C132  C140  A    
C193  H117  S    
O100  H76   S    
C130  C138  A    
O124  H84   S    
C197  H126  S    
C184  C185  S    
C46   C153  S    
C15   H23   S    
S34   O160  D    
O63   H37   S    
C86   S10   S    
S6    O66   S    
C30   S34   S    
S24   O124  S    
C106  S22   S    
C138  C141  S    
C39   C43   A    
S15   O95   D    
C201  H135  S    
C119  C123  A    
O106  H78   S    
C71   O75   S    
C46   O22   A    
S36   O168  S    
C187  H99   S    
S32   O155  D    
C67   C136  S    
C18   C38   A    
C203  H140  S    
S13   O89   D    
S6    O65   D    
S26   O132  D    
C150  H2    S    
C127  S19   S    
C175  C176  S    
C49   C53   A    
O79   H69   S    
C51   C55   A    
C5    C165  A    
C142  O6    A    
C97   C117  A    
S10   O80   D    
C127  C131  A    
C186  H97   S    
C99   C119  A    
C178  H62   S    
C61   C65   A    
C129  C137  A    
O25   Zn5   S    
O44   Zn8   S    
S12   O86   D    
C2    O18   A    
C73   C77   A    
C103  C107  A    
C45   C154  S    
C60   C148  S    
O97   H75   S    
S21   O113  D    
C75   C79   A    
O29   Zn1   S    
S16   O98   D    
S17   O102  D    
C59   C147  S    
C137  C142  S    
C174  H53   S    
C21   S29   S    
O13   Zn10  S    
C18   H26   S    
C113  C117  A    
C140  C143  S    
C200  C201  S    
O31   Zn3   S    
C201  H137  S    
S14   O92   D    
C5    C149  A    
C66   C70   A    
C182  H87   S    
C190  H107  S    
C69   O73   S    
C173  C174  S    
C149  H1    S    
C64   C68   A    
C173  H51   S    
S7    O68   D    
C157  H17   S    
C147  O15   A    
S1    O49   D    
C48   O28   A    
C202  C203  S    
C65   C69   A    
C172  H49   S    
C199  C200  S    
C91   O35   A    
C53   S1    S    
O142  C196  S    
C10   S26   S    
C118  C122  A    
C157  C161  A    
C89   O33   A    
C85   C93   A    
C183  H91   S    
O51   H33   S    
C170  H44   S    
C87   C95   A    
C56   S4    S    
C141  O45   A    
S23   O120  D    
C189  H103  S    
C131  O127  S    
C9    C10   A    
C110  C114  A    
C67   C71   A    
C197  C198  S    
C188  C189  S    
C44   C52   A    
O75   C175  S    
C91   C123  S    
C13   C14   A    
O38   Zn2   S    
C133  O37   A    
C148  O16   A    
C11   C163  A    
S28   O138  D    
C171  H46   S    
C98   C118  A    
C145  O9    A    
C180  H67   S    
C169  H42   S    
O128  C190  S    
C30   C34   A    
C155  C159  A    
C187  C188  S    
C156  C160  A    
C27   H31   S    
O131  H113  S    
S21   O115  S    
C176  H58   S    
C95   S15   S    
O76   C178  S    
C48   O24   A    
C116  C120  A    
C91   O31   A    
S35   O164  D    
C84   C95   A    
C181  H85   S    
C62   S6    S    
C121  C125  A    
O150  H146  S    
C125  C129  A    
C123  C127  A    
S31   O151  D    
O88   H72   S    
C189  H105  S    
C111  H15   S    
C204  H142  S    
O18   Zn6   S    
S31   O153  S    
C9    C161  A    
C73   C85   A    
S22   O116  D    
S2    O53   D    
C42   C50   A    
S16   O100  S    
O3    Zn3   S    
O22   Zn2   S    
C75   C87   A    
S11   O84   D    
C26   C30   A    
C115  C119  A    
C74   C78   A    
C102  H10   S    
C203  H141  S    
S29   O147  S    
O41   Zn5   S    
O143  C199  S    
C12   S28   S    
S12   O87   D    
C112  C116  A    
C34   C58   A    
C182  C183  S    
C109  H13   S    
C21   C25   A    
O165  H151  S    
C49   O141  S    
O8    Zn9   S    
C18   C22   A    
C107  C111  A    
C68   C135  S    
C76   C80   A    
S20   O110  D    
S2    O54   S    
S1    O51   S    
C189  H104  S    
C202  H138  S    
S5    O62   D    
C179  C180  S    
O48   Zn10  S    
O1    Zn1   S    
C45   O21   A    
S24   O123  D    
O35   Zn7   S    
C61   C81   A    
C81   C94   A    
C191  C192  S    
C2    C42   S    
C83   C96   A    
O20   Zn8   S    
C183  H90   S    
C192  H111  S    
S36   O167  D    
C87   S11   S    
C114  C138  A    
C37   C41   A    
C26   H30   S    
C141  O5    A    
C131  C139  A    
O144  C202  S    
C96   S16   S    
C188  H101  S    
C14   H22   S    
C40   C44   A    
C47   O27   A    
S4    O58   D    
C175  H56   S    
O162  H150  S    
C196  C197  S    
C11   S27   S    
O140  H116  S    
C90   O30   A    
O16   Zn11  S    
C9    S25   S    
S29   O145  D    
C32   S36   S    
S28   O140  S    
C200  H133  S    
O5    Zn12  S    
S3    O57   S    
O6    Zn11  S    
C88   C96   A    
O118  H82   S    
C3    O3    A    
S27   O135  D    
C80   C84   A    
C1    O1    A    
O82   H70   S    
S27   O137  S    
C77   C78   A    
C128  S20   S    
S30   O148  D    
C24   S32   S    
C177  H60   S    
C160  C164  A    
C92   C124  S    
C106  C110  A    
O69   H39   S    
C129  O125  S    
S19   O109  S    
S15   O97   S    
C47   C156  S    
C126  C130  A    
C204  H144  S    
C185  H94   S    
C35   C59   A    
O153  H147  S    
C134  O42   A    
C7    C167  A    
C162  C166  A    
C17   H25   S    
C143  O7    A    
C4    O20   A    
C177  H61   S    
C199  H132  S    
C100  H8    S    
C107  S23   S    
O60   H36   S    
O14   Zn9   S    
C69   C73   A    
S9    O78   D    
C105  S21   S    
C65   C134  S    
C124  C128  A    
S8    O71   D    
C62   C82   A    
O168  H152  S    
C82   C93   A    
O54   H34   S    
S33   O158  D    
C193  H118  S    
S20   O112  S    
C147  O11   A    
C158  H18   S    
C70   O74   S    
C197  H127  S    
C195  H122  S    
C184  H93   S    
S34   O161  D    
O127  C187  S    
C24   C28   A    
C126  S18   S    
C167  C168  A    
C53   C57   A    
C191  H108  S    
C198  H130  S    
C201  H136  S    
C4    C44   S    
S10   O82   S    
O12   Zn12  S    
C33   C37   A    
C108  C112  A    
C63   C83   A    
C193  C194  S    
C187  H100  S    
C35   C39   A    
O72   H40   S    
O134  H114  S    
C125  S17   S    
C12   C164  A    
S26   O133  D    
S4    O60   S    
C28   C32   A    
C58   C146  S    
O17   Zn5   S    
O36   Zn8   S    
S10   O81   D    
C108  S24   S    
C5    C14   A    
O19   Zn7   S    
C7    C151  A    
C7    C16   A    
O21   Zn1   S    
O40   Zn4   S    
C8    C15   A    
C161  C165  A    
C31   C35   A    
C32   C36   A    
C104  C108  A    
O159  H149  S    
S26   O134  S    
S16   O99   D    
S17   O101  D    
O23   Zn3   S    
C8    C152  A    
O73   C169  S    
C31   S35   S    
C200  H134  S    
C178  C179  S    
S14   O93   D    
S19   O107  D    
S18   O104  D    
O10   Zn10  S    
C185  C186  S    
S21   O114  D    
C176  H57   S    
C98   C102  A    
C204  H143  S    
C79   C83   A    
C202  H139  S    
C43   C51   A    
C172  H48   S    
C89   C121  S    
C152  H4    S    
C143  O47   A    
C103  H11   S    
C153  C157  A    
O45   Zn11  S    
S14   O94   S    
C101  H9    S    
C174  H52   S    
C6    C150  A    
C56   C60   A    
O115  H81   S    
C110  H14   S    
C3    O19   A    
O137  H115  S    
C22   C26   A    
C194  C195  S    
C1    O17   A    
C144  O8    A    
C19   H27   S    
C165  C166  A    
C52   O144  S    
O112  H80   S    
C72   C76   A    
S18   O106  S    
S28   O139  D    
C151  H3    S    
C198  H128  S    
C180  H66   S    
O74   C172  S    
C169  C170  S    
C3    C43   S    
C54   S2    S    
C130  O126  S    
C28   H32   S    
C179  H65   S    
S32   O154  D    
C38   C42   A    
S13   O90   D    
S6    O64   D    
C98   H6    S    
C4    O4    A    
C159  H19   S    
C15   C16   A    
C72   O76   S    
C13   H21   S    
C90   O34   A    
C117  C121  A    
C186  H98   S    
C16   H24   S    
C133  O41   A    
C20   C24   A    
C135  O39   A    
S31   O152  D    
C100  C120  A    
C77   C81   A    
C86   C94   A    
O141  C193  S    
C76   C88   A    
S22   O117  D    
C109  C113  A    
S17   O103  S    
C174  H54   S    
C63   S7    S    
C90   C122  S    
C203  C204  S    
O37   Zn1   S    
C128  C132  A    
C146  O10   A    
S15   O96   D    
C101  C105  A    
C190  C191  S    
C63   C67   A    
C136  O44   A    
O39   Zn3   S    
C36   C40   A    
S7    O69   S    
O147  H145  S    
S22   O118  S    
S20   O111  D    
O156  H148  S    
S1    O50   D    
O24   Zn4   S    
O103  H77   S    
C172  C173  S    
O27   Zn7   S    
S8    O72   S    
S5    O61   D    
C170  H43   S    
C93   S13   S    
C23   S31   S    
O15   Zn12  S    
C122  C126  A    
C163  C167  A    
C66   C133  S    
C139  C144  S    
S23   O119  D    
C170  C171  S    
C51   O143  S    
C192  H110  S    
C46   O26   A    
S23   O121  S    
C99   H7    S    
C17   C37   A    
C74   C86   A    
C114  C118  A    
C19   C39   A    
O2    Zn2   S    
S4    O59   D    
C23   C27   A    
C196  H125  S    
C150  C154  A    
O42   Zn6   S    
C159  C163  A    
C160  H20   S    
C144  O48   A    
C171  H45   S    
O66   H38   S    
O121  H83   S    
C54   C58   A    
C180  H68   S    
S3    O56   D    
O34   Zn6   S    
C169  H41   S    
S8    O70   D    
C33   C57   A    
C34   C38   A    
C132  O128  S    
S32   O156  S    
C36   C60   A    
C176  C177  S    
C11   C12   A    
S27   O136  D    
O33   Zn5   S    
S30   O149  D    
S35   O165  S    
C194  H119  S    
C194  H120  S    
C45   O25   A    
C186  H96   S    
O30   Zn2   S    
O94   H74   S    
C6    C13   A    
C71   C75   A    
S19   O108  D    
C104  H12   S    
C181  H86   S    
C195  H121  S    
C88   S12   S    
C185  H95   S    
C102  C106  A    
C105  C109  A    
S12   O88   S    
O85   H71   S    
S25   O131  S    
C25   H29   S    
S2    O52   D    
C158  C162  A    
C79   C80   A    
O4    Zn4   S    
C120  C124  A    
O26   Zn6   S    
S11   O85   S    
C55   S3    S    
S30   O150  S    
C179  H64   S    
C22   S30   S    
C85   S9    S    
O109  H79   S    
C111  C115  A    
C89   O29   A    
S9    O77   D    
C196  H124  S    
C20   H28   S    
O46   Zn12  S    
C97   C101  A    
C52   C56   A    
C116  C140  A    
C181  C182  S    
