data_mof_unit_36454.cif
_audit_creation_date              2012-12-10T17:23:08-0500
_audit_creation_method            fapswitch 2.2
_symmetry_space_group_name_H-M    P1
_symmetry_Int_Tables_number       1
_space_group_crystal_system       triclinic
_cell_length_a                    15.863065
_cell_length_b                    10.867158
_cell_length_c                    9.58044
_cell_angle_alpha                 90.306265
_cell_angle_beta                  89.985912
_cell_angle_gamma                 92.530668
_cell_volume                      1649.90361977

loop_
_atom_site_label
_atom_site_type_symbol
_atom_type_description
_atom_site_fract_x
_atom_site_fract_y
_atom_site_fract_z
_atom_type_partial_charge
C1    C     C_R   0.506532 0.263016 0.500457 0.801319
C2    C     C_3   0.082826 0.500782 0.500320 0.063215
C3    C     C_3   0.975073 0.608227 0.446501 -0.208252
C4    C     C_3   0.917154 0.501272 0.499556 0.105175
C5    C     C_3   0.027883 0.512925 0.370698 0.506564
C6    C     C_3   0.968743 0.406214 0.421283 -0.206635
C7    C     C_1   0.174562 0.500368 0.500366 0.037235
C8    C     C_1   0.825461 0.501219 0.499777 -0.017844
C9    C     C_R   0.552204 0.121582 0.756243 -0.156354
C10   C     C_R   0.541208 0.063345 0.884528 -0.157841
C11   C     C_R   0.499399 0.948639 0.890637 -0.133832
C12   C     C_R   0.339884 0.499647 0.500004 0.830346
C13   C     C_R   0.476505 0.886928 0.767544 -0.152315
C14   C     C_R   0.496020 0.939196 0.635232 0.091185
C15   C     C_R   0.521399 0.064972 0.631435 0.095952
C16   C     C_R   0.513830 0.129139 0.503478 -0.118337
C17   C     C_R   0.501758 0.063101 0.378765 -0.204856
C18   C     C_R   0.494597 0.935934 0.380015 -0.204439
C19   C     C_R   0.491649 0.872195 0.506749 -0.109529
C20   C     C_R   0.611497 0.664997 0.145009 -0.146687
C21   C     C_R   0.665425 0.746226 0.073081 -0.206172
C22   C     C_R   0.665518 0.746005 0.929316 -0.184759
C23   C     C_R   0.495241 0.737563 0.501452 0.778374
C24   C     C_R   0.611566 0.664715 0.856629 -0.138641
C25   C     C_R   0.554721 0.581177 0.925568 0.191822
C26   C     C_R   0.554690 0.581216 0.075261 0.206251
C27   C     C_R   0.448235 0.422381 0.073491 -0.043600
C28   C     C_R   0.448260 0.422413 0.925482 -0.051335
C29   C     C_R   0.660115 0.500477 0.500009 0.797775
C30   C     C_3   0.971272 0.488927 0.631418 -0.121019
C31   C     C_3   0.024538 0.394136 0.553169 -0.213246
C32   C     C_1   0.250133 0.500002 0.500146 -0.133895
C33   C     C_1   0.749871 0.500941 0.499935 -0.170833
C34   C     C_3   0.030869 0.595604 0.578337 -0.217080
Cu1   Cu    Cu3+1 0.499990 0.499990 0.640660 0.930329
Cu2   Cu    Cu3+1 0.500010 0.500010 0.359340 0.951036
H1    H     H_    0.045946 0.306571 0.597275 0.166571
H2    H     H_    0.486320 0.906045 0.990704 0.141549
H3    H     H_    0.440987 0.800683 0.779146 0.174350
H4    H     H_    0.490015 0.887593 0.280917 0.166433
H5    H     H_    0.405847 0.358763 0.128462 0.149516
H6    H     H_    0.617631 0.672056 0.254984 0.199247
H7    H     H_    0.707778 0.809479 0.129646 0.157703
H8    H     H_    0.707772 0.809292 0.873339 0.157240
H9    H     H_    0.617204 0.672113 0.746698 0.200593
H10   H     H_    0.405923 0.358764 0.869714 0.152310
H11   H     H_    0.946428 0.478981 0.739294 0.156678
H12   H     H_    0.942409 0.329234 0.355724 0.166832
H13   H     H_    0.953879 0.695554 0.401462 0.164933
H14   H     H_    0.057452 0.672941 0.643096 0.168036
H15   H     H_    0.497897 0.109659 0.279396 0.162757
H16   H     H_    0.586655 0.209578 0.756341 0.165178
H17   H     H_    0.562988 0.108841 0.979519 0.137625
N1    N     N_R   0.500800 0.501210 0.147910 -0.201723
N2    N     N_R   0.500830 0.501290 0.852040 -0.206801
O1    O     O_R   0.499990 0.319640 0.618810 -0.590070
O2    O     O_R   0.500000 0.319660 0.381240 -0.582865
O3    O     O_R   0.379070 0.499980 0.618770 -0.575309
O4    O     O_R   0.379080 0.500000 0.381190 -0.553083
O5    O     O_R   0.500000 0.680340 0.618760 -0.615874
O6    O     O_R   0.500010 0.680360 0.381190 -0.598958
O7    O     O_R   0.620920 0.500000 0.618810 -0.596881
O8    O     O_R   0.620930 0.500020 0.381230 -0.588621
S1    S     S_3+6 0.066110 0.528898 0.196636 -0.006733
O9    O     O_2   0.122217 0.643598 0.186694 -0.290212
O10   O     O_2   0.115382 0.418568 0.158754 -0.294245
O11   O     O_3   0.983892 0.538978 0.087244 -0.543241
H18   H     H_    0.009490 0.548399 0.993369 0.367988

loop_
_geom_bond_atom_site_label_1
_geom_bond_atom_site_label_2
_ccdc_geom_bond_type
Cu1   O1    S    
C11   H2    S    
C19   C23   S    
C24   C25   A    
C29   O8    A    
Cu2   O6    S    
C1    O2    A    
Cu2   O8    S    
C9    C10   A    
C27   H5    S    
C20   H6    S    
C2    C7    S    
C14   C15   A    
C30   C31   S    
C4    C8    S    
Cu2   O4    S    
C12   O3    A    
S1    O9    D    
C17   H15   S    
S1    O10   D    
C17   C18   A    
C3    H13   S    
C27   N1    A    
C4    C30   S    
C1    C16   S    
C21   H7    S    
C13   C14   A    
C12   C32   S    
C11   C13   A    
C28   H10   S    
C5    C6    S    
C9    H16   S    
C20   C26   A    
Cu1   O3    S    
C24   H9    S    
C26   N1    A    
C28   N2    A    
C6    C31   S    
Cu1   O7    S    
C8    C33   T    
C9    C15   A    
C23   O5    A    
C2    C34   S    
C22   C24   A    
C34   H14   S    
C2    C5    S    
C13   H3    S    
C15   C16   A    
C30   C34   S    
Cu1   N2    S    
O11   H18   S    
Cu1   O5    S    
S1    O11   S    
C29   C33   S    
C30   H11   S    
C23   O6    A    
Cu2   N1    S    
C20   C21   A    
Cu2   O2    S    
C4    C6    S    
C18   C19   A    
C10   C11   A    
C27   C28   A    
C10   H17   S    
C18   H4    S    
C29   O7    A    
C16   C17   A    
C7    C32   T    
C3    C34   S    
C25   C26   A    
C21   C22   A    
C12   O4    A    
C14   C19   A    
C1    O1    A    
C22   H8    S    
C3    C4    S    
C25   N2    A    
C5    S1    S    
C31   H1    S    
C2    C31   S    
C3    C5    S    
Cu1   Cu2   S    
C6    H12   S    
