data_mof_unit_38579.cif
_audit_creation_date              2012-12-11T16:37:42-0500
_audit_creation_method            fapswitch 2.2
_symmetry_space_group_name_H-M    P1
_symmetry_Int_Tables_number       1
_space_group_crystal_system       triclinic
_cell_length_a                    18.819856
_cell_length_b                    18.836105
_cell_length_c                    20.570121
_cell_angle_alpha                 107.466279
_cell_angle_beta                  106.370437
_cell_angle_gamma                 110.372383
_cell_volume                      5880.7290352

loop_
_atom_site_label
_atom_site_type_symbol
_atom_type_description
_atom_site_fract_x
_atom_site_fract_y
_atom_site_fract_z
_atom_type_partial_charge
C1    C     C_R   0.070636 0.085230 0.347623 0.545222
C2    C     C_R   0.246828 0.068918 0.529612 -0.151414
C3    C     C_3   0.229279 0.181775 0.894626 0.256016
C4    C     C_3   0.239969 0.124879 0.932045 -0.322407
C5    C     C_3   0.200803 0.127845 0.987862 -1.011290
C6    C     C_3   0.002418 0.188549 0.094408 0.220352
C7    C     C_3   0.970114 0.248904 0.080124 -0.248667
C8    C     C_3   0.037496 0.324095 0.081271 -1.045118
C9    C     C_3   0.732161 0.764710 0.788876 0.168321
C10   C     C_3   0.669884 0.783641 0.816153 -0.305826
C11   C     C_3   0.579923 0.712820 0.765868 -0.973570
C12   C     C_3   0.174543 0.307695 0.509883 0.296361
C13   C     C_R   0.162033 0.198846 0.718459 0.590149
C14   C     C_3   0.177748 0.384019 0.567909 -0.402970
C15   C     C_3   0.265832 0.441634 0.632199 -0.972283
C16   C     C_R   0.761810 0.927630 0.504166 -0.143950
C17   C     C_R   0.007625 0.766757 0.441881 0.503741
C18   C     C_R   0.243916 0.229475 0.726168 0.039378
C19   C     C_R   0.966514 0.720593 0.472761 -0.015874
C20   C     C_R   0.256205 0.996545 0.515051 0.139512
C21   C     C_R   0.930586 0.978998 0.708966 0.062670
C22   C     C_R   0.843408 0.337673 0.424011 -0.237970
C23   C     C_R   0.866020 0.283031 0.446354 -0.176763
C24   C     C_R   0.757804 0.997581 0.547072 0.043340
C25   C     C_R   0.931939 0.270570 0.435103 0.100772
C26   C     C_R   0.956563 0.293767 0.382822 -0.214732
C27   C     C_R   0.930883 0.344750 0.356668 0.493744
C28   C     C_R   0.839904 0.785635 0.285093 -0.192828
C29   C     C_R   0.883760 0.376135 0.387127 -0.044876
C30   C     C_R   0.985923 0.526015 0.445683 -0.124210
C31   C     C_R   0.006072 0.609960 0.468331 -0.238898
C32   C     C_R   0.942309 0.632154 0.451164 0.033502
C33   C     C_R   0.857185 0.570145 0.410091 0.562434
C34   C     C_R   0.837366 0.484772 0.386206 -0.382537
C35   C     C_R   0.761528 0.740887 0.282299 0.181261
C36   C     C_R   0.901744 0.463157 0.404403 0.121904
C37   C     C_R   0.589345 0.934436 0.614858 0.496420
C38   C     C_R   0.651076 0.932699 0.590263 -0.212698
C39   C     C_R   0.698038 0.000452 0.579239 0.052972
C40   C     C_R   0.956684 0.204478 0.528037 0.434903
C41   C     C_R   0.688460 0.073333 0.599649 -0.219131
C42   C     C_R   0.626544 0.075210 0.622687 -0.137544
C43   C     C_R   0.572596 0.003999 0.625367 0.012074
C44   C     C_R   0.473185 0.057070 0.651328 0.584960
C45   C     C_R   0.397559 0.057484 0.618578 -0.395906
C46   C     C_R   0.973866 0.232975 0.475907 -0.235226
C47   C     C_R   0.333643 0.991652 0.548453 -0.061583
C48   C     C_R   0.344092 0.921653 0.512607 0.551888
C49   C     C_R   0.422132 0.924957 0.543017 -0.375813
C50   C     C_R   0.487267 0.992482 0.610959 -0.118349
C51   C     C_R   0.321131 0.275256 0.796521 -0.144729
C52   C     C_R   0.765476 0.780692 0.352293 -0.052541
C53   C     C_R   0.325024 0.247869 0.853649 0.535099
C54   C     C_R   0.398643 0.292589 0.921256 -0.397016
C55   C     C_R   0.465963 0.365708 0.933102 0.184966
C56   C     C_R   0.463150 0.389088 0.874726 -0.362641
C57   C     C_R   0.238834 0.204411 0.653875 -0.247274
C58   C     C_R   0.391857 0.343517 0.805484 0.494559
C59   C     C_R   0.667115 0.511935 0.148964 0.532073
C60   C     C_R   0.724944 0.595855 0.198626 -0.264868
C61   C     C_R   0.580562 0.486257 0.127253 0.002156
C62   C     C_R   0.698450 0.653674 0.228657 -0.106645
C63   C     C_R   0.613073 0.626003 0.213192 0.544692
C64   C     C_R   0.035835 0.212843 0.465743 0.463808
C65   C     C_R   0.554586 0.542162 0.161512 -0.399743
C66   C     C_R   0.020650 0.023363 0.204630 -0.189419
C67   C     C_R   0.036499 0.969611 0.153163 0.506670
C68   C     C_R   0.932667 0.764653 0.507909 -0.192575
C69   C     C_R   0.013393 0.962675 0.079804 -0.422296
C70   C     C_R   0.975379 0.008507 0.058127 -0.013589
C71   C     C_R   0.969212 0.070089 0.112061 0.445432
C72   C     C_R   0.987753 0.074953 0.184327 0.349416
C73   C     C_R   0.868844 0.044277 0.865963 -0.258719
C74   C     C_R   0.888208 0.044075 0.805666 -0.178855
C75   C     C_R   0.850591 0.973563 0.880034 0.091212
C76   C     C_R   0.831751 0.067125 0.568470 -0.046837
C77   C     C_R   0.889633 0.972951 0.759533 0.095516
C78   C     C_R   0.857545 0.897700 0.766503 -0.349082
C79   C     C_R   0.176699 0.928977 0.470817 -0.139252
C80   C     C_R   0.835395 0.897005 0.825750 0.561410
C81   C     C_R   0.993780 0.945272 0.282713 -0.164950
C82   C     C_R   0.030036 0.018430 0.275753 -0.026851
C83   C     C_3   0.208879 0.143435 0.370985 0.209549
C84   C     C_3   0.291812 0.223299 0.426653 -0.308861
C85   C     C_3   0.367025 0.208911 0.427934 -0.995016
C86   C     C_3   0.096204 0.273483 0.757151 0.091764
C87   C     C_3   0.158035 0.361432 0.771149 -0.292625
C88   C     C_3   0.113546 0.413251 0.758171 -0.972143
C89   C     C_3   0.016748 0.744562 0.326868 0.162609
C90   C     C_R   0.980815 0.052558 0.708366 -0.112550
C91   C     C_3   0.975490 0.657663 0.259853 -0.291922
C92   C     C_3   0.954744 0.662832 0.184695 -0.975954
C93   C     C_3   0.908898 0.364275 0.249136 0.217198
C94   C     C_3   0.950666 0.427024 0.221815 -0.297746
C95   C     C_3   0.888980 0.413926 0.147334 -0.988834
C96   C     C_3   0.731441 0.564477 0.408153 0.157300
C97   C     C_3   0.647482 0.507013 0.338006 -0.256195
C98   C     C_3   0.574168 0.481059 0.359112 -1.037616
C99   C     C_3   0.535299 0.109536 0.779926 0.187453
C100  C     C_3   0.480420 0.140339 0.810296 -0.307736
C101  C     C_R   0.913075 0.912806 0.644247 -0.119638
C102  C     C_3   0.487926 0.134976 0.884289 -0.973863
C103  C     C_3   0.256106 0.778664 0.442587 0.152038
C104  C     C_3   0.212716 0.709171 0.361687 -0.217846
C105  C     C_3   0.168878 0.621958 0.357958 -1.011041
C106  C     C_3   0.450161 0.375052 0.725882 0.170767
C107  C     C_3   0.501805 0.464644 0.737330 -0.268158
C108  C     C_3   0.568029 0.469324 0.707360 -1.021313
C109  C     C_3   0.544527 0.661134 0.283775 0.160206
C110  C     C_3   0.536535 0.736455 0.329156 -0.253855
C111  C     C_3   0.499732 0.719449 0.383519 -1.010212
H1    H     H_    0.886308 0.741480 0.528019 0.122657
H2    H     H_    0.036197 0.510033 0.461386 0.144937
H3    H     H_    0.307826 0.145232 0.962351 0.196814
H4    H     H_    0.231416 0.193248 0.033285 0.265256
H5    H     H_    0.209549 0.086003 0.014026 0.278226
H6    H     H_    0.132359 0.105736 0.958344 0.270410
H7    H     H_    0.022270 0.165372 0.049715 0.087659
H8    H     H_    0.057771 0.223959 0.150783 0.111856
H9    H     H_    0.914458 0.214869 0.024529 0.192130
H10   H     H_    0.950334 0.272127 0.124474 0.213865
H11   H     H_    0.092999 0.360208 0.137147 0.272768
H12   H     H_    0.011873 0.366660 0.071021 0.281167
H13   H     H_    0.071489 0.657856 0.499562 0.149497
H14   H     H_    0.057272 0.302198 0.036356 0.270070
H15   H     H_    0.956729 0.106795 0.267256 0.313462
H16   H     H_    0.725663 0.703164 0.787152 0.140565
H17   H     H_    0.716216 0.757013 0.729818 0.087216
H18   H     H_    0.687042 0.791385 0.875088 0.218742
H19   H     H_    0.673024 0.843439 0.815549 0.195167
H20   H     H_    0.561612 0.703504 0.706473 0.276938
H21   H     H_    0.536375 0.729487 0.785941 0.272074
H22   H     H_    0.573944 0.653029 0.768241 0.263407
H23   H     H_    0.078858 0.888598 0.132432 0.318010
H24   H     H_    0.772746 0.435582 0.353007 0.143494
H25   H     H_    0.221714 0.332066 0.489023 0.132969
H26   H     H_    0.193545 0.270042 0.536876 0.082692
H27   H     H_    0.158585 0.420403 0.539477 0.223919
H28   H     H_    0.133724 0.362327 0.592498 0.201438
H29   H     H_    0.285137 0.406387 0.661846 0.299163
H30   H     H_    0.266193 0.495854 0.673360 0.276495
H31   H     H_    0.311612 0.466216 0.610067 0.261445
H32   H     H_    0.660805 0.877671 0.578251 0.141547
H33   H     H_    0.724688 0.126917 0.592451 0.146520
H34   H     H_    0.614633 0.128647 0.629412 0.167491
H35   H     H_    0.860619 0.766300 0.242257 0.100246
H36   H     H_    0.389572 0.110393 0.647814 0.160364
H37   H     H_    0.434206 0.877894 0.509477 0.182675
H38   H     H_    0.790884 0.615968 0.213555 0.171644
H39   H     H_    0.161408 0.864333 0.452650 0.173168
H40   H     H_    0.514947 0.446213 0.884818 0.159270
H41   H     H_    0.402554 0.271613 0.965056 0.153337
H42   H     H_    0.488010 0.522458 0.142294 0.168093
H43   H     H_    0.908164 0.101735 0.799231 0.121895
H44   H     H_    0.878676 0.102734 0.906920 0.151797
H45   H     H_    0.856441 0.841548 0.730604 0.138762
H46   H     H_    0.021501 0.918727 0.038309 0.181369
H47   H     H_    0.721931 0.756165 0.374448 0.090929
H48   H     H_    0.856292 0.128304 0.614550 0.144269
H49   H     H_    0.962671 0.881030 0.239302 0.160848
H50   H     H_    0.995708 0.115617 0.744282 0.117333
H51   H     H_    0.290304 0.223996 0.639232 0.144274
H52   H     H_    0.206013 0.124572 0.313219 0.126489
H53   H     H_    0.207993 0.092215 0.388033 0.101632
H54   H     H_    0.295361 0.275289 0.410527 0.210533
H55   H     H_    0.294700 0.242372 0.484361 0.179894
H56   H     H_    0.365661 0.158444 0.445707 0.271531
H57   H     H_    0.426113 0.268070 0.468820 0.266990
H58   H     H_    0.366388 0.190577 0.371080 0.271992
H59   H     H_    0.064921 0.281713 0.795210 0.140159
H60   H     H_    0.045179 0.238089 0.698506 0.130787
H61   H     H_    0.865184 0.848019 0.620661 0.084465
H62   H     H_    0.207653 0.395481 0.830222 0.214316
H63   H     H_    0.188660 0.355269 0.732311 0.202594
H64   H     H_    0.065712 0.381556 0.698665 0.268000
H65   H     H_    0.160109 0.476556 0.769611 0.269264
H66   H     H_    0.082650 0.421386 0.796568 0.266634
H67   H     H_    0.073855 0.786801 0.325182 0.134404
H68   H     H_    0.974070 0.772160 0.321105 0.097338
H69   H     H_    0.018714 0.629865 0.265778 0.216594
H70   H     H_    0.917410 0.614858 0.259887 0.216053
H71   H     H_    0.909756 0.688240 0.175538 0.261126
H72   H     H_    0.297230 0.132563 0.557416 0.095759
H73   H     H_    0.925697 0.598727 0.137772 0.279589
H74   H     H_    0.012889 0.704001 0.183553 0.271574
H75   H     H_    0.854587 0.372117 0.254757 0.094940
H76   H     H_    0.884518 0.298674 0.206395 0.115155
H77   H     H_    0.975137 0.492152 0.265326 0.213038
H78   H     H_    0.004521 0.420062 0.214466 0.218263
H79   H     H_    0.862324 0.348654 0.103075 0.264232
H80   H     H_    0.922216 0.459014 0.128349 0.272674
H81   H     H_    0.837140 0.425365 0.154847 0.304017
H82   H     H_    0.728611 0.620547 0.442816 0.112584
H83   H     H_    0.802930 0.357808 0.443848 0.148172
H84   H     H_    0.741300 0.531195 0.443874 0.079178
H85   H     H_    0.638173 0.540902 0.303318 0.196909
H86   H     H_    0.648209 0.449506 0.303393 0.195025
H87   H     H_    0.581320 0.445700 0.392944 0.273488
H88   H     H_    0.514375 0.439756 0.306885 0.274527
H89   H     H_    0.571108 0.537711 0.392215 0.264018
H90   H     H_    0.508395 0.878689 0.647644 0.311753
H91   H     H_    0.600782 0.145495 0.824963 0.141166
H92   H     H_    0.514559 0.041708 0.767333 0.071652
H93   H     H_    0.499853 0.206921 0.819927 0.213480
H94   H     H_    0.835209 0.255659 0.476208 0.166336
H95   H     H_    0.413542 0.100924 0.768310 0.198489
H96   H     H_    0.469232 0.068976 0.876089 0.263763
H97   H     H_    0.445797 0.155370 0.903607 0.275443
H98   H     H_    0.553530 0.176885 0.928633 0.264912
H99   H     H_    0.210791 0.771643 0.468137 0.127129
H100  H     H_    0.307410 0.769383 0.475415 0.097842
H101  H     H_    0.165940 0.720418 0.325486 0.210309
H102  H     H_    0.260257 0.711170 0.339212 0.194141
H103  H     H_    0.215038 0.609170 0.393198 0.272633
H104  H     H_    0.139011 0.573077 0.298604 0.264206
H105  H     H_    0.998819 0.276619 0.364206 0.226882
H106  H     H_    0.119396 0.617796 0.378205 0.287822
H107  H     H_    0.650049 0.399692 0.091925 0.316457
H108  H     H_    0.419242 0.332118 0.664444 0.110471
H109  H     H_    0.492896 0.353340 0.753542 0.094759
H110  H     H_    0.459353 0.484629 0.707145 0.211482
H111  H     H_    0.533493 0.508982 0.798441 0.197848
H112  H     H_    0.612100 0.450952 0.737655 0.274960
H113  H     H_    0.604496 0.534872 0.716296 0.265138
H114  H     H_    0.537515 0.426648 0.645876 0.268874
H115  H     H_    0.579867 0.643532 0.323995 0.090552
H116  H     H_    0.720805 0.862389 0.488268 0.095110
H117  H     H_    0.480327 0.607210 0.246180 0.110995
H118  H     H_    0.599471 0.793072 0.362072 0.202872
H119  H     H_    0.495433 0.750188 0.289695 0.209427
H120  H     H_    0.436222 0.663601 0.351845 0.270181
H121  H     H_    0.494354 0.775169 0.414992 0.278492
H122  H     H_    0.541295 0.708048 0.424918 0.265171
H123  H     H_    0.933868 0.289262 0.582456 0.306930
H124  H     H_    0.160967 0.160423 0.865717 0.160076
H125  H     H_    0.257968 0.248137 0.938517 0.078068
H126  H     H_    0.209171 0.058704 0.887845 0.221388
N1    N     N_R   0.051550 0.054780 0.395070 -0.108658
N2    N     N_2   0.519343 0.415412 0.058925 -0.077757
N3    N     N_2   0.944723 0.991864 0.981555 -0.035274
N4    N     N_R   0.835860 0.954800 0.499920 -0.044011
N5    N     N_2   0.873901 0.987105 0.955475 -0.025023
N6    N     N_R   0.889940 0.849160 0.355180 -0.050925
N7    N     N_R   0.997480 0.160420 0.539810 -0.110633
N8    N     N_R   0.842280 0.845520 0.395070 -0.051171
N9    N     N_R   0.045130 0.164060 0.499920 -0.133279
N10   N     N_R   0.878630 0.041580 0.539810 -0.043366
N11   N     N_R   0.008780 0.968000 0.355180 -0.084389
N12   N     N_R   0.954870 0.835940 0.500080 -0.064735
N13   N     N_R   0.157720 0.154480 0.604930 -0.076848
N14   N     N_R   0.121370 0.958420 0.460190 -0.056316
N15   N     N_R   0.991220 0.032000 0.644820 -0.045270
N16   N     N_R   0.948450 0.945220 0.604930 -0.038096
N17   N     N_R   0.164140 0.045200 0.500080 -0.040937
N18   N     N_R   0.110060 0.150840 0.644820 -0.115800
N19   N     N_R   0.002520 0.839580 0.460190 -0.107576
N20   N     N_2   0.532643 0.424081 0.005080 -0.049371
Ni1   Ni    Ni4+2 0.103690 0.103690 0.500000 0.201845
Ni2   Ni    Ni4+2 0.896310 0.896310 0.500000 0.200310
Ni3   Ni    Ni4+2 0.005600 0.904650 0.408510 0.198808
Ni4   Ni    Ni4+2 0.994400 0.095350 0.591490 0.210890
O1    O     O_3   0.141170 0.160063 0.371406 -0.630915
O2    O     O_3   0.386290 0.372125 0.750376 -0.671845
O3    O     O_3   0.586774 0.684130 0.240535 -0.653303
O4    O     O_3   0.920441 0.230398 0.573152 -0.803119
O5    O     O_3   0.260131 0.172169 0.838802 -0.656809
O6    O     O_3   0.937386 0.120535 0.092580 -0.620213
O7    O     O_3   0.969785 0.128461 0.231617 -0.702633
O8    O     O_3   0.815976 0.826911 0.839812 -0.657249
O9    O     O_3   0.072426 0.923064 0.175253 -0.757691
O10   O     O_3   0.095090 0.257582 0.446427 -0.630110
O11   O     O_3   0.138699 0.228002 0.774756 -0.697635
O12   O     O_3   0.040601 0.735890 0.394336 -0.698821
O13   O     O_3   0.969740 0.379469 0.317664 -0.658694
O14   O     O_3   0.796274 0.593681 0.385747 -0.670502
O15   O     O_3   0.542628 0.864849 0.622194 -0.771122
O16   O     O_3   0.537038 0.125952 0.717471 -0.673211
O17   O     O_3   0.284822 0.858321 0.441281 -0.668153
O18   O     O_3   0.696667 0.458405 0.119620 -0.766235

loop_
_geom_bond_atom_site_label_1
_geom_bond_atom_site_label_2
_ccdc_geom_bond_type
C68   N12   A    
C106  H109  S    
C87   C88   S    
C63   C65   A    
C17   N19   A    
C93   C94   S    
C105  H104  S    
C22   C29   A    
C59   O18   S    
C58   O2    S    
C27   C29   A    
C111  H120  S    
C41   C42   A    
C12   O10   S    
C83   H53   S    
C78   H45   S    
C52   N8    A    
C45   H36   S    
C97   C98   S    
C93   H75   S    
C7    C8    S    
C76   H48   S    
C91   H69   S    
C77   C78   A    
C5    H4    S    
C40   C46   A    
C6    O6    S    
C29   C36   S    
C26   C27   A    
C9    H16   S    
C88   H64   S    
C13   C18   A    
C83   C84   S    
C97   H85   S    
C4    H3    S    
C110  H118  S    
C94   H77   S    
C31   H13   S    
C12   H26   S    
C11   H22   S    
C37   O15   S    
C68   H1    S    
C38   C39   A    
C108  H113  S    
C78   C80   A    
C106  C107  S    
N17   Ni1   S    
C53   O5    S    
C13   N18   A    
C72   O7    S    
C24   C39   S    
C74   H43   S    
C101  H61   S    
C26   H105  S    
C80   O8    S    
C38   H32   S    
N16   Ni2   S    
C110  C111  S    
C65   H42   S    
C84   H54   S    
C110  H119  S    
C95   H79   S    
C3    H124  S    
N11   Ni3   S    
C67   O9    S    
C98   H89   S    
C96   H84   S    
C66   C72   A    
C57   H51   S    
N18   Ni4   S    
C28   C35   A    
C56   C58   A    
H107  O18   S    
N6    N8    A    
C74   C77   A    
C69   H46   S    
C4    H126  S    
C70   C71   A    
C28   N6    A    
N6    Ni3   S    
C89   C91   S    
C9    C10   S    
C57   N13   A    
C79   N14   A    
C95   H80   S    
C2    H72   S    
C107  H111  S    
C21   C101  A    
C16   N4    A    
C23   C25   A    
C66   C67   A    
C59   C60   A    
C16   C24   A    
C81   H49   S    
C15   H30   S    
C109  O3    S    
C11   H21   S    
C89   O12   S    
C111  H121  S    
C73   C75   A    
C81   N11   A    
H15   O7    S    
C94   C95   S    
C70   N3    S    
N12   Ni2   S    
C19   C32   S    
C2    N17   A    
C103  H99   S    
C100  C102  S    
C104  C105  S    
C109  H117  S    
C18   C51   S    
C81   C82   A    
C21   C90   A    
C45   C47   A    
C73   C74   A    
C52   H47   S    
C87   H62   S    
C92   H74   S    
C59   C61   A    
C9    H17   S    
C98   H87   S    
C90   H50   S    
C2    C20   A    
C86   H60   S    
C61   N2    S    
C47   C48   A    
C14   H27   S    
C88   H66   S    
C84   C85   S    
C41   H33   S    
C39   C41   A    
C92   H73   S    
C13   O11   S    
C103  H100  S    
C91   C92   S    
C108  H112  S    
C100  H95   S    
C86   C87   S    
C24   C76   A    
N14   N17   A    
C54   H41   S    
C33   O14   S    
C25   C26   A    
C53   C54   A    
C90   N15   A    
C85   H58   S    
C49   H37   S    
C46   C64   A    
C67   C69   A    
C85   H56   S    
C37   C43   A    
C95   H81   S    
C101  N16   A    
C10   H19   S    
C37   C38   A    
N9    Ni1   S    
C64   O10   S    
C97   H86   S    
C3    H125  S    
C66   C82   S    
C15   H31   S    
N4    N10   A    
C7    H10   S    
C18   C57   A    
C55   N20   S    
C44   O16   S    
C107  C108  S    
C96   C97   S    
C73   H44   S    
C55   C56   A    
N3    N5    D    
C33   C34   A    
C19   C68   A    
C43   C50   S    
C51   C58   A    
N10   Ni4   S    
C89   H67   S    
C56   H40   S    
C40   N7    A    
N15   Ni4   S    
C27   O13   S    
C98   H88   S    
C48   C49   A    
C12   C14   S    
C99   O16   S    
C105  H106  S    
C79   H39   S    
C5    H5    S    
C12   H25   S    
C106  H108  S    
C76   N10   A    
C42   C43   A    
C104  H101  S    
C21   C77   S    
C3    C4    S    
C93   H76   S    
C6    H8    S    
C35   C52   A    
C44   C45   A    
C63   O3    S    
C15   H29   S    
C75   C80   A    
C44   C50   A    
N13   N18   A    
C87   H63   S    
C83   H52   S    
C54   C55   A    
C96   H82   S    
C71   O6    S    
C105  H103  S    
N4    Ni2   S    
C20   C79   A    
C99   H92   S    
C86   H59   S    
C85   H57   S    
C9    O8    S    
C7    H9    S    
N2    N20   D    
C31   C32   A    
C4    C5    S    
H123  O4    S    
C11   H20   S    
C104  H102  S    
C17   O12   S    
C109  H115  S    
C102  H98   S    
C6    C7    S    
C48   O17   S    
C1    N1    A    
H23   O9    S    
C28   H35   S    
C88   H65   S    
C99   C100  S    
C30   C36   A    
C32   C33   A    
C91   H70   S    
C1    C82   A    
C94   H78   S    
C86   O11   S    
C93   O13   S    
C99   H91   S    
C75   N5    S    
C92   H71   S    
C109  C110  S    
C40   O4    S    
C60   C62   A    
C100  H93   S    
C8    H11   S    
C22   C23   A    
C30   C31   A    
C34   H24   S    
N19   Ni3   S    
C106  O2    S    
C111  H122  S    
N7    N9    A    
N1    Ni1   S    
C35   C62   S    
C34   C36   A    
C60   H38   S    
C89   H68   S    
C8    H12   S    
C69   C70   A    
N8    Ni2   S    
C102  H96   S    
C10   H18   S    
C20   C47   S    
C84   H55   S    
C10   C11   S    
H90   O15   S    
C1    O1    S    
C17   C19   A    
C61   C65   A    
C8    H14   S    
C71   C72   A    
C64   N9    A    
C14   H28   S    
N14   Ni3   S    
N12   N19   A    
C49   C50   A    
C108  H114  S    
C5    H6    S    
C103  C104  S    
C3    O5    S    
C96   O14   S    
C14   C15   S    
C22   H83   S    
C83   O1    S    
C16   H116  S    
N7    Ni4   S    
C103  O17   S    
C51   C53   A    
C62   C63   A    
C42   H34   S    
C102  H97   S    
C25   C46   S    
N13   Ni1   S    
C23   H94   S    
C6    H7    S    
N15   N16   A    
C107  H110  S    
C30   H2    S    
N1    N11   A    
