data_mof_unit_13900.cif
_audit_creation_date              2013-03-05T16:09:51-0500
_audit_creation_method            fapswitch 2.2
_symmetry_space_group_name_H-M    P1
_symmetry_Int_Tables_number       1
_space_group_crystal_system       triclinic
_cell_length_a                    6.940936
_cell_length_b                    13.381528
_cell_length_c                    14.697048
_cell_angle_alpha                 98.971116
_cell_angle_beta                  89.791619
_cell_angle_gamma                 90.307811
_cell_volume                      1348.34303213

loop_
_atom_site_label
_atom_site_type_symbol
_atom_site_description
_atom_site_fract_x
_atom_site_fract_y
_atom_site_fract_z
_atom_type_partial_charge
O1    O     O_R   0.354890 0.151580 0.148210 -0.592495
O2    O     O_R   0.645110 0.848420 0.851790 -0.592503
O3    O     O_R   0.682370 0.152980 0.336770 -0.585497
O4    O     O_R   0.317630 0.847020 0.663230 -0.585497
O5    O     O_R   0.854980 0.348430 0.351800 -0.575845
O6    O     O_R   0.145020 0.651570 0.648200 -0.575845
C1    C     C_R   0.513435 0.132091 0.366816 1.036550
C2    C     C_R   0.486565 0.867909 0.633184 1.036547
O7    O     O_R   0.684450 0.139580 0.148000 -0.574915
O8    O     O_R   0.315550 0.860420 0.852000 -0.574910
O9    O     O_R   0.857080 0.334940 0.161680 -0.585740
O10   O     O_R   0.142920 0.665060 0.838320 -0.585726
C3    C     C_R   0.515519 0.112679 0.114020 1.007419
C4    C     C_R   0.484480 0.887321 0.885980 1.007442
O11   O     O_R   0.352790 0.165070 0.338330 -0.600538
O12   O     O_R   0.647210 0.834930 0.661670 -0.600538
O13   O     O_3   0.522170 0.314120 0.254710 -0.278821
O14   O     O_3   0.477830 0.685880 0.745290 -0.278817
V1    V     V_3+5 0.796120 0.238110 0.249130 1.255705
V2    V     V_3+5 0.203880 0.761890 0.750870 1.255711
O15   O     O_R   0.186930 0.347040 0.163240 -0.602408
O16   O     O_R   0.813070 0.652960 0.836760 -0.602412
C5    C     C_R   0.018658 0.368077 0.133272 1.033119
C6    C     C_R   0.981342 0.631924 0.866727 1.033108
O17   O     O_R   0.184850 0.360440 0.352010 -0.594691
O18   O     O_R   0.815150 0.639560 0.647990 -0.594691
C7    C     C_R   0.015843 0.387343 0.385980 1.007620
C8    C     C_R   0.984156 0.612657 0.614020 1.007619
V3    V     V_3+5 0.296410 0.261900 0.250880 1.233037
V4    V     V_3+5 0.703590 0.738100 0.749120 1.233037
O19   O     O_3   0.020490 0.185890 0.245290 -0.272092
O20   O     O_3   0.979510 0.814110 0.754710 -0.272095
C9    C     C_1   0.005166 0.466915 0.466341 -0.160842
C10   C     C_1   0.994834 0.533085 0.533659 -0.160843
C11   C     C_3   0.077489 0.587293 0.034177 0.438322
C12   C     C_3   0.922513 0.412709 0.965825 0.438320
C13   C     C_3   0.902851 0.540156 0.076938 -0.254640
C14   C     C_3   0.097150 0.459845 0.923062 -0.254618
H1    H     H_    0.825656 0.574410 0.140390 0.176336
H2    H     H_    0.174345 0.425589 0.859611 0.176334
C15   C     C_3   0.009808 0.437608 0.062482 -0.265151
C16   C     C_3   0.990193 0.562394 0.937520 -0.265144
C17   C     C_3   0.186585 0.486158 0.021261 -0.225064
C18   C     C_3   0.813416 0.513842 0.978740 -0.225079
H3    H     H_    0.339800 0.476645 0.039422 0.162462
H4    H     H_    0.660201 0.523355 0.960579 0.162471
C19   C     C_3   0.318246 0.027670 0.482155 -0.217650
C20   C     C_3   0.681754 0.972331 0.517846 -0.217648
C21   C     C_3   0.398975 0.919383 0.467446 0.429795
C22   C     C_3   0.601025 0.080618 0.532555 0.429796
H5    H     H_    0.168372 0.048459 0.467002 0.171402
H6    H     H_    0.831628 0.951541 0.532999 0.171402
C23   C     C_3   0.495508 0.937331 0.562368 -0.272968
C24   C     C_3   0.504492 0.062670 0.437633 -0.272969
C25   C     C_3   0.417265 0.046845 0.578574 -0.242326
C26   C     C_3   0.582735 0.953156 0.421427 -0.242327
H7    H     H_    0.352381 0.086394 0.643389 0.181319
H8    H     H_    0.647619 0.913606 0.356611 0.181318
C27   C     C_1   0.504922 0.033100 0.033660 -0.157320
C28   C     C_1   0.495078 0.966900 0.966340 -0.157316
N1    N     N_R   0.164516 0.683142 0.074955 0.229457
O21   O     O_R   0.241065 0.691883 0.156438 -0.346432
O22   O     O_R   0.162610 0.760789 0.031699 -0.417441
N2    N     N_R   0.835491 0.316855 0.925049 0.229462
O23   O     O_R   0.758879 0.308123 0.843580 -0.346447
O24   O     O_R   0.837507 0.239194 0.968283 -0.417430
N3    N     N_R   0.286127 0.830994 0.428362 0.229524
O25   O     O_R   0.204295 0.828596 0.348612 -0.348380
O26   O     O_R   0.270293 0.753376 0.471220 -0.420833
N4    N     N_R   0.713872 0.169007 0.571639 0.229523
O27   O     O_R   0.795702 0.171406 0.651389 -0.348383
O28   O     O_R   0.729706 0.246625 0.528781 -0.420834

loop_
_geom_bond_atom_site_label_1
_geom_bond_atom_site_label_2
_geom_bond_distance
_ccdc_geom_bond_type
C14   H2    1.110199 S    
O13   V3    1.709830 S    
O4    C2    1.295861 A    
V1    O19   1.707495 S    
C19   C21   1.539674 S    
C7    C9    1.463626 S    
O9    V1    2.004839 S    
C22   C24   1.534088 S    
C11   C13   1.540136 S    
C14   C16   1.548620 S    
O3    C1    1.295860 A    
O12   V4    2.003106 S    
C6    C16   1.501660 S    
O9    C5    1.295258 A    
N1    O22   1.300047 A    
C11   C16   1.533826 S    
O7    C3    1.302874 A    
O5    C7    1.298623 A    
O7    V1    1.983562 S    
O6    C8    1.298623 A    
O8    V2    1.983562 S    
O3    V1    2.005166 S    
N4    O27   1.300129 A    
O14   V4    1.709829 S    
C11   C17   1.539730 S    
C20   C22   1.539675 S    
C8    C10   1.463626 S    
C27   C28   1.222624 T    
C2    O12   1.296003 A    
C15   C17   1.550298 S    
C12   C15   1.533833 S    
C16   C18   1.550295 S    
C18   H4    1.110180 S    
O11   V3    2.003105 S    
C23   C25   1.548553 S    
O15   C5    1.297426 A    
O17   V3    1.984649 S    
C20   C23   1.549693 S    
C24   C26   1.548553 S    
N3    O25   1.300130 A    
O8    C4    1.302873 A    
C19   H5    1.110521 S    
O15   V3    2.002153 S    
N3    O26   1.299974 A    
N2    O24   1.300035 A    
O10   V2    2.004837 S    
O1    V3    1.981982 S    
C9    C10   1.222693 T    
C11   N1    1.457300 S    
C17   H3    1.110186 S    
C19   C24   1.549694 S    
O5    V1    1.981521 S    
O18   V4    1.984648 S    
C25   H7    1.110211 S    
O16   C6    1.297420 A    
C12   C18   1.539727 S    
O1    C3    1.298881 A    
C4    C28   1.463513 S    
C19   C25   1.561437 S    
V2    O20   1.707495 S    
C20   C26   1.561437 S    
C21   N3    1.457352 S    
C2    C23   1.500176 S    
C3    C27   1.463513 S    
O17   C7    1.303521 A    
C21   C26   1.539916 S    
O6    V2    1.981521 S    
O10   C6    1.295255 A    
O18   C8    1.303521 A    
C22   C25   1.539916 S    
C5    C15   1.501634 S    
O2    V4    1.981983 S    
N2    O23   1.300157 A    
C13   C18   1.561375 S    
C12   C14   1.540134 S    
C22   N4    1.457353 S    
C14   C17   1.561384 S    
V3    O19   2.159450 S    
O16   V4    2.002150 S    
V4    O20   2.159451 S    
C21   C23   1.534087 S    
C1    O11   1.296003 A    
O13   V1    2.156502 S    
C26   H8    1.110212 S    
O14   V2    2.156501 S    
C13   C15   1.548625 S    
N1    O21   1.300153 A    
O2    C4    1.298881 A    
O4    V2    2.005165 S    
C20   H6    1.110522 S    
C13   H1    1.110200 S    
N4    O28   1.299976 A    
C1    C24   1.500175 S    
C12   N2    1.457323 S    
