data_mof_unit_32669.cif
_audit_creation_date              2012-12-10T18:00:19-0500
_audit_creation_method            fapswitch 2.2
_symmetry_space_group_name_H-M    P1
_symmetry_Int_Tables_number       1
_space_group_crystal_system       triclinic
_cell_length_a                    10.824125
_cell_length_b                    9.62036
_cell_length_c                    10.617519
_cell_angle_alpha                 91.125858
_cell_angle_beta                  91.663722
_cell_angle_gamma                 90.532972
_cell_volume                      1104.88991589

loop_
_atom_site_label
_atom_site_type_symbol
_atom_type_description
_atom_site_fract_x
_atom_site_fract_y
_atom_site_fract_z
_atom_type_partial_charge
C1    C     C_R   0.871643 0.500456 0.500197 -0.019507
C2    C     C_R   0.128358 0.499540 0.499783 -0.019504
C3    C     C_R   0.262368 0.499625 0.499765 0.778561
C4    C     C_R   0.737633 0.500374 0.500228 0.778599
C5    C     C_R   0.500105 0.498856 0.259490 0.783735
C6    C     C_R   0.499901 0.501144 0.740509 0.783770
C7    C     C_3   0.395028 0.556193 0.040874 -0.166480
C8    C     C_3   0.604988 0.443814 0.959123 -0.166514
C9    C     C_3   0.492149 0.632594 0.963015 -0.145040
C10   C     C_3   0.507867 0.367412 0.036980 -0.144993
C11   C     C_3   0.402478 0.426505 0.953161 -0.162768
C12   C     C_3   0.597538 0.573501 0.046836 -0.162789
C13   C     C_3   0.499654 0.502834 0.877556 0.020877
C14   C     C_3   0.500361 0.497171 0.122442 0.020923
C15   C     C_R   0.427279 0.069098 0.414943 0.149328
C16   C     C_R   0.572758 0.930907 0.585022 0.149333
C17   C     C_R   0.573480 0.078774 0.583322 0.257927
C18   C     C_R   0.426514 0.921229 0.416683 0.257892
C19   C     C_R   0.062844 0.373571 0.502786 -0.200799
C20   C     C_R   0.937157 0.626423 0.497183 -0.200808
C21   C     C_R   0.935053 0.374014 0.502975 -0.177990
C22   C     C_R   0.064948 0.625980 0.497004 -0.177974
Cu1   Cu    Cu3+1 0.500000 0.640660 0.500000 0.947665
Cu2   Cu    Cu3+1 0.500000 0.359340 0.500000 0.947642
H1    H     H_    0.322511 0.366669 0.911745 0.129836
H2    H     H_    0.677504 0.633336 0.088253 0.129833
H3    H     H_    0.309079 0.601935 0.077562 0.130273
H4    H     H_    0.690936 0.398072 0.922434 0.130275
H5    H     H_    0.484808 0.741468 0.931303 0.125866
H6    H     H_    0.515221 0.258535 0.068672 0.125807
H7    H     H_    0.109979 0.274794 0.505180 0.146473
H8    H     H_    0.890025 0.725199 0.494776 0.146370
H9    H     H_    0.886258 0.275344 0.505321 0.150580
H10   H     H_    0.113744 0.724649 0.494663 0.150571
N1    N     N_R   0.500000 0.852070 0.500000 -0.192724
N2    N     N_R   0.500000 0.147930 0.500000 -0.192763
O1    O     O_R   0.319640 0.618740 0.499990 -0.559894
O2    O     O_R   0.680360 0.381260 0.500010 -0.559890
O3    O     O_R   0.680360 0.618740 0.500010 -0.601859
O4    O     O_R   0.319640 0.381260 0.499990 -0.601922
O5    O     O_R   0.499970 0.618770 0.316850 -0.551467
O6    O     O_R   0.500030 0.381230 0.683150 -0.551474
O7    O     O_R   0.500030 0.618770 0.683150 -0.598276
O8    O     O_R   0.499970 0.381230 0.316850 -0.598288
N3    N     N_3   0.353052 0.131290 0.318028 -0.630859
H11   H     H_    0.292575 0.203666 0.354568 0.257675
H12   H     H_    0.409281 0.172497 0.249939 0.239636
N4    N     N_3   0.647202 0.868719 0.681761 -0.630941
H13   H     H_    0.591186 0.827138 0.749833 0.239913
H14   H     H_    0.707898 0.796722 0.645002 0.257427
N5    N     N_3   0.652011 0.156916 0.669970 -0.519498
H15   H     H_    0.743348 0.126716 0.656867 0.199953
H16   H     H_    0.628168 0.132339 0.761691 0.208915
N6    N     N_3   0.347996 0.843091 0.330017 -0.519507
H17   H     H_    0.371809 0.867715 0.238303 0.208947
H18   H     H_    0.256652 0.873252 0.343155 0.199925

loop_
_geom_bond_atom_site_label_1
_geom_bond_atom_site_label_2
_ccdc_geom_bond_type
C2    C22   A    
C15   C18   A    
Cu2   O2    S    
Cu1   Cu2   S    
C1    C21   A    
C8    C13   S    
C17   N2    A    
Cu2   O6    S    
C18   N1    A    
C10   H6    S    
Cu1   O5    S    
C4    O3    A    
C9    H5    S    
C8    C12   S    
C1    C4    S    
C19   H7    S    
C16   N4    S    
N4    H14   S    
C2    C3    S    
C20   C22   A    
C7    H3    S    
Cu1   O1    S    
N3    H11   S    
C6    C13   S    
C7    C11   S    
C11   C13   S    
C17   N5    S    
C5    C14   S    
Cu2   N2    S    
Cu1   O3    S    
N4    H13   S    
C19   C21   A    
C5    O8    A    
C12   C14   S    
C3    O4    A    
Cu1   N1    S    
C6    O7    A    
N3    H12   S    
C16   N1    A    
C20   H8    S    
C22   H10   S    
C9    C12   S    
N6    H18   S    
C21   H9    S    
C10   C11   S    
C18   N6    S    
C9    C13   S    
N5    H15   S    
C15   N2    A    
Cu1   O7    S    
Cu2   O8    S    
C3    O1    A    
C8    H4    S    
C8    C10   S    
C10   C14   S    
C7    C9    S    
C11   H1    S    
N6    H17   S    
C1    C20   A    
C5    O5    A    
Cu2   O4    S    
C2    C19   A    
C4    O2    A    
C6    O6    A    
C7    C14   S    
C12   H2    S    
C16   C17   A    
N5    H16   S    
C15   N3    S    
