data_mof_unit_54252.cif
_audit_creation_date              2012-12-10T17:12:43-0500
_audit_creation_method            fapswitch 2.2
_symmetry_space_group_name_H-M    P1
_symmetry_Int_Tables_number       1
_space_group_crystal_system       triclinic
_cell_length_a                    23.397579
_cell_length_b                    10.741396
_cell_length_c                    10.033734
_cell_angle_alpha                 90.001149
_cell_angle_beta                  89.635715
_cell_angle_gamma                 89.98144
_cell_volume                      2521.65363225

loop_
_atom_site_label
_atom_site_type_symbol
_atom_type_description
_atom_site_fract_x
_atom_site_fract_y
_atom_site_fract_z
_atom_type_partial_charge
C1    C     C_R   0.498792 0.262715 0.499855 0.915945
C2    C     C_R   0.972017 0.290028 0.358650 -0.054091
C3    C     C_R   0.031614 0.298792 0.355342 -0.082586
C4    C     C_R   0.060519 0.387390 0.431701 -0.036645
C5    C     C_R   0.029890 0.468889 0.515637 -0.053968
C6    C     C_R   0.059338 0.555912 0.596777 -0.127015
C7    C     C_R   0.027517 0.636197 0.681459 0.427606
C8    C     C_R   0.968178 0.630908 0.681616 -0.172689
C9    C     C_R   0.120001 0.394413 0.427915 0.567090
C10   C     C_R   0.119429 0.558308 0.589087 0.592616
C11   C     C_R   0.237437 0.559444 0.412735 -0.051525
C12   C     C_R   0.389560 0.496333 0.500498 0.863847
C13   C     C_R   0.296959 0.560768 0.412901 -0.127582
C14   C     C_R   0.327503 0.486203 0.501725 -0.198542
C15   C     C_R   0.298803 0.405200 0.591026 -0.179101
C16   C     C_R   0.238704 0.403778 0.591208 0.475931
C17   C     C_R   0.208623 0.481000 0.503013 0.094837
C18   C     C_R   0.757864 0.405978 0.588986 0.474659
C19   C     C_R   0.699110 0.418334 0.588433 -0.231422
C20   C     C_R   0.672709 0.499659 0.499243 -0.198536
C21   C     C_R   0.705541 0.572662 0.409590 -0.071268
C22   C     C_R   0.765894 0.563932 0.414015 -0.059704
C23   C     C_R   0.501430 0.737276 0.499915 0.922581
C24   C     C_R   0.791192 0.478087 0.502467 0.113308
C25   C     C_2   0.499975 0.933089 0.387386 -0.138262
C26   C     C_2   0.507217 0.868768 0.499803 -0.318162
C27   C     C_2   0.503249 0.067011 0.387719 -0.121413
C28   C     C_2   0.493706 0.131129 0.499627 -0.319319
C29   C     C_2   0.543912 0.528099 0.926598 0.007087
C30   C     C_2   0.545960 0.504035 0.073871 -0.075292
C31   C     C_R   0.610495 0.501942 0.499548 0.861387
C32   C     C_R   0.879644 0.546975 0.595925 0.590918
C33   C     C_R   0.880048 0.386868 0.430500 0.530185
C34   C     C_R   0.940173 0.377618 0.435438 -0.082310
C35   C     C_R   0.969705 0.464118 0.517130 0.002992
C36   C     C_R   0.939111 0.547379 0.599355 -0.090292
H1    H     H_    0.673741 0.361755 0.655945 0.193664
H2    H     H_    0.491912 0.887469 0.292679 0.188640
H3    H     H_    0.518910 0.911465 0.593642 0.163817
H4    H     H_    0.512934 0.112897 0.293722 0.196168
H5    H     H_    0.480637 0.088283 0.592758 0.169344
H6    H     H_    0.581401 0.569187 0.880208 0.131406
H7    H     H_    0.587450 0.495275 0.120434 0.176229
H8    H     H_    0.055755 0.232976 0.295445 0.231417
H9    H     H_    0.463383 0.532579 0.105331 0.234816
H10   H     H_    0.944722 0.694182 0.745919 0.231833
H11   H     H_    0.319900 0.621892 0.345220 0.203344
N1    N     N_R   0.851871 0.469460 0.510736 -0.345569
N2    N     N_R   0.147708 0.478656 0.505696 -0.365519
N3    N     N_2   0.500610 0.501330 0.852150 0.047592
N4    N     N_2   0.500630 0.501360 0.147810 -0.173115
O1    O     O_R   0.499990 0.319060 0.613040 -0.579555
O2    O     O_2   0.849634 0.318609 0.343356 -0.544719
O3    O     O_2   0.150262 0.317571 0.347656 -0.497504
O4    O     O_2   0.149975 0.638682 0.663207 -0.438253
O5    O     O_R   0.500010 0.319100 0.386900 -0.597844
O6    O     O_R   0.416150 0.499940 0.613100 -0.579346
O7    O     O_R   0.416160 0.499980 0.386960 -0.601186
O8    O     O_R   0.499990 0.680900 0.613100 -0.611515
O9    O     O_R   0.500010 0.680940 0.386960 -0.626012
O10   O     O_R   0.583840 0.500020 0.613040 -0.618672
O11   O     O_R   0.583850 0.500060 0.386900 -0.632854
O12   O     O_2   0.849478 0.625120 0.674951 -0.506546
Zn1   Zn    Zn3+2 0.499990 0.499970 0.650990 1.053580
Zn2   Zn    Zn3+2 0.500010 0.500030 0.349010 0.991577
C37   C     C_2   0.945639 0.183241 0.287800 0.547026
H12   H     H_    0.907418 0.138936 0.326651 0.136679
O13   O     O_2   0.967553 0.140730 0.186782 -0.505700
C38   C     C_2   0.676334 0.656586 0.313729 0.538533
H13   H     H_    0.638371 0.707498 0.344277 0.041749
O14   O     O_2   0.692876 0.665367 0.198458 -0.517406
C39   C     C_2   0.803870 0.646435 0.333604 0.566804
H14   H     H_    0.845560 0.613641 0.301216 0.056376
O15   O     O_2   0.790441 0.753689 0.308493 -0.495901
Cl1   Cl    Cl    0.453039 0.387275 0.905855 -0.478751
Cl2   Cl    Cl    0.057998 0.746859 0.790035 -0.417750
C40   C     C_2   0.205426 0.640095 0.318916 0.551709
H15   H     H_    0.159069 0.639799 0.318550 0.063779
O16   O     O_2   0.230449 0.708139 0.240429 -0.505395
C41   C     C_2   0.331817 0.318410 0.677024 0.606891
H16   H     H_    0.372659 0.282230 0.642845 0.042092
O17   O     O_2   0.314791 0.288824 0.787801 -0.439010
Cl3   Cl    Cl    0.199346 0.301899 0.695842 -0.432730
Cl4   Cl    Cl    0.789385 0.300742 0.701152 -0.505478

loop_
_geom_bond_atom_site_label_1
_geom_bond_atom_site_label_2
_ccdc_geom_bond_type
C37   O13   D    
C30   N4    D    
C29   H6    S    
N3    Zn1   S    
C31   O10   A    
C19   C20   A    
C7    C8    A    
C40   H15   S    
C23   O8    A    
O8    Zn1   S    
C18   C24   A    
C32   C36   A    
C1    O5    A    
C34   C35   A    
N4    Zn2   S    
C5    C6    A    
C26   H3    S    
H9    N4    S    
O5    Zn2   S    
C28   H5    S    
C18   C19   A    
C8    C36   A    
C23   C26   S    
C38   O14   D    
C11   C40   S    
C35   C36   A    
C16   C17   A    
C1    C28   S    
C18   Cl4   S    
C19   H1    S    
C12   O7    A    
C2    C34   A    
C37   H12   S    
C13   C14   A    
C32   N1    A    
C31   O11   A    
C22   C39   S    
C29   N3    D    
C40   O16   D    
C33   O2    S    
C23   O9    A    
C3    H8    S    
C24   N1    S    
C9    N2    A    
C41   O17   D    
O1    Zn1   S    
C17   N2    S    
C13   H11   S    
C39   H14   S    
C25   C26   D    
C16   Cl3   S    
C21   C38   S    
O10   Zn1   S    
C29   C30   S    
C25   H2    S    
O7    Zn2   S    
C15   C41   S    
C27   H4    S    
C33   C34   A    
C10   O4    S    
C7    Cl2   S    
C12   O6    A    
C39   O15   D    
C12   C14   S    
O9    Zn2   S    
C22   C24   A    
C30   H7    S    
C3    C4    A    
O6    Zn1   S    
C11   C17   A    
O11   Zn2   S    
C32   O12   S    
C41   H16   S    
C2    C37   S    
C6    C10   A    
C6    C7    A    
C25   C27   S    
C2    C3    A    
N3    Cl1   S    
C11   C13   A    
C5    C35   A    
C38   H13   S    
C1    O1    A    
C8    H10   S    
C4    C5    A    
C20   C21   A    
C27   C28   D    
C33   N1    A    
C14   C15   A    
C9    O3    S    
C4    C9    A    
C21   C22   A    
C10   N2    A    
C15   C16   A    
C20   C31   S    
