data_mof_unit_40988.cif
_audit_creation_date              2012-12-11T15:09:15-0500
_audit_creation_method            fapswitch 2.2
_symmetry_space_group_name_H-M    P1
_symmetry_Int_Tables_number       1
_space_group_crystal_system       triclinic
_cell_length_a                    26.037514
_cell_length_b                    27.546683
_cell_length_c                    8.413517
_cell_angle_alpha                 90.216409
_cell_angle_beta                  95.934205
_cell_angle_gamma                 89.972744
_cell_volume                      6002.1905911

loop_
_atom_site_label
_atom_site_type_symbol
_atom_type_description
_atom_site_fract_x
_atom_site_fract_y
_atom_site_fract_z
_atom_type_partial_charge
Ba1   Ba    Ba6+2 0.999910 0.465960 0.844870 1.667880
Ba2   Ba    Ba6+2 0.999910 0.534040 0.344870 1.678325
Ba3   Ba    Ba6+2 0.499910 0.965960 0.844870 1.667846
Ba4   Ba    Ba6+2 0.499910 0.034040 0.344870 1.678287
C1    C     C_3   0.028210 0.238386 0.538148 -0.346503
C2    C     C_R   0.840063 0.639751 0.606819 -0.154840
C3    C     C_3   0.507816 0.209751 0.054570 0.319295
C4    C     C_R   0.907290 0.388276 0.308587 -0.203805
C5    C     C_R   0.905845 0.611155 0.809652 -0.223841
C6    C     C_R   0.407286 0.888279 0.308591 -0.203862
C7    C     C_R   0.405850 0.111159 0.809638 -0.223851
C8    C     C_2   0.795700 0.541106 0.168861 0.597544
C9    C     C_2   0.802834 0.444327 0.615817 0.563517
C10   C     C_2   0.295742 0.041144 0.168850 0.597666
C11   C     C_2   0.302802 0.944332 0.615733 0.563424
C12   C     C_3   0.849855 0.212243 0.193056 -0.415504
C13   C     C_R   0.342366 0.858681 0.104283 -0.153297
C14   C     C_3   0.848402 0.786335 0.704231 -0.414051
C15   C     C_3   0.349853 0.712246 0.193085 -0.415502
C16   C     C_3   0.348400 0.286334 0.704274 -0.414053
C17   C     C_2   0.720744 0.352244 0.136560 0.464771
C18   C     C_2   0.718684 0.647178 0.621386 0.481103
C19   C     C_2   0.220741 0.852245 0.136519 0.464731
C20   C     C_2   0.218684 0.147177 0.621290 0.481072
C21   C     C_R   0.340062 0.139750 0.606814 -0.154852
C22   C     C_R   0.829426 0.320706 0.206355 -0.013638
C23   C     C_R   0.827107 0.677876 0.709256 -0.024420
C24   C     C_R   0.329421 0.820709 0.206360 -0.013626
C25   C     C_R   0.327105 0.177875 0.709249 -0.024429
C26   C     C_R   0.855923 0.317938 0.361013 -0.084748
C27   C     C_R   0.853786 0.680895 0.864126 -0.101344
C28   C     C_R   0.355917 0.817942 0.361019 -0.084774
C29   C     C_3   0.027118 0.761305 0.037075 -0.343943
C30   C     C_R   0.353785 0.180893 0.864120 -0.101299
C31   C     C_R   0.895276 0.351152 0.410221 0.058885
C32   C     C_R   0.893595 0.648019 0.912463 0.068283
C33   C     C_R   0.395271 0.851156 0.410227 0.058812
C34   C     C_R   0.393598 0.148022 0.912453 0.068317
C35   C     C_R   0.797178 0.233971 0.148660 0.082930
C36   C     C_R   0.795794 0.765024 0.654735 0.083704
C37   C     C_R   0.297176 0.733973 0.148676 0.082927
C38   C     C_R   0.295792 0.265024 0.654754 0.083698
C39   C     C_R   0.256869 0.701314 0.099635 -0.071287
C40   C     C_3   0.528203 0.738386 0.538122 -0.346511
C41   C     C_R   0.256019 0.298049 0.604506 -0.071639
C42   C     C_R   0.756870 0.201313 0.099620 -0.071288
C43   C     C_R   0.756020 0.798048 0.604485 -0.071642
C44   C     C_R   0.206831 0.717654 0.050261 0.015105
C45   C     C_R   0.206365 0.282092 0.547969 0.017042
C46   C     C_R   0.706831 0.217655 0.050265 0.015102
C47   C     C_R   0.706363 0.782090 0.547979 0.017039
C48   C     C_R   0.196800 0.767533 0.055600 -0.057403
C49   C     C_R   0.196192 0.232220 0.546553 -0.061466
C50   C     C_R   0.696800 0.267533 0.055625 -0.057403
C51   C     C_3   0.527121 0.261307 0.037099 -0.343935
C52   C     C_R   0.696189 0.732218 0.546601 -0.061458
C53   C     C_R   0.735640 0.301023 0.111747 -0.045031
C54   C     C_R   0.734287 0.698388 0.604151 -0.044649
C55   C     C_R   0.235639 0.801023 0.111724 -0.045028
C56   C     C_R   0.234288 0.198388 0.604101 -0.044638
C57   C     C_3   0.983521 0.290311 0.035623 0.348072
C58   C     C_3   0.983474 0.709680 0.539208 0.346142
C59   C     C_3   0.483520 0.790311 0.035625 0.348058
C60   C     C_3   0.483472 0.209680 0.539218 0.346146
C61   C     C_R   0.787179 0.284846 0.154078 -0.003440
C62   C     C_R   0.880628 0.393101 0.157152 0.016717
C63   C     C_R   0.785430 0.714160 0.655532 0.001533
C64   C     C_R   0.287176 0.784848 0.154079 -0.003444
C65   C     C_R   0.285429 0.214160 0.655522 0.001543
C66   C     C_R   0.135813 0.688204 0.845478 -0.135803
C67   C     C_R   0.135884 0.311869 0.342573 -0.135903
C68   C     C_R   0.635812 0.188205 0.845481 -0.135803
C69   C     C_R   0.635882 0.811866 0.342580 -0.135902
C70   C     C_R   0.097211 0.654438 0.792752 0.011327
C71   C     C_R   0.097303 0.345623 0.290565 0.011542
C72   C     C_R   0.597210 0.154439 0.792754 0.011323
C73   C     C_R   0.879102 0.606134 0.658364 0.003541
C74   C     C_R   0.597302 0.845622 0.290568 0.011537
C75   C     C_R   0.114783 0.609379 0.039270 0.065217
C76   C     C_R   0.114784 0.390667 0.538097 0.065712
C77   C     C_R   0.614783 0.109380 0.039271 0.065215
C78   C     C_R   0.614783 0.890667 0.538099 0.065712
C79   C     C_R   0.154489 0.642246 0.090677 -0.119292
C80   C     C_R   0.154397 0.357782 0.589042 -0.119946
C81   C     C_R   0.654488 0.142247 0.090679 -0.119290
C82   C     C_R   0.654396 0.857781 0.589046 -0.119944
C83   C     C_R   0.164739 0.682602 0.995766 -0.013966
C84   C     C_R   0.380624 0.893103 0.157155 0.016737
C85   C     C_R   0.164700 0.317440 0.493224 -0.013830
C86   C     C_R   0.664738 0.182603 0.995770 -0.013964
C87   C     C_R   0.664698 0.817437 0.493232 -0.013829
C88   C     C_R   0.085463 0.616675 0.892877 -0.290423
C89   C     C_R   0.085539 0.383403 0.391455 -0.291284
C90   C     C_R   0.585463 0.116676 0.892878 -0.290419
C91   C     C_R   0.585539 0.883402 0.391457 -0.291277
C92   C     C_3   0.959779 0.241296 0.988269 -0.346158
C93   C     C_3   0.959688 0.758770 0.494241 -0.347523
C94   C     C_3   0.459779 0.741296 0.988274 -0.346161
C95   C     C_R   0.379106 0.106137 0.658354 0.003579
C96   C     C_3   0.459685 0.258770 0.494256 -0.347528
C97   C     C_3   0.147494 0.469459 0.222418 0.312933
C98   C     C_3   0.147486 0.530693 0.721975 0.312561
C99   C     C_3   0.647493 0.969459 0.222417 0.312934
C100  C     C_3   0.647486 0.030693 0.721974 0.312562
C101  C     C_3   0.196220 0.438626 0.241813 -0.390380
C102  C     C_3   0.196260 0.561449 0.742333 -0.390814
C103  C     C_3   0.696219 0.938625 0.241815 -0.390380
C104  C     C_3   0.696259 0.061449 0.742334 -0.390814
C105  C     C_3   0.809723 0.490654 0.119409 0.241565
C106  C     C_R   0.842372 0.358677 0.104277 -0.153354
C107  C     C_3   0.821891 0.495925 0.630495 0.245052
C108  C     C_3   0.309748 0.990679 0.119471 0.241543
C109  C     C_3   0.321900 0.995917 0.630513 0.244980
C110  C     C_3   0.760931 0.466367 0.040393 -0.439631
C111  C     C_3   0.776751 0.530487 0.649642 -0.460486
C112  C     C_3   0.260939 0.966383 0.040605 -0.439498
C113  C     C_3   0.276792 0.030501 0.649829 -0.460160
C114  C     C_3   0.008456 0.289929 0.553370 0.322998
C115  C     C_3   0.007815 0.709749 0.054557 0.319299
C116  C     C_3   0.508452 0.789930 0.553363 0.323006
H1    H     H_    0.038564 0.311397 0.626084 0.065257
H2    H     H_    0.187451 0.598487 0.782948 0.065304
H3    H     H_    0.474887 0.272723 0.384709 0.155405
H4    H     H_    0.132295 0.473110 0.339872 0.010960
H5    H     H_    0.131886 0.527534 0.838846 0.010402
H6    H     H_    0.632294 0.973110 0.339871 0.010958
H7    H     H_    0.631885 0.027534 0.838845 0.010401
H8    H     H_    0.118615 0.451178 0.135820 0.062821
H9    H     H_    0.118898 0.548726 0.634281 0.063141
H10   H     H_    0.618615 0.951178 0.135819 0.062824
H11   H     H_    0.618898 0.048726 0.634279 0.063144
H12   H     H_    0.768902 0.545924 0.258072 -0.055396
H13   H     H_    0.687520 0.901835 0.283959 0.065145
H14   H     H_    0.787855 0.427073 0.716997 -0.053285
H15   H     H_    0.268972 0.045984 0.258134 -0.055480
H16   H     H_    0.287822 0.927070 0.716893 -0.053238
H17   H     H_    0.880879 0.239611 0.213573 0.113481
H18   H     H_    0.849208 0.190363 0.303370 0.120713
H19   H     H_    0.860052 0.188049 0.095201 0.117926
H20   H     H_    0.879411 0.758832 0.720337 0.114702
H21   H     H_    0.858961 0.811817 0.610921 0.117348
H22   H     H_    0.847449 0.806715 0.817966 0.120646
H23   H     H_    0.380877 0.739614 0.213590 0.113484
H24   H     H_    0.687450 0.098488 0.782947 0.065303
H25   H     H_    0.349205 0.690371 0.303409 0.120715
H26   H     H_    0.360051 0.688048 0.095243 0.117925
H27   H     H_    0.379409 0.258832 0.720360 0.114698
H28   H     H_    0.358958 0.311824 0.610985 0.117349
H29   H     H_    0.347444 0.306706 0.818024 0.120647
H30   H     H_    0.746349 0.376266 0.209718 0.042393
H31   H     H_    0.741022 0.623921 0.705341 0.004085
H32   H     H_    0.246336 0.876261 0.209736 0.042468
H33   H     H_    0.241008 0.123920 0.705272 0.004102
H34   H     H_    0.212499 0.435229 0.125340 0.127131
H35   H     H_    0.213040 0.564190 0.626565 0.126819
H36   H     H_    0.712499 0.935229 0.125342 0.127132
H37   H     H_    0.713040 0.064190 0.626566 0.126820
H38   H     H_    0.823715 0.470398 0.229000 0.044804
H39   H     H_    0.849739 0.497833 0.737447 0.064799
H40   H     H_    0.323760 0.970440 0.229077 0.044907
H41   H     H_    0.037894 0.689024 0.129512 0.065550
H42   H     H_    0.349766 0.997785 0.737424 0.064961
H43   H     H_    0.742882 0.488772 0.940580 0.121042
H44   H     H_    0.768372 0.553405 0.541992 0.136937
H45   H     H_    0.242835 0.988801 0.940914 0.121020
H46   H     H_    0.268265 0.053296 0.541917 0.137031
H47   H     H_    0.732541 0.461627 0.128980 0.129787
H48   H     H_    0.740635 0.510972 0.669210 0.108996
H49   H     H_    0.232598 0.961614 0.129321 0.129794
H50   H     H_    0.240719 0.011000 0.670132 0.108784
H51   H     H_    0.770208 0.430435 0.992048 0.102197
H52   H     H_    0.538561 0.811394 0.626085 0.065259
H53   H     H_    0.787023 0.554366 0.754603 0.116769
H54   H     H_    0.270208 0.930466 0.992132 0.102238
H55   H     H_    0.287201 0.054499 0.754448 0.116759
H56   H     H_    0.001880 0.305439 0.431054 -0.063637
H57   H     H_    0.001856 0.693285 0.933114 -0.064064
H58   H     H_    0.501878 0.805444 0.431052 -0.063626
H59   H     H_    0.501859 0.193288 0.933124 -0.064067
H60   H     H_    0.063480 0.238674 0.474559 0.078688
H61   H     H_    0.062866 0.760785 0.975791 0.078875
H62   H     H_    0.563474 0.738674 0.474537 0.078688
H63   H     H_    0.537895 0.189024 0.129525 0.065557
H64   H     H_    0.562869 0.260787 0.975817 0.078873
H65   H     H_    0.037748 0.222345 0.658472 0.131067
H66   H     H_    0.035718 0.778397 0.156606 0.132415
H67   H     H_    0.537738 0.722341 0.658442 0.131072
H68   H     H_    0.535720 0.278397 0.156632 0.132423
H69   H     H_    0.968387 0.214905 0.086913 0.102561
H70   H     H_    0.968943 0.785149 0.593208 0.103857
H71   H     H_    0.468389 0.714904 0.086915 0.102564
H72   H     H_    0.468943 0.285149 0.593221 0.103858
H73   H     H_    0.177524 0.636200 0.203569 0.085224
H74   H     H_    0.225372 0.455708 0.330382 0.124373
H75   H     H_    0.177245 0.363768 0.702439 0.085409
H76   H     H_    0.677523 0.136200 0.203570 0.085225
H77   H     H_    0.677245 0.863767 0.702443 0.085412
H78   H     H_    0.264946 0.662722 0.096370 0.068328
H79   H     H_    0.264304 0.336627 0.605517 0.068028
H80   H     H_    0.764946 0.162722 0.096342 0.068329
H81   H     H_    0.764306 0.836626 0.605472 0.068030
H82   H     H_    0.822327 0.361692 0.985495 0.075854
H83   H     H_    0.819541 0.635927 0.488773 0.095664
H84   H     H_    0.322320 0.861698 0.985502 0.075836
H85   H     H_    0.225050 0.544721 0.832420 0.124462
H86   H     H_    0.319538 0.135922 0.488773 0.095656
H87   H     H_    0.157744 0.780072 0.022314 0.117256
H88   H     H_    0.157436 0.219865 0.507409 0.114408
H89   H     H_    0.657744 0.280072 0.022353 0.117265
H90   H     H_    0.657431 0.719863 0.507484 0.114413
H91   H     H_    0.144480 0.717666 0.767674 0.091012
H92   H     H_    0.144531 0.282379 0.264116 0.091249
H93   H     H_    0.644479 0.217668 0.767679 0.091009
H94   H     H_    0.644529 0.782376 0.264125 0.091249
H95   H     H_    0.846468 0.289598 0.441996 0.075379
H96   H     H_    0.725371 0.955708 0.330385 0.124372
H97   H     H_    0.844360 0.709336 0.945467 0.080647
H98   H     H_    0.346463 0.789601 0.442001 0.075386
H99   H     H_    0.344356 0.209333 0.945464 0.080643
H100  H     H_    0.055772 0.590778 0.851385 0.063289
H101  H     H_    0.055872 0.409313 0.350487 0.063869
H102  H     H_    0.555772 0.090779 0.851385 0.063289
H103  H     H_    0.555873 0.909313 0.350487 0.063870
H104  H     H_    0.998361 0.215793 0.469026 0.120486
H105  H     H_    0.997388 0.783093 0.964834 0.119471
H106  H     H_    0.498352 0.715797 0.468990 0.120484
H107  H     H_    0.725050 0.044722 0.832422 0.124462
H108  H     H_    0.497391 0.283095 0.964858 0.119470
H109  H     H_    0.937006 0.414235 0.349334 0.060653
H110  H     H_    0.936121 0.585669 0.849090 0.064710
H111  H     H_    0.437003 0.914237 0.349336 0.060657
H112  H     H_    0.436129 0.085676 0.849074 0.064712
H113  H     H_    0.967422 0.317334 0.947015 0.111554
H114  H     H_    0.967324 0.682823 0.449483 0.107898
H115  H     H_    0.467421 0.817333 0.947018 0.111560
H116  H     H_    0.467320 0.182823 0.449496 0.107895
H117  H     H_    0.972806 0.300411 0.155928 -0.064017
H118  H     H_    0.187522 0.401836 0.283958 0.065147
H119  H     H_    0.972846 0.699366 0.659162 -0.061909
H120  H     H_    0.472806 0.800411 0.155931 -0.064007
H121  H     H_    0.472847 0.199365 0.659175 -0.061917
H122  H     H_    0.917365 0.245256 0.961622 0.084298
H123  H     H_    0.917181 0.754987 0.469949 0.083503
H124  H     H_    0.417364 0.745255 0.961638 0.084296
H125  H     H_    0.417178 0.254987 0.469978 0.083500
H126  H     H_    0.975588 0.227219 0.879533 0.156242
H127  H     H_    0.974894 0.772724 0.384700 0.155404
H128  H     H_    0.475584 0.727220 0.879533 0.156241
O1    O     O_2   0.898940 0.431940 0.867860 -0.472256
O2    O     O_3   0.037244 0.712679 0.538514 -0.597586
O3    O     O_3   0.537298 0.787308 0.035259 -0.598104
O4    O     O_3   0.537242 0.212678 0.538511 -0.597583
O5    O     O_3   0.058810 0.523750 0.066650 -0.494340
O6    O     O_3   0.058810 0.476250 0.566650 -0.495816
O7    O     O_3   0.558810 0.023750 0.066650 -0.494336
O8    O     O_3   0.558810 0.976250 0.566650 -0.495813
O9    O     O_3   0.941140 0.476130 0.123050 -0.451454
O10   O     O_3   0.941140 0.523870 0.623050 -0.472450
O11   O     O_3   0.441140 0.976130 0.123050 -0.451471
O12   O     O_2   0.898940 0.568060 0.367860 -0.412862
O13   O     O_3   0.441140 0.023870 0.623050 -0.472450
O14   O     O_3   0.982430 0.389880 0.635700 -0.486424
O15   O     O_3   0.982430 0.610120 0.135700 -0.487496
O16   O     O_3   0.482430 0.889880 0.635700 -0.486420
O17   O     O_3   0.482430 0.110120 0.135700 -0.487490
O18   O     O_2   0.898736 0.349343 0.743507 -0.488632
O19   O     O_2   0.898978 0.650725 0.246454 -0.462817
O20   O     O_2   0.398736 0.849344 0.743514 -0.488663
O21   O     O_2   0.398976 0.150724 0.246446 -0.462812
O22   O     O_3   0.846892 0.493577 0.009402 -0.615885
O23   O     O_2   0.398940 0.931940 0.867860 -0.472269
O24   O     O_3   0.846248 0.507898 0.494913 -0.625241
O25   O     O_3   0.346890 0.993574 0.009376 -0.615922
O26   O     O_3   0.346242 0.007905 0.494919 -0.625345
O27   O     O_3   0.962783 0.289114 0.629124 -0.614675
O28   O     O_3   0.961800 0.710818 0.128533 -0.618904
O29   O     O_3   0.462778 0.789114 0.629113 -0.614659
O30   O     O_3   0.461801 0.210818 0.128539 -0.618903
O31   O     O_2   0.100770 0.431440 0.821660 -0.457456
O32   O     O_2   0.100770 0.568560 0.321660 -0.458481
O33   O     O_2   0.600770 0.931440 0.821660 -0.457454
O34   O     O_2   0.398940 0.068060 0.367860 -0.412949
O35   O     O_2   0.600770 0.068560 0.321660 -0.458481
O36   O     O_3   0.017130 0.389790 0.053700 -0.504777
O37   O     O_3   0.017130 0.610210 0.553700 -0.505062
O38   O     O_3   0.517130 0.889790 0.053700 -0.504766
O39   O     O_3   0.517130 0.110210 0.553700 -0.505050
O40   O     O_2   0.104089 0.351555 0.964215 -0.474615
O41   O     O_2   0.104170 0.648527 0.466250 -0.474716
O42   O     O_2   0.604089 0.851555 0.964220 -0.474614
O43   O     O_2   0.604169 0.148528 0.466251 -0.474716
O44   O     O_2   0.813428 0.576858 0.108701 -0.577341
O45   O     O_3   0.160426 0.484744 0.667509 -0.636469
O46   O     O_2   0.803857 0.421421 0.491715 -0.619499
O47   O     O_2   0.313451 0.076881 0.108540 -0.577404
O48   O     O_2   0.303798 0.921447 0.491582 -0.619527
O49   O     O_2   0.679239 0.368074 0.078003 -0.572048
O50   O     O_2   0.680125 0.630766 0.544847 -0.570225
O51   O     O_2   0.179249 0.868080 0.077879 -0.572034
O52   O     O_2   0.180137 0.130766 0.544682 -0.570233
O53   O     O_3   0.160348 0.515147 0.166667 -0.636254
O54   O     O_3   0.660427 0.984744 0.667509 -0.636468
O55   O     O_3   0.660348 0.015147 0.166667 -0.636252
O56   O     O_3   0.037299 0.287308 0.035262 -0.598106
P1    P     P_3+3 0.893960 0.447890 0.040050 1.005232
P2    P     P_3+3 0.064255 0.655837 0.588182 0.941132
P3    P     P_3+3 0.564273 0.844158 0.086209 0.941681
P4    P     P_3+3 0.564254 0.155838 0.588183 0.941137
P5    P     P_3+3 0.932898 0.653566 0.106337 0.987217
P6    P     P_3+3 0.933462 0.346105 0.605393 0.960890
P7    P     P_3+3 0.432898 0.153566 0.106334 0.987227
P8    P     P_3+3 0.433459 0.846106 0.605394 0.960844
P9    P     P_3+3 0.893960 0.552110 0.540050 1.012978
P10   P     P_3+3 0.393960 0.947890 0.040050 1.005173
P11   P     P_3+3 0.393960 0.052110 0.540050 1.012887
P12   P     P_3+3 0.105800 0.447360 0.649510 0.983123
P13   P     P_3+3 0.105800 0.552640 0.149510 0.983675
P14   P     P_3+3 0.605800 0.947360 0.649510 0.983126
P15   P     P_3+3 0.605800 0.052640 0.149510 0.983677
P16   P     P_3+3 0.064274 0.344158 0.086207 0.941677

loop_
_geom_bond_atom_site_label_1
_geom_bond_atom_site_label_2
_ccdc_geom_bond_type
C58   H114  S    
C59   O3    S    
C3    C51   S    
C98   H5    S    
C115  H41   S    
C9    O46   D    
C59   C94   S    
C29   H105  S    
C20   O52   D    
O22   P1    S    
C80   H75   S    
Ba4   O35   S    
C16   H29   S    
C75   P13   S    
C70   C88   A    
C99   H6    S    
C14   C36   S    
C114  O27   S    
C96   H125  S    
C72   C90   A    
C26   H95   S    
C113  H50   S    
C46   C86   S    
C50   H89   S    
Ba3   O13   S    
O12   P9    D    
C66   C70   A    
C108  H40   S    
C94   H124  S    
C68   H93   S    
C37   C39   A    
C101  H74   S    
C107  O24   S    
Ba2   O6    S    
C98   O45   S    
C25   C65   S    
O37   P2    S    
C21   C25   A    
O31   P12   D    
O13   P11   S    
C23   C27   A    
Ba4   O39   S    
Ba3   P10   S    
C24   C28   A    
C108  O25   S    
C30   H99   S    
C77   P15   S    
C60   H121  S    
Ba4   O17   S    
C58   H119  S    
C38   C41   A    
C18   C54   S    
C113  H46   S    
C44   C83   S    
C5    C73   A    
C62   C106  A    
O20   P8    D    
O35   P15   D    
O36   P16   S    
C69   H94   S    
C21   H86   S    
C104  H24   S    
Ba1   O6    S    
C71   C89   A    
Ba1   O10   S    
C8    H12   S    
C10   O47   D    
C12   H18   S    
C93   H127  S    
C16   C38   S    
C81   C86   A    
C11   H16   S    
C3    H63   S    
C106  H82   S    
C76   P12   S    
C2    H83   S    
C45   C49   A    
O53   P13   S    
O24   P9    S    
C99   H10   S    
O45   P12   S    
O11   P10   S    
C54   C63   A    
C44   C48   A    
O3    P3    S    
O43   P4    D    
C27   C32   A    
O5    P13   S    
C115  H57   S    
C76   C89   A    
C28   H98   S    
C72   P4    S    
C51   H108  S    
Ba3   O38   S    
O38   P3    S    
C57   H113  S    
O39   P4    S    
C97   H8    S    
C57   C92   S    
C110  H47   S    
C78   P14   S    
C10   C108  S    
C6    C84   A    
O54   P14   S    
C17   O49   D    
C24   C64   S    
Ba1   O31   S    
Ba2   O32   S    
Ba1   O1    S    
C10   H15   S    
C74   P3    S    
Ba3   O23   S    
C7    C95   A    
C116  H58   S    
C115  O28   S    
C60   O4    S    
C100  H11   S    
C5    C32   A    
Ba4   O34   S    
C51   H64   S    
C16   H28   S    
C29   H66   S    
O17   P7    S    
O19   P5    D    
C20   C56   S    
C113  H55   S    
C114  H56   S    
C96   H72   S    
O14   P6    S    
C66   C83   A    
C49   C56   A    
C110  H51   S    
C11   O48   D    
C15   H26   S    
O1    P1    D    
C104  H37   S    
C12   C35   S    
C51   H68   S    
Ba1   P1    S    
C91   H103  S    
C5    H110  S    
C79   H73   S    
C94   H128  S    
C58   C93   S    
C68   C86   A    
C4    H109  S    
C58   O2    S    
C102  H2    S    
C28   C33   A    
C14   H20   S    
C105  C110  S    
Ba2   O37   S    
C109  C113  S    
C22   C26   A    
Ba4   O8    S    
Ba3   Ba4   S    
C108  C112  S    
C18   H31   S    
C78   C91   A    
C14   H21   S    
C94   H71   S    
C99   C103  S    
C8    O44   D    
C1    C114  S    
C95   P11   S    
C111  H53   S    
C77   C90   A    
C116  O29   S    
C56   C65   A    
C52   C54   A    
O18   P6    D    
C23   C63   S    
C40   H67   S    
Ba1   O14   S    
Ba2   O9    S    
Ba3   O16   S    
Ba1   P12   S    
C90   H102  S    
O15   P5    S    
C111  H48   S    
C40   H106  S    
C77   C81   A    
C50   C53   A    
C79   C83   A    
C19   H32   S    
O32   P13   D    
C48   H87   S    
C35   C61   A    
C1    H65   S    
C76   C80   A    
O16   P8    S    
C71   P16   S    
C46   C50   A    
C60   H116  S    
C82   C87   A    
C40   C116  S    
C49   H88   S    
C107  H39   S    
Ba3   O8    S    
C47   C87   S    
C21   C95   A    
C15   H23   S    
C32   P5    S    
O34   P11   D    
C70   P2    S    
C13   C24   A    
C18   O50   D    
Ba4   P11   S    
C92   H126  S    
Ba1   O5    S    
C37   C64   A    
O40   P16   D    
C59   H120  S    
C43   C47   A    
O41   P2    D    
C78   C82   A    
C25   C30   A    
C7    C34   A    
C19   C55   S    
C1    H60   S    
C52   H90   S    
C105  O22   S    
O29   P8    S    
Ba2   O15   S    
C41   C45   A    
C74   C91   A    
C84   P10   S    
Ba2   P9    S    
Ba4   O11   S    
C29   H61   S    
O23   P10   D    
C112  H45   S    
C41   H79   S    
Ba2   O5    S    
C40   H62   S    
C100  C104  S    
C19   O51   D    
C20   H33   S    
O2    P2    S    
C33   P8    S    
C34   P7    S    
C53   C61   A    
C81   H76   S    
C104  H107  S    
C112  H54   S    
C96   H3    S    
O6    P12   S    
C103  H13   S    
C75   C79   A    
C100  H7    S    
C6    H111  S    
C97   H4    S    
C39   H78   S    
O33   P14   D    
C82   H77   S    
C59   H115  S    
C60   C96   S    
C9    C107  S    
C67   H92   S    
C4    C31   A    
C15   C37   S    
C27   H97   S    
C36   C43   A    
Ba2   O12   S    
C4    C62   A    
C7    H112  S    
C13   C84   A    
C9    H14   S    
C12   H17   S    
C98   H9    S    
C68   C72   A    
C102  H85   S    
O10   P9    S    
O42   P3    D    
C15   H25   S    
C57   O56   S    
C26   C31   A    
C6    C33   A    
C47   C52   A    
O55   P15   S    
C62   P1    S    
O56   P16   S    
C43   H81   S    
Ba1   Ba2   S    
Ba3   P14   S    
C111  H44   S    
C88   H100  S    
C109  H42   S    
C103  H96   S    
C101  H118  S    
C3    O30   S    
C39   C44   A    
C22   C106  A    
C97   O53   S    
C103  H36   S    
O25   P10   S    
C99   O55   S    
C101  H34   S    
C66   H91   S    
C105  H38   S    
C8    C105  S    
O8    P14   S    
C97   C101  S    
O4    P4    S    
C14   H22   S    
C69   C87   A    
C116  H52   S    
C2    C73   A    
C36   C63   A    
C38   C65   A    
C114  H1    S    
C92   H69   S    
C13   H84   S    
C17   C53   S    
C48   C55   A    
C55   C64   A    
C93   H123  S    
C42   H80   S    
C2    C23   A    
C67   C85   A    
C69   C74   A    
C1    H104  S    
C11   C109  S    
C16   H27   S    
C3    H59   S    
C17   H30   S    
Ba4   P15   S    
C92   H122  S    
C75   C88   A    
C35   C42   A    
O27   P6    S    
C93   H70   S    
C29   C115  S    
C12   H19   S    
C80   C85   A    
C100  O54   S    
C30   C34   A    
C22   C61   S    
C45   C85   S    
O28   P5    S    
C109  O26   S    
Ba1   O36   S    
C107  C111  S    
O30   P7    S    
C73   P9    S    
C42   C46   A    
Ba2   P13   S    
C57   H117  S    
C31   P6    S    
C67   C71   A    
C110  H43   S    
O9    P1    S    
C112  H49   S    
C98   C102  S    
Ba3   O7    S    
O26   P11   S    
Ba3   O33   S    
C102  H35   S    
C89   H101  S    
Ba4   O7    S    
O7    P15   S    
O21   P7    D    
