data_mof_unit_16841.cif
_audit_creation_date              2012-12-11T17:47:38-0500
_audit_creation_method            fapswitch 2.2
_symmetry_space_group_name_H-M    P1
_symmetry_Int_Tables_number       1
_space_group_crystal_system       triclinic
_cell_length_a                    7.226047
_cell_length_b                    22.941036
_cell_length_c                    25.319353
_cell_angle_alpha                 89.999962
_cell_angle_beta                  90.000111
_cell_angle_gamma                 90.0004
_cell_volume                      4197.26521527

loop_
_atom_site_label
_atom_site_type_symbol
_atom_type_description
_atom_site_fract_x
_atom_site_fract_y
_atom_site_fract_z
_atom_type_partial_charge
O1    O     O_R   0.690340 0.802800 0.195640 -0.535654
O2    O     O_R   0.309660 0.197200 0.804360 -0.534636
O3    O     O_R   0.309660 0.197200 0.695640 -0.535652
O4    O     O_R   0.690340 0.802800 0.304360 -0.534636
O5    O     O_R   0.190340 0.697200 0.304360 -0.535655
O6    O     O_R   0.809660 0.302800 0.695640 -0.534636
O7    O     O_R   0.809660 0.302800 0.804360 -0.535654
O8    O     O_R   0.190340 0.697200 0.195640 -0.534636
O9    O     O_R   0.360590 0.809740 0.303990 -0.544029
O10   O     O_R   0.639410 0.190260 0.696010 -0.538249
O11   O     O_R   0.639410 0.190260 0.803990 -0.544030
O12   O     O_R   0.360590 0.809740 0.196010 -0.538250
O13   O     O_R   0.860590 0.690260 0.196010 -0.544030
O14   O     O_R   0.139410 0.309740 0.803990 -0.538250
O15   O     O_R   0.139410 0.309740 0.696010 -0.544030
O16   O     O_R   0.860590 0.690260 0.303990 -0.538250
C1    C     C_R   0.527300 0.822913 0.322300 0.694804
C2    C     C_R   0.472041 0.175369 0.679404 0.697142
C3    C     C_R   0.472701 0.177086 0.822299 0.694804
C4    C     C_R   0.527959 0.824631 0.179404 0.697145
C5    C     C_R   0.027299 0.677086 0.177700 0.694804
C6    C     C_R   0.972042 0.324631 0.820596 0.697144
C7    C     C_R   0.972701 0.322914 0.677701 0.694804
C8    C     C_R   0.027958 0.675369 0.320596 0.697145
O17   O     O_3   0.523810 0.713070 0.250000 -0.375058
O18   O     O_3   0.476190 0.286930 0.750000 -0.375058
O19   O     O_3   0.023810 0.786930 0.250000 -0.375057
O20   O     O_3   0.976190 0.213070 0.750000 -0.375057
V1    V     V_3+5 0.248970 0.756850 0.250000 1.395970
V2    V     V_3+5 0.751030 0.243150 0.750000 1.395973
V3    V     V_3+5 0.748970 0.743150 0.250000 1.395971
V4    V     V_3+5 0.251030 0.256850 0.750000 1.395974
C9    C     C_R   0.023995 0.627818 0.360452 -0.059378
C10   C     C_R   0.980073 0.364498 0.632263 -0.063937
C11   C     C_R   0.976006 0.372182 0.860452 -0.059372
C12   C     C_R   0.019926 0.635503 0.132262 -0.063937
C13   C     C_R   0.523997 0.872182 0.139548 -0.059373
C14   C     C_R   0.480070 0.135501 0.867736 -0.063938
C15   C     C_R   0.476003 0.127818 0.639548 -0.059349
C16   C     C_R   0.519929 0.864496 0.367738 -0.063939
C17   C     C_R   0.885085 0.585095 0.356206 -0.215146
C18   C     C_R   0.148494 0.369928 0.604449 -0.221316
C19   C     C_R   0.114917 0.414904 0.856206 -0.215152
C20   C     C_R   0.851505 0.630075 0.104448 -0.221313
C21   C     C_R   0.385089 0.914904 0.143794 -0.215154
C22   C     C_R   0.648490 0.130072 0.895551 -0.221319
C23   C     C_R   0.614913 0.085096 0.643795 -0.215174
C24   C     C_R   0.351510 0.869922 0.395554 -0.221311
C25   C     C_R   0.854446 0.544066 0.396303 0.109244
C26   C     C_R   0.173701 0.411871 0.564994 0.102602
C27   C     C_R   0.145560 0.455933 0.896304 0.109241
C28   C     C_R   0.826297 0.588133 0.064992 0.102601
C29   C     C_R   0.354450 0.955934 0.103698 0.109245
C30   C     C_R   0.673693 0.088128 0.935005 0.102607
C31   C     C_R   0.645562 0.044069 0.603697 0.109224
C32   C     C_R   0.326303 0.911863 0.435010 0.102608
C33   C     C_R   0.965387 0.544808 0.442042 0.393978
C34   C     C_R   0.026906 0.449152 0.551376 0.407834
C35   C     C_R   0.034620 0.455190 0.942043 0.393991
C36   C     C_R   0.973090 0.550852 0.051373 0.407829
C37   C     C_R   0.465394 0.955193 0.057959 0.393987
C38   C     C_R   0.526897 0.050847 0.948622 0.407839
C39   C     C_R   0.534620 0.044809 0.557958 0.394029
C40   C     C_R   0.473094 0.949145 0.448628 0.407829
C41   C     C_R   0.109203 0.586677 0.445708 -0.185019
C42   C     C_R   0.855065 0.442788 0.577572 -0.185258
C43   C     C_R   0.890801 0.413322 0.945708 -0.185031
C44   C     C_R   0.144932 0.557214 0.077569 -0.185255
C45   C     C_R   0.609210 0.913325 0.054293 -0.185032
C46   C     C_R   0.355057 0.057211 0.922426 -0.185262
C47   C     C_R   0.390801 0.086677 0.554292 -0.185074
C48   C     C_R   0.644936 0.942785 0.422432 -0.185254
C49   C     C_R   0.138243 0.627647 0.405178 -0.237926
C50   C     C_R   0.832002 0.400788 0.617732 -0.235124
C51   C     C_R   0.861759 0.372352 0.905178 -0.237924
C52   C     C_R   0.167995 0.599214 0.117730 -0.235125
C53   C     C_R   0.638248 0.872354 0.094823 -0.237923
C54   C     C_R   0.331997 0.099212 0.882267 -0.235121
C55   C     C_R   0.361758 0.127647 0.594822 -0.237916
C56   C     C_R   0.667998 0.900786 0.382270 -0.235122
N1    N     N_2   0.927318 0.503339 0.482926 -0.309687
N2    N     N_2   0.060359 0.493523 0.512989 -0.317810
N3    N     N_2   0.072689 0.496659 0.982928 -0.309687
N4    N     N_2   0.939635 0.506483 0.012983 -0.317809
N5    N     N_2   0.427323 0.996664 0.017076 -0.309682
N6    N     N_2   0.560352 0.006474 0.987008 -0.317811
N7    N     N_2   0.572690 0.003340 0.517074 -0.309679
N8    N     N_2   0.439638 0.993515 0.487017 -0.317810
H1    H     H_    0.263572 0.341391 0.613632 0.137753
H2    H     H_    0.795938 0.584565 0.321761 0.133051
H3    H     H_    0.736428 0.658611 0.113631 0.137754
H4    H     H_    0.204064 0.415434 0.821761 0.133048
H5    H     H_    0.763569 0.158608 0.886369 0.137754
H6    H     H_    0.295940 0.915434 0.178239 0.133049
H7    H     H_    0.236434 0.841384 0.386371 0.137754
H8    H     H_    0.704059 0.084567 0.678240 0.133039
H9    H     H_    0.196772 0.588616 0.480352 0.149977
H10   H     H_    0.740921 0.471480 0.568076 0.137264
H11   H     H_    0.803235 0.411383 0.980353 0.149977
H12   H     H_    0.259075 0.528523 0.068073 0.137265
H13   H     H_    0.696781 0.911386 0.019649 0.149981
H14   H     H_    0.240911 0.028519 0.931922 0.137258
H15   H     H_    0.303234 0.088615 0.519647 0.149985
H16   H     H_    0.759079 0.971477 0.431928 0.137255
H17   H     H_    0.244788 0.660461 0.409750 0.134644
H18   H     H_    0.701075 0.397946 0.638368 0.135343
H19   H     H_    0.755214 0.339539 0.909750 0.134642
H20   H     H_    0.298923 0.602054 0.138366 0.135343
H21   H     H_    0.744793 0.839541 0.090251 0.134643
H22   H     H_    0.201070 0.102053 0.861631 0.135343
H23   H     H_    0.255213 0.160460 0.590249 0.134635
H24   H     H_    0.798925 0.897947 0.361634 0.135342
C57   C     C_3   0.358745 0.415787 0.537255 -0.354862
C58   C     C_3   0.350385 0.387683 0.482688 -0.724746
H25   H     H_    0.313576 0.340836 0.486298 0.221316
H26   H     H_    0.246232 0.409784 0.457436 0.238510
H27   H     H_    0.487859 0.391156 0.463345 0.219811
H28   H     H_    0.402256 0.462067 0.533690 0.187401
H29   H     H_    0.467590 0.393193 0.560510 0.174898
C59   C     C_3   0.699420 0.500416 0.389850 -0.368505
C60   C     C_3   0.523550 0.522386 0.416424 -0.719320
H30   H     H_    0.484665 0.565527 0.399952 0.230888
H31   H     H_    0.408558 0.491401 0.408988 0.223124
H32   H     H_    0.544404 0.526482 0.459719 0.234197
H33   H     H_    0.670195 0.492982 0.347259 0.171679
H34   H     H_    0.739215 0.457475 0.406690 0.194225
C61   C     C_3   0.641252 0.584219 0.037252 -0.354863
C62   C     C_3   0.649612 0.612326 0.982687 -0.724748
H35   H     H_    0.686419 0.659173 0.986299 0.221317
H36   H     H_    0.753767 0.590226 0.957434 0.238508
H37   H     H_    0.512139 0.608852 0.963343 0.219812
H38   H     H_    0.597741 0.537939 0.033686 0.187399
H39   H     H_    0.532408 0.606812 0.060509 0.174898
C63   C     C_3   0.300591 0.499581 0.889853 -0.368497
C64   C     C_3   0.476444 0.477616 0.916440 -0.719315
H40   H     H_    0.515336 0.434471 0.899977 0.230885
H41   H     H_    0.591443 0.508598 0.909003 0.223130
H42   H     H_    0.455566 0.473529 0.959734 0.234197
H43   H     H_    0.329844 0.507007 0.847261 0.171679
H44   H     H_    0.260783 0.542525 0.906683 0.194219
C65   C     C_3   0.858737 0.084212 0.962745 -0.354862
C66   C     C_3   0.850378 0.112317 0.017312 -0.724753
H45   H     H_    0.813572 0.159163 0.013700 0.221318
H46   H     H_    0.746225 0.090215 0.042563 0.238509
H47   H     H_    0.987853 0.108843 0.036655 0.219814
H48   H     H_    0.902244 0.037931 0.966310 0.187399
H49   H     H_    0.967583 0.106805 0.939489 0.174898
C67   C     C_3   0.199419 0.999582 0.110148 -0.368501
C68   C     C_3   0.023569 0.977616 0.083560 -0.719332
H50   H     H_    0.984680 0.934470 0.100022 0.230889
H51   H     H_    0.908570 0.008598 0.090998 0.223128
H52   H     H_    0.044450 0.973532 0.040266 0.234202
H53   H     H_    0.170162 0.007006 0.152740 0.171681
H54   H     H_    0.239227 0.042526 0.093319 0.194221
C69   C     C_3   0.141260 0.915775 0.462750 -0.354868
C70   C     C_3   0.149622 0.887662 0.517313 -0.724763
H55   H     H_    0.186421 0.840815 0.513697 0.221321
H56   H     H_    0.253784 0.909758 0.542566 0.238504
H57   H     H_    0.012151 0.891135 0.536659 0.219822
H58   H     H_    0.097751 0.962054 0.466320 0.187392
H59   H     H_    0.032413 0.893184 0.439492 0.174901
C71   C     C_3   0.800609 0.000426 0.610144 -0.368456
C72   C     C_3   0.976399 0.022374 0.583509 -0.719299
H60   H     H_    0.015310 0.065537 0.599931 0.230876
H61   H     H_    0.091425 0.991403 0.590950 0.223140
H62   H     H_    0.955431 0.026420 0.540215 0.234198
H63   H     H_    0.829972 0.993033 0.652734 0.171675
H64   H     H_    0.760751 0.957471 0.593347 0.194193

loop_
_geom_bond_atom_site_label_1
_geom_bond_atom_site_label_2
_ccdc_geom_bond_type
O17   V3    S    
C64   H42   S    
N7    N8    D    
C51   H19   S    
C24   H7    S    
O12   V1    S    
O19   V1    S    
C45   C53   A    
C72   H60   S    
C10   C18   A    
C24   C32   A    
C19   C27   A    
C62   H35   S    
C47   C55   A    
C58   H25   S    
C25   C33   A    
O15   V4    S    
C5    C12   S    
N5    N6    D    
C69   H59   S    
O16   V3    S    
O18   V4    S    
C6    C11   S    
C38   N6    S    
O11   C3    A    
O12   C4    A    
O8    V1    S    
C23   C31   A    
C70   H55   S    
C72   H61   S    
C35   N3    S    
C57   C58   S    
C34   N2    S    
C63   H44   S    
C27   C63   S    
C59   H34   S    
C25   C59   S    
C46   C54   A    
C37   C45   A    
C42   C50   A    
O1    V3    S    
C41   C49   A    
C38   C46   A    
O3    C2    A    
O2    V4    S    
C16   C24   A    
C61   H38   S    
C60   H32   S    
C12   C52   A    
C35   C43   A    
C57   H29   S    
C29   C37   A    
C70   H56   S    
C34   C42   A    
O11   V2    S    
C31   C39   A    
C52   H20   S    
C23   H8    S    
C16   C56   A    
C11   C19   A    
O9    V1    S    
O4    V3    S    
C20   C28   A    
O15   C7    A    
C17   H2    S    
O2    C3    A    
C21   C29   A    
O16   C8    A    
O7    V2    S    
C66   H47   S    
C56   H24   S    
C67   H54   S    
C32   C69   S    
C21   H6    S    
C17   C25   A    
C26   C57   S    
C28   C61   S    
C8    C9    S    
N1    N2    D    
O5    V1    S    
C14   C22   A    
C26   C34   A    
C64   H40   S    
C72   H62   S    
C67   C68   S    
C22   H5    S    
C68   H52   S    
O14   V4    S    
C63   H43   S    
C59   H33   S    
C48   H16   S    
C13   C53   A    
C29   C67   S    
C71   H63   S    
C1    C16   S    
C15   C55   A    
C2    C15   S    
C44   H12   S    
C3    C14   S    
C50   H18   S    
O10   V2    S    
C49   H17   S    
N3    N4    D    
C7    C10   S    
C11   C51   A    
C22   C30   A    
C32   C40   A    
O8    C5    A    
O13   C5    A    
C54   H22   S    
C53   H21   S    
C60   H30   S    
C39   C47   A    
C20   H3    S    
C37   N5    S    
C65   H48   S    
C18   C26   A    
C71   H64   S    
O4    C1    A    
C9    C49   A    
O6    V2    S    
C10   C50   A    
C45   H13   S    
C66   H46   S    
C12   C20   A    
C27   C35   A    
C67   H53   S    
C13   C21   A    
C61   C62   S    
C62   H37   S    
C59   C60   S    
C15   C23   A    
C71   C72   S    
O9    C1    A    
C64   H41   S    
C47   H15   S    
O1    C4    A    
C39   N7    S    
C69   H58   S    
O13   V3    S    
C70   H57   S    
C61   H39   S    
C31   C71   S    
C33   C41   A    
C62   H36   S    
C58   H26   S    
C46   H14   S    
C63   C64   S    
C43   H11   S    
C44   C52   A    
O7    C6    A    
C30   C38   A    
C14   C54   A    
C19   H4    S    
C55   H23   S    
C18   H1    S    
C9    C17   A    
C42   H10   S    
C68   H51   S    
C41   H9    S    
C48   C56   A    
C65   C66   S    
C4    C13   S    
C36   N4    S    
O14   C6    A    
O5    C8    A    
O10   C2    A    
O6    C7    A    
O20   V2    S    
C33   N1    S    
C40   C48   A    
O3    V4    S    
C60   H31   S    
C58   H27   S    
C65   H49   S    
C57   H28   S    
C30   C65   S    
C43   C51   A    
C36   C44   A    
C28   C36   A    
C69   C70   S    
C66   H45   S    
C68   H50   S    
C40   N8    S    
