data_mof_unit_15073.cif
_audit_creation_date              2012-12-10T17:15:48-0500
_audit_creation_method            fapswitch 2.2
_symmetry_space_group_name_H-M    P1
_symmetry_Int_Tables_number       1
_space_group_crystal_system       triclinic
_cell_length_a                    10.204408
_cell_length_b                    10.589172
_cell_length_c                    10.691359
_cell_angle_alpha                 90.830818
_cell_angle_beta                  95.562916
_cell_angle_gamma                 82.645921
_cell_volume                      1140.36609876

loop_
_atom_site_label
_atom_site_type_symbol
_atom_type_description
_atom_site_fract_x
_atom_site_fract_y
_atom_site_fract_z
_atom_type_partial_charge
Br1   Br    Br    0.231992 0.531752 0.061411 -0.497428
Br2   Br    Br    0.141396 0.345124 0.380642 -0.430393
Br3   Br    Br    0.857315 0.492918 0.280014 -0.407392
C1    C     C_R   0.444041 0.513272 0.266921 0.883848
C2    C     C_2   0.491591 0.570747 0.932668 -0.098992
C3    C     C_2   0.078690 0.473774 0.497810 0.223692
C4    C     C_R   0.499642 0.260988 0.503428 0.870465
C5    C     C_2   0.939271 0.469051 0.533089 0.486756
C6    C     C_R   0.555889 0.497729 0.733026 0.875510
C7    C     C_R   0.502023 0.738888 0.502491 0.834435
C8    C     C_R   0.658092 0.115427 0.704409 -0.169785
C9    C     C_R   0.736856 0.041391 0.796896 -0.137786
C10   C     C_R   0.740263 0.909541 0.794863 -0.110446
C11   C     C_R   0.664867 0.851301 0.700392 -0.167876
C12   C     C_R   0.582000 0.057710 0.607257 0.094804
C13   C     C_R   0.585444 0.925038 0.605221 0.086844
C14   C     C_3   0.001432 0.382833 0.728685 0.044957
C15   C     C_3   0.944315 0.358844 0.851697 -0.303200
C16   C     C_3   0.033557 0.256696 0.930213 -0.853050
C17   C     C_R   0.499803 0.128732 0.512586 -0.098583
C18   C     C_R   0.420495 0.072834 0.420364 -0.169782
C19   C     C_R   0.423268 0.943605 0.418764 -0.191150
C20   C     C_R   0.506054 0.870885 0.508893 -0.085248
C21   C     C_2   0.411543 0.538521 0.133981 0.106699
C22   C     C_2   0.509420 0.564412 0.067350 -0.227141
C23   C     C_2   0.587046 0.514355 0.866509 -0.368993
H1    H     H_    0.359153 0.129114 0.347662 0.190554
H2    H     H_    0.683927 0.477503 0.911615 0.164545
H3    H     H_    0.099811 0.416796 0.751087 0.168715
H4    H     H_    0.014695 0.290361 0.676865 0.146743
H5    H     H_    0.932903 0.448762 0.906783 0.260564
H6    H     H_    0.845275 0.326516 0.830232 0.208299
H7    H     H_    0.041118 0.164430 0.878937 0.244793
H8    H     H_    0.990724 0.244033 0.020136 0.287486
H9    H     H_    0.134463 0.284886 0.951495 0.298374
H10   H     H_    0.118195 0.614116 0.616518 0.161135
H11   H     H_    0.656086 0.217605 0.710697 0.135158
H12   H     H_    0.794488 0.086504 0.870924 0.149773
H13   H     H_    0.800675 0.852268 0.867225 0.160310
H14   H     H_    0.668597 0.748888 0.703467 0.157060
H15   H     H_    0.362219 0.899730 0.346095 0.164907
H16   H     H_    0.394946 0.609370 0.887763 0.219048
H17   H     H_    0.609551 0.567699 0.111163 0.210901
N1    N     N_2   0.157290 0.551390 0.551110 -0.217678
N2    N     N_2   0.842740 0.448550 0.448960 -0.009290
O1    O     O_R   0.568950 0.489660 0.307530 -0.596786
O2    O     O_R   0.348880 0.522640 0.340350 -0.531013
O3    O     O_R   0.610060 0.300270 0.483590 -0.603094
O4    O     O_R   0.389990 0.333260 0.516410 -0.573711
O5    O     O_R   0.651120 0.477360 0.659650 -0.577097
O6    O     O_R   0.431050 0.510340 0.692470 -0.611737
O7    O     O_R   0.610010 0.666740 0.483590 -0.597763
O8    O     O_R   0.389940 0.699730 0.516410 -0.607755
O9    O     O_3   0.914185 0.476490 0.658390 -0.644744
Zn1   Zn    Zn3+2 0.646940 0.477980 0.478090 1.043261
Zn2   Zn    Zn3+2 0.353060 0.522020 0.521910 1.008277

loop_
_geom_bond_atom_site_label_1
_geom_bond_atom_site_label_2
_ccdc_geom_bond_type
O1    Zn1   S    
O3    Zn1   S    
C3    C5    S    
C8    C9    A    
C16   H8    S    
C7    C20   S    
O4    Zn2   S    
C14   H3    S    
N1    Zn2   S    
C23   H2    S    
O5    Zn1   S    
C6    O6    A    
O7    Zn1   S    
C2    H16   S    
C7    O7    A    
C4    O3    A    
C22   H17   S    
C14   C15   S    
C18   H1    S    
C16   H9    S    
C10   C11   A    
C21   C22   D    
C14   H4    S    
C3    N1    D    
N2    Zn1   S    
Br2   C3    S    
C2    C22   S    
C18   C19   A    
C6    C23   S    
C15   C16   S    
C13   C20   A    
C9    H12   S    
C12   C17   A    
C1    C21   S    
C11   C13   A    
C10   H13   S    
C19   H15   S    
H10   N1    S    
C11   H14   S    
C2    C23   D    
C15   H6    S    
C9    C10   A    
C4    O4    A    
Br1   C21   S    
C4    C17   S    
C16   H7    S    
O8    Zn2   S    
C5    O9    S    
C8    H11   S    
C7    O8    A    
C19   C20   A    
C1    O1    A    
C15   H5    S    
C17   C18   A    
C5    N2    D    
C8    C12   A    
C14   O9    S    
Br3   N2    S    
C6    O5    A    
C12   C13   A    
O2    Zn2   S    
C1    O2    A    
O6    Zn2   S    
