data_mof_unit_26139.cif
_audit_creation_date              2012-12-11T14:08:34-0500
_audit_creation_method            fapswitch 2.2
_symmetry_space_group_name_H-M    P1
_symmetry_Int_Tables_number       1
_space_group_crystal_system       triclinic
_cell_length_a                    28.178466
_cell_length_b                    7.202553
_cell_length_c                    17.187679
_cell_angle_alpha                 89.868265
_cell_angle_beta                  101.866395
_cell_angle_gamma                 89.788333
_cell_volume                      3413.77093803

loop_
_atom_site_label
_atom_site_type_symbol
_atom_type_description
_atom_site_fract_x
_atom_site_fract_y
_atom_site_fract_z
_atom_type_partial_charge
O1    O     O_R   0.000700 0.436510 0.857920 -0.533771
O2    O     O_R   0.999300 0.563490 0.142080 -0.533774
O3    O     O_R   0.999300 0.936510 0.642080 -0.533542
O4    O     O_R   0.000700 0.063490 0.357920 -0.533623
O5    O     O_R   0.930080 0.766380 0.721890 -0.541030
O6    O     O_R   0.069920 0.233620 0.278110 -0.540975
O7    O     O_R   0.069920 0.266380 0.778110 -0.540550
O8    O     O_R   0.930080 0.733620 0.221890 -0.540429
C1    C     C_R   0.910624 0.597919 0.709366 0.707692
C2    C     C_R   0.089351 0.401948 0.290964 0.707358
C3    C     C_R   0.089347 0.097277 0.790875 0.708695
C4    C     C_R   0.910676 0.902771 0.208804 0.708564
O9    O     O_R   0.996180 0.766230 0.862310 -0.543539
O10   O     O_R   0.003820 0.233770 0.137690 -0.543595
O11   O     O_R   0.003820 0.266230 0.637690 -0.543528
O12   O     O_R   0.996180 0.733770 0.362310 -0.543491
O13   O     O_R   0.065870 0.936460 0.783500 -0.538662
O14   O     O_R   0.934130 0.063540 0.216500 -0.538683
O15   O     O_R   0.934130 0.436460 0.716500 -0.538446
O16   O     O_R   0.065870 0.563540 0.283500 -0.538339
C5    C     C_R   0.998482 0.596359 0.894443 0.761282
C6    C     C_R   0.001515 0.403641 0.105557 0.761266
C7    C     C_R   0.001516 0.096542 0.605512 0.760719
C8    C     C_R   0.998487 0.903457 0.394489 0.760815
O17   O     O_3   0.022790 0.603020 0.723980 -0.377873
O18   O     O_3   0.977210 0.396980 0.276020 -0.377836
O19   O     O_3   0.977210 0.103020 0.776020 -0.379012
O20   O     O_3   0.022790 0.896980 0.223980 -0.378956
V1    V     V_3+5 0.995770 0.877900 0.754830 1.424255
V2    V     V_3+5 0.004230 0.122100 0.245170 1.424234
V3    V     V_3+5 0.004230 0.377900 0.745170 1.424849
V4    V     V_3+5 0.995770 0.622100 0.254830 1.425186
C9    C     C_2   0.001703 0.082612 0.519499 -0.324327
C10   C     C_2   0.998303 0.917387 0.480502 -0.324307
C11   C     C_2   0.998288 0.582549 0.980382 -0.323803
C12   C     C_2   0.001706 0.417450 0.019616 -0.323931
H1    H     H_    0.004487 0.211240 0.487664 0.153267
H2    H     H_    0.995519 0.788759 0.512338 0.153330
H3    H     H_    0.995493 0.711258 0.011977 0.153441
H4    H     H_    0.004500 0.288741 0.988020 0.153489
C13   C     C_R   0.683052 0.918458 0.027560 0.644215
C14   C     C_R   0.317073 0.077907 0.970173 0.644549
C15   C     C_R   0.316081 0.473659 0.472096 0.650113
C16   C     C_R   0.683921 0.530879 0.529164 0.650072
O21   O     O_2   0.711781 0.874428 0.976376 -0.482550
O22   O     O_2   0.288037 0.108096 0.022349 -0.483789
O23   O     O_2   0.286330 0.490275 0.524043 -0.488262
O24   O     O_2   0.713689 0.530291 0.476857 -0.488753
N1    N     N_R   0.703229 0.947607 0.105890 -0.568891
N2    N     N_R   0.297148 0.060064 0.891050 -0.567280
N3    N     N_R   0.296855 0.446406 0.393266 -0.563487
N4    N     N_R   0.703056 0.543964 0.608811 -0.565867
C17   C     C_R   0.675000 0.988208 0.159642 0.635589
C18   C     C_R   0.325788 0.036279 0.836376 0.634953
C19   C     C_R   0.326002 0.435117 0.338775 0.628275
C20   C     C_R   0.673870 0.535261 0.663377 0.638596
C21   C     C_R   0.776823 0.779660 0.172249 -0.077291
C22   C     C_R   0.222840 0.224119 0.825110 -0.075718
C23   C     C_R   0.218532 0.581732 0.327300 -0.087632
C24   C     C_R   0.781998 0.413345 0.674711 -0.082663
C25   C     C_R   0.827281 0.766858 0.196672 -0.172569
C26   C     C_R   0.172336 0.235176 0.801540 -0.173594
C27   C     C_R   0.168104 0.572403 0.302994 -0.179489
C28   C     C_R   0.832397 0.424896 0.698371 -0.181551
C29   C     C_R   0.835173 0.074086 0.143325 -0.209254
C30   C     C_R   0.165505 0.926803 0.854432 -0.208717
C31   C     C_R   0.169657 0.258616 0.354353 -0.212134
C32   C     C_R   0.829617 0.739954 0.648240 -0.211184
C33   C     C_R   0.784768 0.085929 0.117635 0.197975
C34   C     C_R   0.216018 0.916598 0.879300 0.200323
C35   C     C_R   0.220157 0.268978 0.380234 0.203729
C36   C     C_R   0.779073 0.727537 0.623035 0.205372
C37   C     C_R   0.755227 0.937976 0.132033 0.330503
C38   C     C_R   0.245074 0.066378 0.864918 0.329246
C39   C     C_R   0.244917 0.431787 0.366909 0.334531
C40   C     C_R   0.754922 0.562508 0.635750 0.329426
C41   C     C_R   0.602562 0.977513 0.053693 -0.098601
C42   C     C_R   0.398013 0.038429 0.942886 -0.097648
C43   C     C_R   0.397655 0.471492 0.444866 -0.092410
C44   C     C_R   0.602451 0.511425 0.555989 -0.098541
C45   C     C_R   0.632670 0.934940 0.999950 -0.024735
C46   C     C_R   0.367518 0.064284 0.997574 -0.032336
C47   C     C_R   0.366587 0.483738 0.499430 -0.020864
C48   C     C_R   0.633486 0.518273 0.501356 -0.020949
C49   C     C_R   0.612055 0.909745 0.919621 -0.114107
C50   C     C_R   0.387764 0.073498 0.078725 -0.105014
C51   C     C_R   0.386390 0.507142 0.580225 -0.110182
C52   C     C_R   0.613689 0.513744 0.419943 -0.107841
C53   C     C_R   0.623848 0.003657 0.134973 -0.041181
C54   C     C_R   0.377053 0.026606 0.860823 -0.039726
C55   C     C_R   0.377202 0.450732 0.362949 -0.053136
C56   C     C_R   0.622870 0.515519 0.638386 -0.038924
C57   C     C_R   0.857079 0.914307 0.182725 -0.086336
C58   C     C_R   0.143022 0.086512 0.815870 -0.086749
C59   C     C_R   0.143014 0.410703 0.316164 -0.083200
C60   C     C_R   0.856904 0.588077 0.685236 -0.083537
H5    H     H_    0.857191 0.189488 0.131439 0.152581
H6    H     H_    0.143865 0.810246 0.866326 0.153092
H7    H     H_    0.151233 0.132580 0.365391 0.151255
H8    H     H_    0.847563 0.867398 0.637567 0.151377
H9    H     H_    0.634417 0.876087 0.877268 0.188451
H10   H     H_    0.365021 0.089662 0.122029 0.199246
H11   H     H_    0.363288 0.520531 0.623133 0.182187
H12   H     H_    0.636726 0.520958 0.376721 0.179767
C61   C     C_R   0.479790 0.995234 0.915447 0.010668
C62   C     C_R   0.521030 0.031093 0.080545 0.010494
C63   C     C_R   0.520106 0.495959 0.583266 0.011218
C64   C     C_R   0.480108 0.475608 0.417282 0.003797
C65   C     C_R   0.469660 0.039241 0.053264 0.059230
C66   C     C_R   0.530825 0.972613 0.943485 0.064145
C67   C     C_R   0.531372 0.491974 0.444889 0.063858
C68   C     C_R   0.468787 0.495940 0.555377 0.064164
C69   C     C_R   0.449338 0.024403 0.970563 0.068244
C70   C     C_R   0.551293 0.993775 0.025868 0.067757
C71   C     C_R   0.551135 0.499680 0.527984 0.069191
C72   C     C_R   0.449023 0.480959 0.472520 0.067054
C73   C     C_R   0.458062 0.991055 0.833632 -0.247014
C74   C     C_R   0.543332 0.060494 0.161050 -0.244144
C75   C     C_R   0.541583 0.488898 0.665110 -0.247124
C76   C     C_R   0.458752 0.454848 0.335838 -0.220752
C77   C     C_R   0.407897 0.005575 0.806259 0.212597
C78   C     C_R   0.593499 0.046603 0.188389 0.213851
C79   C     C_R   0.591781 0.498386 0.692753 0.214823
C80   C     C_R   0.408437 0.444403 0.308265 0.219244
O25   O     O_2   0.304499 0.020191 0.758912 -0.469866
O26   O     O_2   0.696610 0.014648 0.236390 -0.470176
O27   O     O_2   0.694250 0.548031 0.741351 -0.468827
O28   O     O_2   0.305299 0.406573 0.261778 -0.477568
C81   C     C_R   0.562362 0.927622 0.891897 -0.203662
C82   C     C_R   0.437562 0.059971 0.106130 -0.200097
C83   C     C_R   0.436270 0.513571 0.607692 -0.205700
C84   C     C_R   0.563893 0.501853 0.392196 -0.201381
H13   H     H_    0.156305 0.359524 0.771430 0.150861
H14   H     H_    0.842890 0.642398 0.227225 0.150613
H15   H     H_    0.852149 0.306127 0.727569 0.148316
H16   H     H_    0.148805 0.691358 0.273129 0.147871
H17   H     H_    0.244829 0.339233 0.812922 0.160129
H18   H     H_    0.754389 0.665740 0.184233 0.157792
H19   H     H_    0.763888 0.287182 0.686272 0.163247
H20   H     H_    0.237211 0.706477 0.315620 0.158720
H21   H     H_    0.479066 0.979714 0.788154 0.122424
H22   H     H_    0.522954 0.098631 0.205146 0.119627
H23   H     H_    0.520384 0.470961 0.710055 0.122500
H24   H     H_    0.480349 0.445041 0.291242 0.114019
H25   H     H_    0.549911 0.901512 0.829432 0.118278
H26   H     H_    0.449464 0.063019 0.169743 0.126847
H27   H     H_    0.448076 0.537177 0.670532 0.118981
H28   H     H_    0.552317 0.503847 0.328542 0.116237
I1    I     I_    0.754823 0.330245 0.057726 -0.334825
I2    I     I_    0.246706 0.671453 0.937600 -0.350785
I3    I     I_    0.257597 0.035495 0.438677 -0.338723
I4    I     I_    0.740778 0.961975 0.566931 -0.347922
N5    N     N_3   0.388928 0.000113 0.722192 -0.568204
H29   H     H_    0.404472 0.108525 0.695581 0.231764
H30   H     H_    0.399653 0.874822 0.700287 0.230909
N6    N     N_3   0.613026 0.077297 0.271188 -0.567880
H31   H     H_    0.597233 0.981976 0.304124 0.234389
H32   H     H_    0.603005 0.210734 0.285635 0.226924
N7    N     N_3   0.610637 0.486143 0.776713 -0.570096
H33   H     H_    0.594930 0.592162 0.804418 0.223288
H34   H     H_    0.599772 0.359351 0.797010 0.235932
N8    N     N_3   0.389315 0.431954 0.224111 -0.589797
H35   H     H_    0.416669 0.400852 0.193273 0.214139
H36   H     H_    0.376083 0.563546 0.204699 0.259251

loop_
_geom_bond_atom_site_label_1
_geom_bond_atom_site_label_2
_ccdc_geom_bond_type
O17   V3    S    
C47   C51   A    
C61   C66   A    
N1    C17   A    
O1    C5    A    
C30   H6    S    
O19   V1    S    
O13   V1    S    
C63   C68   A    
C64   C76   A    
O3    C7    A    
C11   C12   D    
C14   C46   A    
C44   C48   A    
O15   V3    S    
O4    V2    S    
C42   C54   A    
O7    C3    A    
C41   C53   A    
C32   C60   A    
C77   N5    S    
C62   C70   A    
C23   H20   S    
C26   H13   S    
O9    V1    S    
N6    H31   S    
N3    C39   S    
C18   C54   A    
N2    C38   S    
C74   C78   A    
O4    C8    A    
C25   C57   A    
C31   C35   A    
C82   H26   S    
C53   C78   A    
C51   C83   A    
C27   C59   A    
C15   C47   A    
O1    V3    S    
C75   H23   S    
C66   C81   A    
O2    V4    S    
C14   O22   S    
C20   O27   S    
C21   C37   A    
O3    V1    S    
C73   C77   A    
C34   C38   A    
C19   C55   A    
C49   C81   A    
C1    O15   A    
C35   I3    S    
C2    O16   A    
C34   I2    S    
C36   I4    S    
C76   H24   S    
O2    C6    A    
N7    H34   S    
C83   H27   S    
O14   V2    S    
N5    H30   S    
C66   C70   A    
C43   C55   A    
C65   C69   A    
C30   C58   A    
C16   N4    A    
O11   C7    A    
C28   H15   S    
O12   C8    A    
C43   C72   A    
C62   C74   A    
C31   C59   A    
C61   C73   A    
C78   N6    S    
O10   V2    S    
C63   C75   A    
C52   H12   S    
C25   H14   S    
O5    V1    S    
C73   H21   S    
C18   O25   S    
O7    V3    S    
N4    C20   A    
O8    V4    S    
C12   H4    S    
C28   C60   A    
C22   H17   S    
C56   C79   A    
O18   V4    S    
C50   C82   A    
C7    C9    S    
C46   C50   A    
O11   V3    S    
C24   C40   A    
C8    C10   S    
C32   C36   A    
C84   H28   S    
C44   C56   A    
C11   H3    S    
C32   H8    S    
C80   N8    S    
O5    C1    A    
C42   C46   A    
N7    H33   S    
C44   C71   A    
C41   C45   A    
O8    C4    A    
C13   C45   A    
C9    C10   D    
O9    C5    A    
C36   C40   A    
N2    C18   A    
C33   C37   A    
C1    C60   S    
C63   C71   A    
C22   C26   A    
C14   N2    A    
C51   H11   S    
C3    C58   S    
O6    V2    S    
C75   C79   A    
C55   C80   A    
C26   C58   A    
C17   C53   A    
O10   C6    A    
C54   C77   A    
N1    C37   S    
C4    C57   S    
C42   C69   A    
C52   C84   A    
C41   C70   A    
C50   H10   S    
C23   C39   A    
C68   C72   A    
C49   H9    S    
C22   C38   A    
N8    H35   S    
O16   V4    S    
C61   C69   A    
C3    O13   A    
C10   H2    S    
C81   H25   S    
C48   C52   A    
C74   H22   S    
O6    C2    A    
C21   C25   A    
C5    C11   S    
C31   H7    S    
O12   V4    S    
C13   N1    A    
C6    C12   S    
C23   C27   A    
C64   C67   A    
C16   C48   A    
N4    C40   S    
C24   C28   A    
C33   I1    S    
C27   H16   S    
C64   C72   A    
N6    H32   S    
C29   H5    S    
N8    H36   S    
C35   C39   A    
C15   N3    A    
C30   C34   A    
C79   N7    S    
C2    C59   S    
C29   C33   A    
O20   V2    S    
C29   C57   A    
C21   H18   S    
N3    C19   A    
C68   C83   A    
C9    H1    S    
C17   O26   S    
C24   H19   S    
C43   C47   A    
C76   C80   A    
C67   C84   A    
C20   C56   A    
C19   O28   S    
C4    O14   A    
C65   C82   A    
C13   O21   S    
C67   C71   A    
N5    H29   S    
C15   O23   S    
C45   C49   A    
C16   O24   S    
C62   C65   A    
