data_mof_unit_20901.cif
_audit_creation_date              2012-12-10T17:54:16-0500
_audit_creation_method            fapswitch 2.2
_symmetry_space_group_name_H-M    P1
_symmetry_Int_Tables_number       1
_space_group_crystal_system       triclinic
_cell_length_a                    26.596483
_cell_length_b                    10.730917
_cell_length_c                    9.931407
_cell_angle_alpha                 90.366513
_cell_angle_beta                  90.014834
_cell_angle_gamma                 93.227419
_cell_volume                      2829.91566024

loop_
_atom_site_label
_atom_site_type_symbol
_atom_type_description
_atom_site_fract_x
_atom_site_fract_y
_atom_site_fract_z
_atom_type_partial_charge
C1    C     C_R   0.502769 0.259576 0.499587 0.938726
C2    C     C_R   0.962079 0.190345 0.540514 -0.136429
C3    C     C_R   0.965671 0.250412 0.301440 0.010387
C4    C     C_R   0.405297 0.498568 0.499873 0.924204
C5    C     C_R   0.937634 0.221336 0.419592 0.022086
C6    C     C_R   0.932281 0.136481 0.645966 0.510187
C7    C     C_R   0.879930 0.137946 0.642091 0.670137
C8    C     C_R   0.856101 0.191200 0.532316 -0.275682
C9    C     C_R   0.884660 0.226500 0.418280 -0.216058
C10   C     C_R   0.859570 0.263592 0.301841 -0.151015
C11   C     C_R   0.807911 0.283859 0.311154 0.671911
C12   C     C_R   0.284580 0.305929 0.514454 0.641457
C13   C     C_R   0.804477 0.212551 0.532360 0.727582
C14   C     C_R   0.721731 0.377199 0.593991 0.331486
C15   C     C_R   0.672257 0.417886 0.608010 0.241189
C16   C     C_R   0.493416 0.737805 0.500294 0.910809
C17   C     C_R   0.677907 0.501297 0.381404 0.270471
C18   C     C_R   0.725252 0.450601 0.366616 0.535961
C19   C     C_R   0.742833 0.366545 0.463313 -0.043148
C20   C     C_R   0.014754 0.217399 0.551886 0.061201
C21   C     C_R   0.043130 0.249668 0.435231 0.086124
C22   C     C_R   0.019095 0.256769 0.307821 0.108574
C23   C     C_R   0.249630 0.392212 0.476966 0.097027
C24   C     C_R   0.039118 0.224007 0.678008 -0.243969
C25   C     C_R   0.101054 0.301466 0.203523 -0.093258
C26   C     C_R   0.939060 0.277521 0.182591 -0.268048
C27   C     C_R   0.886901 0.283693 0.182535 0.750593
C28   C     C_R   0.595061 0.497875 0.499993 0.996395
C29   C     C_R   0.049431 0.276844 0.192442 -0.194577
C30   C     C_R   0.524547 0.108981 0.742270 -0.177228
C31   C     C_R   0.514846 0.049713 0.865953 0.410999
C32   C     C_R   0.483675 0.940952 0.868369 -0.112630
C33   C     C_R   0.466529 0.884439 0.748664 0.464975
C34   C     C_R   0.095633 0.279600 0.446422 -0.138714
C35   C     C_R   0.482931 0.936059 0.623032 -0.113504
C36   C     C_R   0.503907 0.058130 0.621163 -0.036415
C37   C     C_R   0.502972 0.124289 0.498117 -0.191995
C38   C     C_R   0.491954 0.060570 0.375623 0.348127
C39   C     C_R   0.484251 0.931537 0.376402 0.347134
C40   C     C_R   0.170910 0.323559 0.581080 0.661629
C41   C     C_R   0.482698 0.868858 0.500304 -0.228359
C42   C     C_R   0.417842 0.376138 0.135136 0.354856
C43   C     C_R   0.372142 0.354332 0.064036 0.128429
C44   C     C_R   0.374249 0.345421 0.924216 0.345930
C45   C     C_R   0.119340 0.284962 0.573980 -0.100184
C46   C     C_R   0.420016 0.371939 0.860471 0.604983
C47   C     C_R   0.460467 0.438418 0.927082 -0.228370
C48   C     C_R   0.459895 0.439795 0.071314 0.025851
C49   C     C_R   0.537481 0.559086 0.071925 -0.165007
C50   C     C_R   0.537354 0.559763 0.929104 0.701892
C51   C     C_R   0.175555 0.342482 0.342137 0.618049
C52   C     C_R   0.265640 0.516960 0.449949 0.482773
C53   C     C_R   0.317192 0.553394 0.459792 -0.360749
C54   C     C_R   0.335247 0.343139 0.525285 -0.212619
C55   C     C_R   0.090771 0.255667 0.690328 0.488142
C56   C     C_R   0.124241 0.307537 0.329825 -0.025656
C57   C     C_R   0.351582 0.466602 0.498567 -0.166795
C58   C     C_R   0.649377 0.474786 0.497985 -0.250779
F1    F     F_    0.863993 0.317130 0.067053 -0.558296
F2    F     F_    0.755927 0.496217 0.267175 -0.591375
F3    F     F_    0.269422 0.185198 0.538162 -0.609181
F4    F     F_    0.425509 0.312890 0.742639 -0.624098
F5    F     F_    0.575374 0.622587 0.863157 -0.608999
F6    F     F_    0.853140 0.092297 0.749104 -0.523662
F7    F     F_    0.952841 0.075291 0.749757 -0.616825
H1    H     H_    0.362008 0.274580 0.550726 0.230790
H2    H     H_    0.247725 0.683222 0.398939 0.357915
H3    H     H_    0.681334 0.580719 0.204688 0.405395
H4    H     H_    0.465307 0.081475 0.195133 0.365495
H5    H     H_    0.553877 0.176749 0.967402 0.352894
H6    H     H_    0.414242 0.773035 0.670778 0.329732
H7    H     H_    0.502185 0.904254 0.189996 0.361837
H8    H     H_    0.396686 0.247586 0.265457 0.336469
H9    H     H_    0.329946 0.356565 0.222911 0.353118
H10   H     H_    0.303906 0.284514 0.904598 0.420241
H11   H     H_    0.088583 0.233118 0.885392 0.323151
H12   H     H_    0.122583 0.319245 0.112407 0.217644
H13   H     H_    0.659892 0.331333 0.777396 0.357337
H14   H     H_    0.737795 0.407874 0.783563 0.383918
H15   H     H_    0.957631 0.300865 0.089017 0.178070
H16   H     H_    0.034364 0.274452 0.091732 0.143948
H17   H     H_    0.549256 0.192518 0.741546 0.170317
H18   H     H_    0.472657 0.899579 0.963682 0.177238
H19   H     H_    0.568032 0.607867 0.125877 0.207506
H20   H     H_    0.018030 0.213590 0.770192 0.206498
H21   H     H_    0.330476 0.648272 0.437165 0.168329
N1    N     N_R   0.197422 0.352221 0.466392 -0.335871
N2    N     N_R   0.785404 0.287970 0.435675 -0.337958
N3    N     N_R   0.499540 0.498800 0.142780 -0.093928
N4    N     N_R   0.499520 0.498720 0.857170 -0.123829
O1    O     O_R   0.500000 0.316780 0.614690 -0.578426
O2    O     O_R   0.571250 0.499990 0.614680 -0.521158
O3    O     O_R   0.571240 0.499970 0.385350 -0.596158
O4    O     O_2   0.194507 0.334246 0.701247 -0.426229
O5    O     O_3   0.230347 0.600351 0.414392 -0.705989
O6    O     O_3   0.658865 0.577582 0.284239 -0.708220
O7    O     O_3   0.490585 0.124375 0.255378 -0.674665
O8    O     O_3   0.533716 0.098134 0.985788 -0.729070
O9    O     O_3   0.431671 0.784595 0.758598 -0.733643
O10   O     O_3   0.478527 0.865631 0.256820 -0.745236
O11   O     O_3   0.424389 0.312077 0.252088 -0.681504
O12   O     O_2   0.773747 0.154305 0.622855 -0.399258
O13   O     O_3   0.327329 0.323978 0.129411 -0.704632
O14   O     O_3   0.334020 0.299288 0.847101 -0.666116
O15   O     O_3   0.113418 0.260660 0.815787 -0.681249
O16   O     O_3   0.645684 0.400399 0.726628 -0.699358
O17   O     O_3   0.751758 0.362912 0.705855 -0.650315
O18   O     O_2   0.203443 0.367309 0.230934 -0.484607
O19   O     O_2   0.780393 0.291972 0.197941 -0.386294
O20   O     O_R   0.500000 0.316750 0.385360 -0.493685
O21   O     O_R   0.428760 0.500030 0.614650 -0.556063
O22   O     O_R   0.428750 0.500010 0.385320 -0.578831
O23   O     O_R   0.500000 0.683250 0.614640 -0.582449
O24   O     O_R   0.500000 0.683220 0.385310 -0.555176
Zn1   Zn    Zn3+2 0.500000 0.500020 0.653130 1.088978
Zn2   Zn    Zn3+2 0.500000 0.499980 0.346870 1.066440

loop_
_geom_bond_atom_site_label_1
_geom_bond_atom_site_label_2
_ccdc_geom_bond_type
C10   C27   A    
C34   C56   A    
H11   O15   S    
C22   C29   A    
C11   O19   S    
C35   C36   A    
C25   C56   A    
C16   O23   A    
C44   O14   S    
C7    C8    A    
C39   C41   A    
C31   C32   A    
C24   C55   A    
C29   H16   S    
C12   C23   A    
C26   C27   A    
C8    C13   A    
C46   F4    S    
C25   H12   S    
C40   N1    A    
C36   C37   A    
C18   C19   A    
H7    O10   S    
C30   C31   A    
C52   O5    S    
C51   C56   A    
C31   O8    S    
C33   C35   A    
C50   N4    A    
C6    F7    S    
C20   C24   A    
C51   O18   S    
C4    C57   S    
C53   H21   S    
C40   O4    S    
C9    C10   A    
C1    C37   S    
C17   C58   A    
H8    O11   S    
C4    O22   A    
N3    Zn2   S    
C1    O1    A    
C23   N1    S    
C21   C22   A    
H2    O5    S    
C50   F5    S    
C2    C6    A    
C38   O7    S    
C44   C46   A    
C25   C29   A    
C40   C45   A    
C2    C20   A    
C19   N2    S    
C51   N1    A    
C17   O6    S    
C53   C57   A    
C8    C9    A    
C21   C34   A    
H6    O9    S    
C26   H15   S    
C28   O3    A    
C33   O9    S    
O3    Zn2   S    
C30   H17   S    
C23   C52   A    
C43   C44   A    
C5    C9    A    
C37   C38   A    
C1    O20   A    
C47   C48   A    
C11   N2    A    
C17   C18   A    
H14   O17   S    
C28   O2    A    
C34   C45   A    
C42   C48   A    
N4    Zn1   S    
C18   F2    S    
C14   O17   S    
C4    O21   A    
C55   O15   S    
C48   N3    A    
H10   O14   S    
C15   C58   A    
C2    C5    A    
C42   C43   A    
C42   O11   S    
O20   Zn2   S    
O22   Zn2   S    
C52   C53   A    
C15   O16   S    
C24   H20   S    
C49   H19   S    
C32   H18   S    
C46   C47   A    
C14   C19   A    
C3    C26   A    
C49   N3    A    
C3    C5    A    
C16   O24   A    
O24   Zn2   S    
C6    C7    A    
C54   H1    S    
C28   C58   S    
H3    O6    S    
C30   C36   A    
H13   O16   S    
C32   C33   A    
C27   F1    S    
C12   F3    S    
C39   O10   S    
C38   C39   A    
C13   N2    A    
C47   N4    A    
O1    Zn1   S    
C35   C41   A    
O2    Zn1   S    
C43   O13   S    
C7    F6    S    
C10   C11   A    
C20   C21   A    
C45   C55   A    
C49   C50   A    
C14   C15   A    
C3    C22   A    
O21   Zn1   S    
C13   O12   S    
C16   C41   S    
C12   C54   A    
H5    O8    S    
H9    O13   S    
O23   Zn1   S    
C54   C57   A    
H4    O7    S    
