data_mof_unit_47793.cif
_audit_creation_date              2012-12-11T15:44:46-0500
_audit_creation_method            fapswitch 2.2
_symmetry_space_group_name_H-M    P1
_symmetry_Int_Tables_number       1
_space_group_crystal_system       triclinic
_cell_length_a                    19.096742
_cell_length_b                    10.941776
_cell_length_c                    18.735252
_cell_angle_alpha                 89.79199
_cell_angle_beta                  90.071576
_cell_angle_gamma                 90.047375
_cell_volume                      3914.74331908

loop_
_atom_site_label
_atom_site_type_symbol
_atom_type_description
_atom_site_fract_x
_atom_site_fract_y
_atom_site_fract_z
_atom_type_partial_charge
C1    C     C_R   0.761571 0.532566 0.645929 0.538031
C2    C     C_R   0.239908 0.535502 0.353412 0.532324
C3    C     C_R   0.260880 0.034641 0.646794 0.537774
C4    C     C_R   0.739720 0.035134 0.353486 0.535204
C5    C     C_R   0.836739 0.116042 0.519482 -0.168707
C6    C     C_R   0.266469 0.037891 0.449331 -0.127436
C7    C     C_R   0.337511 0.615295 0.519554 -0.167326
C8    C     C_R   0.778897 0.500962 0.450098 -0.162103
C9    C     C_R   0.825275 0.090338 0.447458 -0.162381
C10   C     C_R   0.281535 0.009152 0.520119 -0.126634
C11   C     C_R   0.326063 0.589258 0.447470 -0.161186
C12   C     C_R   0.789591 0.484826 0.523106 -0.114021
C13   C     C_3   0.632549 0.145032 0.468599 -0.252876
C14   C     C_3   0.201999 0.298754 0.582281 -0.278322
C15   C     C_3   0.134262 0.659306 0.466014 -0.255973
C16   C     C_3   0.706488 0.783319 0.564223 -0.292622
C17   C     C_3   0.645655 0.172059 0.546891 -0.261858
C18   C     C_3   0.187477 0.331664 0.505053 -0.282158
C19   C     C_3   0.147312 0.684356 0.544611 -0.262475
C20   C     C_3   0.697345 0.803593 0.484710 -0.257501
C21   C     C_R   0.781861 0.159486 0.561908 -0.000233
C22   C     C_R   0.223498 0.138133 0.433877 0.033363
C23   C     C_R   0.283030 0.661783 0.561507 -0.000147
C24   C     C_R   0.738328 0.599221 0.427092 0.034260
C25   C     C_R   0.990339 0.330474 0.421211 -0.043935
C26   C     C_R   0.997073 0.346959 0.571314 -0.046670
C27   C     C_R   0.489997 0.829277 0.420960 -0.043920
C28   C     C_R   0.496451 0.847359 0.570978 -0.045311
C29   C     C_R   0.006469 0.105969 0.431954 -0.083630
C30   C     C_R   0.031584 0.130259 0.577495 -0.086185
C31   C     C_R   0.508588 0.605338 0.432516 -0.077710
C32   C     C_R   0.534038 0.632244 0.577845 -0.090856
C33   C     C_R   0.024284 0.003952 0.472804 -0.129853
C34   C     C_R   0.038247 0.016654 0.545157 -0.119930
C35   C     C_R   0.528126 0.504536 0.473618 -0.128298
C36   C     C_R   0.542380 0.518628 0.545827 -0.119759
C37   C     C_R   0.010052 0.233814 0.537823 -0.008633
C38   C     C_R   0.002336 0.223594 0.462917 0.007035
C39   C     C_R   0.510989 0.734472 0.537863 -0.011411
C40   C     C_R   0.503216 0.723181 0.463032 0.008316
C41   C     C_R   0.985082 0.453600 0.528059 0.004968
C42   C     C_R   0.970581 0.439302 0.455089 0.000523
C43   C     C_R   0.482783 0.953052 0.527337 0.007500
C44   C     C_R   0.468550 0.937339 0.454397 0.000095
C45   C     C_R   0.791548 0.172139 0.638924 0.561414
C46   C     C_R   0.208621 0.170503 0.361180 0.562191
C47   C     C_R   0.291809 0.672716 0.638947 0.564765
C48   C     C_R   0.726729 0.624242 0.353354 0.539768
C49   C     C_R   0.986283 0.575210 0.554743 -0.074802
C50   C     C_R   0.941809 0.538120 0.415848 -0.080396
C51   C     C_R   0.482428 0.075120 0.553415 -0.074262
C52   C     C_R   0.438566 0.034316 0.414619 -0.084345
C53   C     C_R   0.960222 0.672905 0.514810 -0.130727
C54   C     C_R   0.935572 0.653463 0.446144 -0.117649
C55   C     C_R   0.455660 0.171414 0.512770 -0.133438
C56   C     C_R   0.431322 0.150050 0.444175 -0.118613
C57   C     C_R   0.743631 0.053204 0.070164 -0.001306
C58   C     C_R   0.258332 0.048434 0.931125 0.001300
C59   C     C_R   0.243630 0.553202 0.070163 -0.001403
C60   C     C_R   0.758339 0.548411 0.931131 0.001187
C61   C     C_R   0.785885 0.976534 0.029276 0.005380
C62   C     C_R   0.209225 0.982679 0.970502 -0.004963
C63   C     C_R   0.285885 0.476533 0.029275 0.004816
C64   C     C_R   0.709230 0.482661 0.970508 -0.005203
C65   C     C_R   0.789615 0.989836 0.956316 0.082056
C66   C     C_R   0.205178 0.994469 0.043222 0.082436
C67   C     C_R   0.289614 0.489834 0.956315 0.081874
C68   C     C_R   0.705182 0.494454 0.043228 0.082324
C69   C     C_R   0.698253 0.140796 0.960545 -0.170332
C70   C     C_R   0.308776 0.118621 0.043265 -0.156910
C71   C     C_R   0.198253 0.640796 0.960544 -0.170287
C72   C     C_R   0.808783 0.618601 0.043271 -0.156481
C73   C     C_R   0.696336 0.130144 0.034932 -0.167406
C74   C     C_R   0.312394 0.107424 0.968695 -0.133290
C75   C     C_R   0.196336 0.630145 0.034931 -0.167089
C76   C     C_R   0.812403 0.607399 0.968701 -0.133213
C77   C     C_3   0.862722 0.956351 0.036291 -0.231022
C78   C     C_3   0.131745 0.975986 0.961642 -0.237430
C79   C     C_3   0.362723 0.456358 0.036289 -0.231016
C80   C     C_3   0.631750 0.475976 0.961646 -0.237348
C81   C     C_3   0.867182 0.973427 0.956427 0.157863
C82   C     C_3   0.127139 0.989284 0.041892 0.158168
C83   C     C_3   0.367181 0.473433 0.956426 0.157922
C84   C     C_3   0.627143 0.489274 0.041895 0.158379
C85   C     C_R   0.749331 0.077712 0.921232 -0.016466
C86   C     C_R   0.250523 0.072130 0.080081 -0.014755
C87   C     C_R   0.249329 0.577710 0.921231 -0.016539
C88   C     C_R   0.750526 0.572117 0.080085 -0.013989
C89   C     C_R   0.971065 0.347723 0.646024 0.520595
C90   C     C_R   0.026323 0.344243 0.351653 0.520952
C91   C     C_R   0.470857 0.847825 0.645869 0.522950
C92   C     C_R   0.526312 0.844048 0.351624 0.524243
C93   C     C_R   0.992213 0.340059 0.079419 0.019677
C94   C     C_R   0.985213 0.341850 0.930157 0.023708
C95   C     C_R   0.492213 0.840058 0.079420 0.020497
C96   C     C_R   0.485209 0.841850 0.930159 0.023732
C97   C     C_R   0.975660 0.447588 0.042459 0.019522
C98   C     C_R   0.972943 0.447557 0.969406 0.038485
C99   C     C_R   0.475657 0.947587 0.042461 0.020188
C100  C     C_R   0.472937 0.947556 0.969407 0.038344
C101  C     C_R   0.990641 0.230585 0.967027 -0.176295
C102  C     C_R   0.991055 0.229430 0.041718 -0.172740
C103  C     C_R   0.490641 0.730585 0.967028 -0.176356
C104  C     C_R   0.491057 0.729429 0.041718 -0.172632
C105  C     C_3   0.008582 0.572105 0.042929 -0.251397
C106  C     C_3   0.006982 0.569418 0.962499 -0.273854
C107  C     C_3   0.508577 0.072105 0.042931 -0.251331
C108  C     C_3   0.506974 0.069420 0.962501 -0.273965
C109  C     C_R   0.762511 0.525171 0.854934 0.559988
C110  C     C_R   0.238270 0.527605 0.145897 0.555762
C111  C     C_R   0.262507 0.025185 0.854930 0.559122
C112  C     C_R   0.738270 0.027606 0.145897 0.553935
C113  C     C_R   0.771982 0.124954 0.852526 0.558708
C114  C     C_R   0.228198 0.123943 0.147834 0.553225
C115  C     C_R   0.271981 0.624951 0.852525 0.558225
C116  C     C_R   0.728197 0.623945 0.147832 0.544381
C117  C     C_R   0.968437 0.346892 0.854920 0.544482
C118  C     C_R   0.028417 0.346971 0.147357 0.544043
C119  C     C_R   0.468435 0.846892 0.854921 0.544988
C120  C     C_R   0.528417 0.846971 0.147357 0.543326
C121  C     C_R   0.758166 0.105471 0.417120 0.003885
C122  C     C_R   0.252393 0.078874 0.575395 0.033797
C123  C     C_R   0.259343 0.607256 0.416502 0.004819
C124  C     C_R   0.757233 0.563837 0.572268 0.036492
C125  C     C_R   0.708347 0.170110 0.456328 0.012056
C126  C     C_R   0.202857 0.168071 0.559612 0.010732
C127  C     C_R   0.210896 0.676504 0.454845 0.012913
C128  C     C_R   0.709040 0.649520 0.548792 0.002112
C129  C     C_R   0.720106 0.196474 0.527648 0.030005
C130  C     C_R   0.189361 0.198495 0.489184 0.013805
C131  C     C_R   0.222520 0.702386 0.526315 0.025955
C132  C     C_R   0.700806 0.668291 0.476600 0.053498
Cr1   Cr    Cr6+3 0.885860 0.491680 0.749630 1.010952
Cr2   Cr    Cr6+3 0.114140 0.491680 0.250370 1.010874
Cr3   Cr    Cr6+3 0.385860 0.991680 0.749630 1.010560
Cr4   Cr    Cr6+3 0.614140 0.991680 0.250370 1.015167
Cr5   Cr    Cr6+3 0.730490 0.332970 0.748720 0.995780
Cr6   Cr    Cr6+3 0.269510 0.332970 0.251280 0.993120
Cr7   Cr    Cr6+3 0.230490 0.832970 0.748720 0.995484
Cr8   Cr    Cr6+3 0.769510 0.832970 0.251280 0.993891
Cr9   Cr    Cr6+3 0.887570 0.179310 0.750150 0.991185
Cr10  Cr    Cr6+3 0.112430 0.179310 0.249850 0.999823
Cr11  Cr    Cr6+3 0.387570 0.679310 0.750150 0.991729
Cr12  Cr    Cr6+3 0.612430 0.679310 0.249850 1.004374
H1    H     H_    0.886572 0.092637 0.543161 0.157427
H2    H     H_    0.289391 0.984251 0.406876 0.129804
H3    H     H_    0.386816 0.589480 0.543637 0.156706
H4    H     H_    0.803667 0.440265 0.412235 0.110091
H5    H     H_    0.959561 0.763927 0.537195 0.106185
H6    H     H_    0.914186 0.728631 0.415378 0.117828
H7    H     H_    0.454297 0.262914 0.534499 0.107101
H8    H     H_    0.409399 0.224102 0.412885 0.123786
H9    H     H_    0.664422 0.206106 0.934688 0.141750
H10   H     H_    0.348031 0.170709 0.071192 0.125138
H11   H     H_    0.164423 0.706109 0.934688 0.141731
H12   H     H_    0.848037 0.670691 0.071198 0.124949
H13   H     H_    0.660258 0.184835 0.065152 0.195776
H14   H     H_    0.355520 0.147855 0.940300 0.189833
H15   H     H_    0.160259 0.684837 0.065152 0.195975
H16   H     H_    0.855529 0.647830 0.940306 0.189778
H17   H     H_    0.875858 0.863120 0.054723 0.144192
H18   H     H_    0.113691 0.886320 0.941659 0.142679
H19   H     H_    0.375863 0.363129 0.054722 0.144172
H20   H     H_    0.613693 0.386312 0.941663 0.142669
H21   H     H_    0.888618 0.030549 0.066856 0.089034
H22   H     H_    0.110680 0.055986 0.931950 0.091447
H23   H     H_    0.388617 0.530560 0.066854 0.089324
H24   H     H_    0.610688 0.555978 0.931954 0.091630
H25   H     H_    0.894426 0.058854 0.941047 0.125754
H26   H     H_    0.103685 0.077059 0.058942 0.128936
H27   H     H_    0.394423 0.558862 0.941046 0.125863
H28   H     H_    0.603689 0.577051 0.058943 0.129593
H29   H     H_    0.996680 0.145976 0.938222 0.102116
H30   H     H_    0.996944 0.143883 0.069538 0.103228
H31   H     H_    0.496682 0.645976 0.938222 0.102133
H32   H     H_    0.496949 0.643882 0.069537 0.103209
H33   H     H_    0.062469 0.572603 0.064150 0.177952
H34   H     H_    0.972201 0.639415 0.939024 0.154446
H35   H     H_    0.562466 0.072604 0.064149 0.177848
H36   H     H_    0.472191 0.139415 0.939028 0.154471
H37   H     H_    0.973172 0.641960 0.065897 0.123403
H38   H     H_    0.059627 0.563527 0.937655 0.137765
H39   H     H_    0.473169 0.141960 0.065901 0.123705
H40   H     H_    0.559618 0.063533 0.937655 0.137914
H41   H     H_    0.866591 0.045405 0.418170 0.139093
H42   H     H_    0.315716 0.932585 0.531848 0.122351
H43   H     H_    0.366862 0.541693 0.418808 0.139606
H44   H     H_    0.822963 0.411037 0.541384 0.121283
H45   H     H_    0.116156 0.564985 0.454995 0.159058
H46   H     H_    0.756901 0.819424 0.585269 0.153276
H47   H     H_    0.617776 0.048563 0.458455 0.156781
H48   H     H_    0.253881 0.331286 0.601520 0.156491
H49   H     H_    0.598581 0.213926 0.442027 0.144171
H50   H     H_    0.157328 0.319145 0.618300 0.135739
H51   H     H_    0.103191 0.731990 0.439238 0.143723
H52   H     H_    0.659461 0.808898 0.595687 0.136888
H53   H     H_    0.618535 0.255439 0.565784 0.134315
H54   H     H_    0.134639 0.370701 0.496484 0.135510
H55   H     H_    0.122617 0.769776 0.563626 0.138660
H56   H     H_    0.645085 0.840096 0.470012 0.137709
H57   H     H_    0.639711 0.090345 0.581877 0.140165
H58   H     H_    0.231175 0.382100 0.479479 0.148163
H59   H     H_    0.138892 0.602879 0.579230 0.140281
H60   H     H_    0.742725 0.850630 0.459861 0.156381
H61   H     H_    0.027163 0.914869 0.448146 0.103853
H62   H     H_    0.053075 0.938204 0.576845 0.104361
H63   H     H_    0.532319 0.415332 0.449259 0.104109
H64   H     H_    0.558948 0.441185 0.577542 0.108657
H65   H     H_    0.992860 0.090436 0.376713 0.128984
H66   H     H_    0.044880 0.136672 0.633494 0.129500
H67   H     H_    0.494902 0.588690 0.377408 0.128413
H68   H     H_    0.547196 0.639841 0.633831 0.129049
H69   H     H_    0.924547 0.526095 0.361207 0.121723
H70   H     H_    0.009682 0.597952 0.605489 0.136532
H71   H     H_    0.421778 0.020814 0.359946 0.125841
H72   H     H_    0.505619 0.099681 0.603949 0.137847
O1    O     O_R   0.957020 0.451640 0.669920 -0.526787
O2    O     O_R   0.042980 0.451640 0.330080 -0.519602
O3    O     O_R   0.457020 0.951640 0.669920 -0.527468
O4    O     O_R   0.542980 0.951640 0.330080 -0.519224
O5    O     O_R   0.736470 0.210100 0.823360 -0.505458
O6    O     O_R   0.263530 0.210100 0.176640 -0.503474
O7    O     O_R   0.236470 0.710100 0.823360 -0.505547
O8    O     O_R   0.763530 0.710100 0.176640 -0.507968
O9    O     O_R   0.831960 0.093290 0.830130 -0.511459
O10   O     O_R   0.168040 0.093290 0.169870 -0.505027
O11   O     O_R   0.331960 0.593290 0.830130 -0.511795
O12   O     O_R   0.668040 0.593290 0.169870 -0.509223
O13   O     O_R   0.945600 0.250580 0.824860 -0.517276
O14   O     O_R   0.054400 0.250580 0.175140 -0.518634
O15   O     O_R   0.445600 0.750580 0.824860 -0.517220
O16   O     O_R   0.554400 0.750580 0.175140 -0.519207
O17   O     O_3   0.834640 0.334650 0.749500 -0.267632
O18   O     O_3   0.165360 0.334650 0.250500 -0.262428
O19   O     O_3   0.334640 0.834650 0.749500 -0.267017
O20   O     O_3   0.665360 0.834650 0.250500 -0.243287
O21   O     O_R   0.821450 0.543440 0.674610 -0.498689
O22   O     O_R   0.178550 0.543440 0.325390 -0.494887
O23   O     O_R   0.321450 0.043440 0.674610 -0.498472
O24   O     O_R   0.678550 0.043440 0.325390 -0.493931
O25   O     O_R   0.715320 0.458650 0.668100 -0.528218
O26   O     O_R   0.284680 0.458650 0.331900 -0.537641
O27   O     O_R   0.215320 0.958650 0.668100 -0.527938
O28   O     O_R   0.784680 0.958650 0.331900 -0.534185
O29   O     O_R   0.737170 0.209590 0.674530 -0.501325
O30   O     O_R   0.262830 0.209590 0.325470 -0.510861
O31   O     O_R   0.237170 0.709590 0.674530 -0.501523
O32   O     O_R   0.762830 0.709590 0.325470 -0.510447
O33   O     O_R   0.832710 0.092740 0.669580 -0.517092
O34   O     O_R   0.167290 0.092740 0.330420 -0.508910
O35   O     O_R   0.332710 0.592740 0.669580 -0.519203
O36   O     O_R   0.667290 0.592740 0.330420 -0.508324
O37   O     O_R   0.946290 0.250060 0.676040 -0.520769
O38   O     O_R   0.053710 0.250060 0.323960 -0.522253
O39   O     O_R   0.446290 0.750060 0.676040 -0.519426
O40   O     O_R   0.553710 0.750060 0.323960 -0.508352
O41   O     O_R   0.956270 0.452200 0.830470 -0.519971
O42   O     O_R   0.043730 0.452200 0.169530 -0.526649
O43   O     O_R   0.456270 0.952200 0.830470 -0.519816
O44   O     O_R   0.543730 0.952200 0.169530 -0.527483
O45   O     O_R   0.820760 0.543950 0.823440 -0.495534
O46   O     O_R   0.179240 0.543950 0.176560 -0.498744
O47   O     O_R   0.320760 0.043950 0.823440 -0.496203
O48   O     O_R   0.679240 0.043950 0.176560 -0.501025
O49   O     O_R   0.714570 0.459210 0.828640 -0.524129
O50   O     O_R   0.285430 0.459210 0.171360 -0.521968
O51   O     O_R   0.214570 0.959210 0.828640 -0.524572
O52   O     O_R   0.785430 0.959210 0.171360 -0.522317
O53   O     O_3   0.885760 0.865692 0.919782 -0.573365
C133  C     C_3   0.950396 0.882687 0.885002 -0.137912
H73   H     H_    0.992631 0.898867 0.924499 0.099118
H74   H     H_    0.948000 0.959078 0.845741 0.146079
H75   H     H_    0.963256 0.798777 0.854759 0.128278
O54   O     O_3   0.104141 0.882039 0.076786 -0.573232
C134  C     C_3   0.035307 0.897914 0.101251 -0.138877
H76   H     H_    0.999700 0.915586 0.055688 0.108172
H77   H     H_    0.032323 0.972313 0.141433 0.134349
H78   H     H_    0.018134 0.812732 0.128163 0.129660
O55   O     O_3   0.385762 0.365699 0.919781 -0.573581
C135  C     C_3   0.450405 0.382690 0.885015 -0.138133
H79   H     H_    0.492632 0.398857 0.924521 0.099257
H80   H     H_    0.448020 0.459086 0.845758 0.146056
H81   H     H_    0.463267 0.298784 0.854770 0.128217
O56   O     O_3   0.604141 0.382030 0.076787 -0.573997
C136  C     C_3   0.535315 0.397923 0.101271 -0.139589
H82   H     H_    0.499699 0.415622 0.055718 0.108473
H83   H     H_    0.532350 0.472313 0.141460 0.134068
H84   H     H_    0.518137 0.312738 0.128178 0.129689

loop_
_geom_bond_atom_site_label_1
_geom_bond_atom_site_label_2
_ccdc_geom_bond_type
Cr9   O33   S    
Cr7   O31   S    
C47   O31   A    
C2    C123  S    
Cr11  O35   S    
C116  O12   A    
O56   C136  S    
C82   O54   S    
C83   O55   S    
C6    H2    S    
C94   C117  S    
C95   C99   A    
C29   C33   A    
O54   C134  S    
C46   O34   A    
C134  H76   S    
C83   H27   S    
C70   C74   A    
C9    C121  A    
C17   H53   S    
C81   H25   S    
C112  O52   A    
C87   C115  S    
C119  O15   A    
C97   C105  S    
C14   H50   S    
C15   C127  S    
C22   C130  A    
C19   C131  S    
Cr2   O22   S    
C20   C132  S    
C41   C49   A    
C108  H40   S    
C5    H1    S    
Cr11  O11   S    
C62   C66   A    
C120  O44   A    
C60   C76   A    
C52   H71   S    
Cr8   O28   S    
C48   O36   A    
C43   C44   A    
C115  O11   A    
C37   C38   A    
Cr6   O30   S    
C66   C82   S    
C78   C82   S    
C113  O9    A    
C16   C20   S    
C19   H59   S    
Cr4   O44   S    
C17   H57   S    
C113  O5    A    
C112  O48   A    
Cr4   O24   S    
Cr7   O19   S    
C133  H74   S    
C18   C130  S    
Cr7   O7    S    
Cr7   O51   S    
C107  H35   S    
C93   C102  A    
C105  H33   S    
C10   C122  A    
C14   C126  S    
C57   C61   A    
C118  O42   A    
C59   C63   A    
C98   C106  S    
C60   C64   A    
C1    C124  S    
C111  O51   A    
C136  H83   S    
C91   O39   A    
C49   C53   A    
C51   C55   A    
C127  C131  A    
C61   C65   A    
C5    C21   A    
Cr9   O17   S    
C126  C130  A    
C48   O32   A    
C79   H23   S    
C80   H24   S    
C51   H72   S    
C88   C116  S    
C72   H12   S    
C101  H29   S    
C120  O16   A    
C97   C98   A    
C104  H32   S    
C53   C54   A    
Cr1   O45   S    
C33   H61   S    
C25   C90   S    
C64   C68   A    
Cr10  O14   S    
Cr6   O6    S    
C77   H21   S    
C73   H13   S    
C36   H64   S    
C57   C73   A    
C20   H56   S    
C60   C109  S    
C45   O33   A    
C27   C44   A    
C61   C77   S    
C29   C38   A    
C107  C108  S    
Cr7   O27   S    
C47   O35   A    
C14   H48   S    
C44   C52   A    
C90   O38   A    
Cr11  O39   S    
C53   H5    S    
Cr1   O21   S    
C21   C45   S    
C100  C108  S    
C23   C47   S    
C30   C34   A    
C24   C48   S    
C134  H78   S    
C135  H79   S    
C46   O30   A    
C109  O49   A    
C39   C40   A    
Cr8   O8    S    
C50   H69   S    
C1    O21   A    
C121  C125  A    
C125  C129  A    
C25   C38   A    
Cr5   O29   S    
C123  C127  A    
C27   C40   A    
C8    C12   A    
Cr2   O18   S    
C23   C131  A    
C2    O26   A    
C21   C129  A    
C42   C50   A    
C15   H45   S    
C93   C97   A    
C69   C85   A    
C58   C74   A    
Cr8   O32   S    
C62   C78   S    
C84   H28   S    
C66   C86   A    
C29   H65   S    
Cr3   O43   S    
Cr10  O38   S    
C13   C17   S    
C85   C113  S    
Cr5   O25   S    
C7    C23   A    
C96   C100  A    
C117  O13   A    
C8    C24   A    
C28   C91   S    
C90   O2    A    
C105  H37   S    
C4    O28   A    
C58   C62   A    
C119  O43   A    
C55   C56   A    
C101  C102  A    
C41   C42   A    
C96   C119  S    
C35   C36   A    
C135  H81   S    
C80   C84   S    
C15   C19   S    
Cr12  O40   S    
C5    C9    A    
C50   C54   A    
C115  O7    A    
C94   C98   A    
Cr9   O13   S    
C6    C22   A    
Cr5   O5    S    
C31   C40   A    
C32   C39   A    
C80   H20   S    
C7    H3    S    
C18   H54   S    
O55   C135  S    
Cr8   O52   S    
C69   C73   A    
C56   H8    S    
C124  C128  A    
C15   H51   S    
Cr1   O41   S    
C13   H49   S    
O53   C133  S    
C64   C80   S    
C133  H75   S    
C8    H4    S    
Cr10  O10   S    
C77   H17   S    
C78   H22   S    
C74   H14   S    
C58   C111  S    
C68   C84   S    
C20   H60   S    
C54   H6    S    
C45   O29   A    
Cr12  O20   S    
C28   C39   A    
Cr2   O2    S    
C49   H70   S    
C69   H9    S    
C30   C37   A    
C116  O8    A    
C136  H82   S    
C16   H52   S    
C114  O10   A    
C24   C132  A    
C65   C81   S    
C77   C81   S    
C71   H11   S    
C81   O53   S    
C4    O24   A    
C18   H58   S    
Cr1   O17   S    
C114  O6    A    
C16   H46   S    
C71   C87   A    
C92   O40   A    
C35   H63   S    
C22   C46   S    
Cr3   O19   S    
Cr6   O18   S    
C109  O45   A    
C32   C36   A    
C110  O50   A    
C19   H55   S    
Cr12  O16   S    
C11   C123  A    
C25   C42   A    
C6    C10   A    
C26   C37   A    
Cr4   O4    S    
C95   C120  S    
C99   C107  S    
C105  C106  S    
C28   C43   A    
Cr9   O37   S    
C79   C83   S    
C43   C51   A    
C4    C121  S    
C96   C103  A    
C103  C104  A    
Cr8   O20   S    
C133  H73   S    
C13   C125  S    
C3    O23   A    
C82   H26   S    
Cr3   O47   S    
Cr10  O34   S    
Cr4   O48   S    
C14   C18   S    
C72   C76   A    
C63   C79   S    
C34   H62   S    
C26   C89   S    
C7    C11   A    
C84   O56   S    
C11   H43   S    
C134  H77   S    
C135  H80   S    
C136  H84   S    
C9    H41   S    
C32   H68   S    
C57   C112  S    
C12   H44   S    
Cr4   O20   S    
C59   C110  S    
C108  H36   S    
Cr11  O19   S    
C92   O4    A    
C106  H38   S    
C10   H42   S    
Cr5   O49   S    
C94   C101  A    
Cr3   O23   S    
Cr6   O26   S    
C3    C122  S    
Cr2   O42   S    
Cr12  O36   S    
Cr2   O46   S    
C89   O37   A    
C128  C132  A    
C103  H31   S    
C72   C88   A    
Cr9   O9    S    
C63   C67   A    
C17   C129  S    
C2    O22   A    
Cr6   O50   S    
Cr1   O1    S    
C107  H39   S    
C122  C126  A    
C117  O41   A    
C99   C100  A    
C12   C124  A    
Cr3   O3    S    
C33   C34   A    
C27   C92   S    
C3    O27   A    
C67   C83   S    
C16   C128  S    
C111  O47   A    
C1    O25   A    
C78   H18   S    
C68   C88   A    
C93   C118  S    
Cr5   O17   S    
C70   C86   A    
C59   C75   A    
C95   C104  A    
C75   H15   S    
C55   H7    S    
C76   H16   S    
C70   H10   S    
C79   H19   S    
C30   H66   S    
C65   C85   A    
C102  H30   S    
C67   C87   A    
C13   H47   S    
C86   C114  S    
Cr11  O15   S    
C71   C75   A    
C118  O14   A    
C106  H34   S    
C31   C35   A    
C91   O3    A    
C110  O46   A    
C89   O1    A    
Cr10  O18   S    
C31   H67   S    
Cr12  O12   S    
C52   C56   A    
C26   C41   A    
