data_mof_unit_66868.cif
_audit_creation_date              2013-03-05T15:57:22-0500
_audit_creation_method            fapswitch 2.2
_symmetry_space_group_name_H-M    P1
_symmetry_Int_Tables_number       1
_space_group_crystal_system       triclinic
_cell_length_a                    17.197012
_cell_length_b                    18.565479
_cell_length_c                    8.411598
_cell_angle_alpha                 90.0
_cell_angle_beta                  101.188477
_cell_angle_gamma                 89.690444
_cell_volume                      2634.49582557

loop_
_atom_site_label
_atom_site_type_symbol
_atom_site_description
_atom_site_fract_x
_atom_site_fract_y
_atom_site_fract_z
_atom_type_partial_charge
P1    P     P_3+3 0.834140 0.419320 0.003900 0.474428
P2    P     P_3+3 0.834140 0.580680 0.503900 0.463374
P3    P     P_3+3 0.334140 0.919320 0.003900 0.474195
P4    P     P_3+3 0.334140 0.080680 0.503900 0.463510
O1    O     O_2   0.841960 0.394640 0.833410 -0.352567
O2    O     O_2   0.841960 0.605360 0.333410 -0.388821
O3    O     O_2   0.341960 0.894640 0.833410 -0.352893
O4    O     O_2   0.341960 0.105360 0.333410 -0.389127
O5    O     O_3   0.907950 0.463080 0.102990 -0.417279
O6    O     O_3   0.907950 0.536920 0.602990 -0.395055
O7    O     O_3   0.407950 0.963080 0.102990 -0.417225
O8    O     O_3   0.407950 0.036920 0.602990 -0.395039
O9    O     O_3   0.972780 0.329600 0.629720 -0.389323
O10   O     O_3   0.972780 0.670400 0.129720 -0.391331
O11   O     O_3   0.472780 0.829600 0.629720 -0.388752
O12   O     O_3   0.472780 0.170400 0.129720 -0.391256
O13   O     O_2   0.834766 0.282803 0.676378 -0.364361
O14   O     O_2   0.844498 0.729688 0.202801 -0.378197
O15   O     O_2   0.334863 0.782699 0.676724 -0.364860
O16   O     O_2   0.344713 0.230006 0.202998 -0.378660
O17   O     O_3   0.750146 0.474479 0.959266 -0.527617
O18   O     O_3   0.752295 0.523438 0.468841 -0.544561
O19   O     O_3   0.250092 0.974452 0.959248 -0.527604
O20   O     O_3   0.252324 0.023412 0.468747 -0.544006
O21   O     O_3   0.934928 0.182378 0.639551 -0.553775
O22   O     O_3   0.944977 0.820294 0.122016 -0.553627
O23   O     O_3   0.435080 0.682406 0.639869 -0.553523
O24   O     O_3   0.445359 0.320305 0.121364 -0.554154
H1    H     H_    0.044506 0.220459 0.752630 0.189404
H2    H     H_    0.055945 0.776906 0.210753 0.169038
H3    H     H_    0.545169 0.720547 0.750290 0.187917
H4    H     H_    0.556308 0.276762 0.209416 0.168103
C1    C     C_3   0.052010 0.109440 0.693276 -0.634477
C2    C     C_3   0.066508 0.885893 0.139419 -0.671206
C3    C     C_3   0.551995 0.609294 0.692363 -0.633828
C4    C     C_3   0.567054 0.385570 0.137025 -0.674243
H5    H     H_    0.617386 0.611415 0.703167 0.188980
H6    H     H_    0.632013 0.376464 0.156182 0.185061
H7    H     H_    0.117399 0.111810 0.704945 0.188736
H8    H     H_    0.131483 0.877016 0.157472 0.185337
H9    H     H_    0.036206 0.091743 0.808651 0.215534
H10   H     H_    0.051376 0.911680 0.248428 0.223302
H11   H     H_    0.536523 0.591987 0.808310 0.214221
H12   H     H_    0.551706 0.411972 0.245147 0.223833
P5    P     P_3+3 0.165830 0.418670 0.685610 0.487984
P6    P     P_3+3 0.165830 0.581330 0.185610 0.482941
P7    P     P_3+3 0.665830 0.918670 0.685610 0.485650
P8    P     P_3+3 0.665830 0.081330 0.185610 0.481712
P9    P     P_3+3 0.103608 0.266174 0.112052 0.491008
P10   P     P_3+3 0.096114 0.739395 0.613805 0.447032
P11   P     P_3+3 0.603662 0.766246 0.112092 0.492212
P12   P     P_3+3 0.595942 0.239529 0.613802 0.447349
O25   O     O_2   0.157990 0.394030 0.856030 -0.306248
O26   O     O_2   0.157990 0.605970 0.356030 -0.402724
O27   O     O_2   0.657990 0.894030 0.856030 -0.304445
O28   O     O_2   0.657990 0.105970 0.356030 -0.405798
O29   O     O_3   0.027110 0.329490 0.059550 -0.339911
O30   O     O_3   0.027110 0.670510 0.559550 -0.387762
O31   O     O_3   0.527110 0.829490 0.059550 -0.338864
O32   O     O_3   0.527110 0.170510 0.559550 -0.387813
O33   O     O_2   0.158772 0.273018 0.988531 -0.365488
O34   O     O_2   0.150030 0.740134 0.486366 -0.409684
O35   O     O_2   0.659028 0.773454 0.989093 -0.364480
O36   O     O_2   0.650186 0.239984 0.486970 -0.409672
O37   O     O_3   0.251092 0.470300 0.723269 -0.583221
O38   O     O_3   0.235228 0.512039 0.198018 -0.511602
O39   O     O_3   0.751104 0.970249 0.724451 -0.584070
O40   O     O_3   0.736651 0.013367 0.195721 -0.515653
O41   O     O_3   0.060887 0.182015 0.066915 -0.531095
O42   O     O_3   0.041397 0.819781 0.584160 -0.500332
O43   O     O_3   0.561205 0.682113 0.065556 -0.529359
O44   O     O_3   0.541345 0.319971 0.582974 -0.499265
C5    C     C_3   0.022305 0.162928 0.192886 0.453429
C6    C     C_3   0.966043 0.806189 0.620823 0.519397
C7    C     C_3   0.523597 0.661834 0.192163 0.449059
C8    C     C_3   0.465572 0.306613 0.617808 0.519749
H13   H     H_    0.972257 0.200500 0.197892 0.108130
H14   H     H_    0.925907 0.787099 0.509484 0.103139
H15   H     H_    0.472909 0.698481 0.198528 0.108226
H16   H     H_    0.425756 0.288115 0.505490 0.103724
H17   H     H_    0.063883 0.161881 0.311007 0.024896
H18   H     H_    0.967891 0.764461 0.716311 0.035495
H19   H     H_    0.565491 0.660925 0.309907 0.027199
H20   H     H_    0.466621 0.264583 0.712343 0.036403
C9    C     C_3   0.991319 0.087268 0.164131 -0.950042
C10   C     C_3   0.931765 0.873694 0.684730 -1.072154
C11   C     C_3   0.494244 0.585749 0.162682 -0.948954
C12   C     C_3   0.431495 0.374113 0.682256 -1.073044
H21   H     H_    0.449744 0.574681 0.237933 0.210408
H22   H     H_    0.369517 0.383972 0.621697 0.229311
H23   H     H_    0.945119 0.077859 0.236658 0.208772
H24   H     H_    0.869793 0.883293 0.623636 0.228346
H25   H     H_    0.965991 0.079499 0.034337 0.271017
H26   H     H_    0.967620 0.921828 0.671130 0.301224
H27   H     H_    0.467319 0.578450 0.033623 0.269589
H28   H     H_    0.467335 0.422206 0.668434 0.300813
C13   C     C_3   0.298098 0.516639 0.330514 0.202116
C14   C     C_3   0.235725 0.537768 0.781780 0.309282
C15   C     C_3   0.796124 0.015187 0.334728 0.214863
C16   C     C_3   0.735335 0.038038 0.780823 0.310213
H29   H     H_    0.329733 0.568677 0.331075 0.055261
H30   H     H_    0.196898 0.534591 0.872511 0.130840
H31   H     H_    0.828151 0.067293 0.345295 0.053795
H32   H     H_    0.695665 0.035395 0.870081 0.130894
H33   H     H_    0.276547 0.508888 0.445985 0.119434
H34   H     H_    0.206344 0.571628 0.678034 0.072298
H35   H     H_    0.770860 0.004533 0.444690 0.118651
H36   H     H_    0.706723 0.071480 0.675712 0.071393
C17   C     C_3   0.354986 0.455580 0.307356 -0.740521
C18   C     C_3   0.315921 0.568005 0.863033 -0.789871
C19   C     C_3   0.854060 0.955142 0.311858 -0.741588
C20   C     C_3   0.815187 0.068481 0.863672 -0.786304
H37   H     H_    0.404607 0.451375 0.411051 0.171480
H38   H     H_    0.327708 0.553992 0.993538 0.225068
H39   H     H_    0.902976 0.951015 0.416714 0.169925
H40   H     H_    0.826082 0.054962 0.994649 0.227667
H41   H     H_    0.380901 0.466377 0.198665 0.222914
H42   H     H_    0.363989 0.544400 0.807738 0.223922
H43   H     H_    0.880818 0.966964 0.204750 0.224739
H44   H     H_    0.863911 0.044533 0.810478 0.223558
Ba1   Ba    Ba6+2 0.000000 0.447380 0.844850 1.595630
Ba2   Ba    Ba6+2 1.000000 0.552620 0.344850 1.555285
Ba3   Ba    Ba6+2 0.500000 0.947380 0.844850 1.595219
Ba4   Ba    Ba6+2 0.500000 0.052620 0.344850 1.554741
C21   C     C_3   0.769320 0.546964 0.943305 0.414189
C22   C     C_3   0.772306 0.456374 0.411571 0.365763
C23   C     C_3   0.269245 0.046951 0.943337 0.414208
C24   C     C_3   0.272388 0.956331 0.411699 0.367148
H45   H     H_    0.758135 0.560527 0.812566 0.081278
H46   H     H_    0.761341 0.458042 0.277706 0.074238
H47   H     H_    0.257834 0.060592 0.812638 0.081085
H48   H     H_    0.261268 0.957863 0.277840 0.074134
H49   H     H_    0.830971 0.561797 0.998467 0.115678
H50   H     H_    0.834507 0.439414 0.458901 0.117353
H51   H     H_    0.330974 0.061736 0.998011 0.115101
H52   H     H_    0.334641 0.939476 0.458778 0.117002
C25   C     C_3   0.714533 0.591345 0.025324 -0.880463
C26   C     C_3   0.718648 0.400460 0.464243 -0.811379
C27   C     C_3   0.214718 0.091346 0.026006 -0.876485
C28   C     C_3   0.218926 0.900405 0.464894 -0.813245
H53   H     H_    0.652528 0.580944 0.969507 0.275931
H54   H     H_    0.656810 0.419884 0.442116 0.292895
H55   H     H_    0.152626 0.081398 0.970141 0.276881
H56   H     H_    0.157093 0.919718 0.443145 0.292837
H57   H     H_    0.727805 0.649345 0.017703 0.247574
H58   H     H_    0.721943 0.349548 0.397987 0.207899
H59   H     H_    0.228356 0.149304 0.019210 0.246598
H60   H     H_    0.222216 0.849489 0.398829 0.208343
H61   H     H_    0.720381 0.574142 0.152575 0.261919
H62   H     H_    0.736338 0.390678 0.595099 0.280636
H63   H     H_    0.220471 0.073825 0.153009 0.262188
H64   H     H_    0.236739 0.890774 0.595652 0.280726
O45   O     O_3   0.092100 0.536880 0.086720 -0.340116
O46   O     O_3   0.092100 0.463120 0.586720 -0.394385
O47   O     O_3   0.592100 0.036880 0.086720 -0.341100
O48   O     O_3   0.592100 0.963120 0.586720 -0.395782
P13   P     P_3+3 0.899496 0.736428 0.078701 0.448639
P14   P     P_3+3 0.897202 0.266774 0.572506 0.443480
P15   P     P_3+3 0.399599 0.236514 0.078598 0.448252
P16   P     P_3+3 0.397252 0.766735 0.572697 0.443851
C29   C     C_3   0.017591 0.184097 0.652526 0.334835
C30   C     C_3   0.025514 0.813167 0.112836 0.308396
C31   C     C_3   0.517660 0.683940 0.651075 0.336482
C32   C     C_3   0.525779 0.312936 0.111409 0.310839
H65   H     H_    0.034211 0.203118 0.538674 -0.012343
H66   H     H_    0.032736 0.791183 0.993532 0.051633
H67   H     H_    0.533651 0.702474 0.536219 -0.014055
H68   H     H_    0.532594 0.290712 0.992057 0.051864
H69   H     H_    0.544881 0.547862 0.195153 0.262800
H70   H     H_    0.428797 0.366399 0.811147 0.246528
H71   H     H_    0.040820 0.048416 0.200315 0.262740
H72   H     H_    0.928839 0.866103 0.813511 0.246741
C33   C     C_R   0.140377 0.675730 0.920270 -0.536732
C34   C     C_R   0.144257 0.327503 0.419963 -0.455950
C35   C     C_R   0.639796 0.176077 0.920655 -0.538401
C36   C     C_R   0.644187 0.827445 0.420154 -0.457373
C37   C     C_R   0.862520 0.322031 0.258948 -0.485335
C38   C     C_R   0.856453 0.673075 0.771354 -0.550357
C39   C     C_R   0.362577 0.822028 0.259103 -0.483555
C40   C     C_R   0.356414 0.173070 0.771345 -0.550185
C41   C     C_R   0.788325 0.215672 0.300204 -0.229931
C42   C     C_R   0.788106 0.784637 0.804040 -0.166025
C43   C     C_R   0.288542 0.715534 0.300228 -0.231916
C44   C     C_R   0.288197 0.284718 0.803829 -0.165836
C45   C     C_R   0.847072 0.266474 0.358129 0.201402
C46   C     C_R   0.842598 0.730754 0.868234 0.218330
C47   C     C_R   0.347161 0.766432 0.358272 0.201952
C48   C     C_R   0.342630 0.230800 0.868148 0.218738
C49   C     C_R   0.815192 0.333273 0.106612 0.299662
C50   C     C_R   0.814317 0.665494 0.612469 0.278995
C51   C     C_R   0.315292 0.833236 0.106680 0.298558
C52   C     C_R   0.314287 0.165487 0.612445 0.278994
C53   C     C_R   0.753754 0.282115 0.045454 -0.036723
C54   C     C_R   0.756195 0.719325 0.547864 -0.058924
C55   C     C_R   0.253992 0.781978 0.045406 -0.035112
C56   C     C_R   0.256188 0.219331 0.547776 -0.058981
C57   C     C_R   0.242566 0.720255 0.141752 -0.019385
C58   C     C_R   0.242797 0.279876 0.645262 -0.093371
C59   C     C_R   0.742233 0.220446 0.141860 -0.021944
C60   C     C_R   0.742767 0.779841 0.645411 -0.093521
C61   C     C_R   0.184768 0.666409 0.076789 0.213366
C62   C     C_R   0.184709 0.333688 0.579841 0.246995
C63   C     C_R   0.684229 0.166713 0.077140 0.219178
C64   C     C_R   0.684705 0.833664 0.579972 0.244871
C65   C     C_R   0.152129 0.734581 0.825103 0.188653
C66   C     C_R   0.159302 0.270715 0.322992 0.204675
C67   C     C_R   0.651703 0.234849 0.825340 0.188009
C68   C     C_R   0.659237 0.770677 0.323160 0.203789
C69   C     C_R   0.205736 0.788822 0.889706 -0.160644
C70   C     C_R   0.212487 0.215898 0.387801 -0.215100
C71   C     C_R   0.705479 0.288990 0.889791 -0.158438
C72   C     C_R   0.712526 0.715920 0.387868 -0.216593
H73   H     H_    0.278327 0.674145 0.383032 0.156657
H74   H     H_    0.283531 0.331048 0.877786 0.228469
H75   H     H_    0.777946 0.174465 0.383138 0.157585
H76   H     H_    0.783365 0.830901 0.878191 0.228985
H77   H     H_    0.710252 0.335301 0.815685 0.194155
H78   H     H_    0.718724 0.670992 0.311469 0.181318
H79   H     H_    0.210346 0.835215 0.815736 0.193381
H80   H     H_    0.218597 0.170907 0.311515 0.181181
H81   H     H_    0.097375 0.635487 0.869466 0.173450
H82   H     H_    0.101947 0.368569 0.368104 0.178331
H83   H     H_    0.596738 0.135872 0.869900 0.173865
H84   H     H_    0.601857 0.868500 0.368314 0.178196
H85   H     H_    0.908493 0.360224 0.306528 0.158402
H86   H     H_    0.900203 0.632937 0.821644 0.172101
H87   H     H_    0.408481 0.860275 0.306745 0.158166
H88   H     H_    0.400145 0.132920 0.821664 0.172082
C73   C     C_2   0.311917 0.385334 0.282522 0.914787
H89   H     H_    0.312772 0.348028 0.381018 -0.097749
O49   O     O_2   0.272042 0.370989 0.150475 -0.532142
C74   C     C_2   0.318991 0.647037 0.843107 0.655207
H90   H     H_    0.280243 0.672499 0.742059 0.059613
O50   O     O_2   0.367846 0.682626 0.934028 -0.544308
C75   C     C_2   0.811807 0.884669 0.284060 0.899748
H91   H     H_    0.813576 0.846323 0.380983 -0.089441
O51   O     O_2   0.771705 0.871250 0.151695 -0.529643
C76   C     C_2   0.818302 0.147499 0.842273 0.653439
H92   H     H_    0.779387 0.172750 0.741094 0.059091
O52   O     O_2   0.867434 0.183304 0.932101 -0.542690
C77   C     C_2   0.517824 0.555717 0.567076 0.654528
H93   H     H_    0.454192 0.551302 0.532606 -0.005199
O53   O     O_2   0.560827 0.516398 0.506064 -0.582339
C78   C     C_2   0.542983 0.434350 0.995056 0.611730
H94   H     H_    0.484241 0.458182 0.971690 0.027174
O54   O     O_2   0.588793 0.447710 0.905190 -0.546281
C79   C     C_2   0.018519 0.056086 0.566989 0.656050
H95   H     H_    0.954946 0.051870 0.530430 -0.003020
O55   O     O_2   0.062020 0.016658 0.507566 -0.582639
C80   C     C_2   0.041740 0.935265 0.998720 0.611881
H96   H     H_    0.982591 0.958304 0.975773 0.028008
O56   O     O_2   0.087482 0.950071 0.909549 -0.548341

loop_
_geom_bond_atom_site_label_1
_geom_bond_atom_site_label_2
_geom_bond_distance
_ccdc_geom_bond_type
C43   H73   1.074883 S    
C15   H31   1.110773 S    
C12   H28   1.106493 S    
P1    O17   1.746316 S    
C14   C18   1.525399 S    
O43   C7    1.401474 S    
P12   C67   1.852076 S    
Ba2   O46   2.851280 S    
P4    C52   1.882653 S    
P3    O19   1.746754 S    
O7    Ba4   2.861260 S    
C34   H82   1.082493 S    
C35   C67   1.393352 A    
O44   C8    1.413155 S    
O6    Ba1   2.851305 S    
C33   H81   1.082145 S    
C28   H60   1.103266 S    
C9    H23   1.106131 S    
C37   C45   1.385433 A    
Ba3   Ba4   4.637477 S    
Ba3   O47   2.861236 S    
C26   H62   1.098429 S    
P8    C63   1.887551 S    
C27   H59   1.106365 S    
C43   C57   1.414222 A    
O11   Ba3   2.820899 S    
C29   H65   1.109430 S    
C10   H72   1.103199 S    
O15   P16   1.538028 D    
C52   C56   1.439359 A    
O38   C13   1.397048 S    
C25   H57   1.106366 S    
C3    H5    1.111390 S    
C23   H51   1.107887 S    
O37   C14   1.388490 S    
C55   C69   1.413211 A    
P3    O3    1.535849 D    
C24   H52   1.110276 S    
P4    O20   1.747049 S    
C54   C72   1.409785 A    
O18   C22   1.400147 S    
C39   C47   1.385739 A    
P7    O48   1.600001 S    
C22   H46   1.105424 S    
C80   O56   1.219930 D    
C11   H69   1.108484 S    
O1    Ba1   2.877806 S    
C16   H32   1.109348 S    
P9    O29   1.750806 S    
C78   H94   1.083042 S    
P4    Ba4   3.414922 S    
O22   P13   1.752519 S    
C19   H43   1.110675 S    
C77   H93   1.079843 S    
C42   C46   1.401409 A    
C5    H17   1.105888 S    
O32   Ba4   2.820195 S    
C36   C64   1.394060 A    
C78   O54   1.219342 D    
C25   H53   1.096660 S    
C10   H26   1.106872 S    
O23   C31   1.405336 S    
C30   H66   1.112168 S    
C17   C73   1.497802 S    
P6    C61   1.886821 S    
C54   C60   1.435116 A    
O21   C29   1.404996 S    
P5    C62   1.868887 S    
O16   P15   1.544343 D    
C11   H27   1.103123 S    
P2    O18   1.747120 S    
C19   C75   1.496260 S    
C75   H91   1.078222 S    
O41   C5    1.401412 S    
P16   C47   1.841839 S    
P4    O8    1.595055 S    
C40   C48   1.392875 A    
C18   H38   1.107659 S    
C49   C53   1.443235 A    
P4    O4    1.536283 D    
C56   C70   1.409847 A    
C79   O55   1.218409 D    
O26   Ba2   2.881256 S    
P7    O27   1.535593 D    
P5    O25   1.535593 D    
C2    H10   1.108591 S    
P9    O41   1.740487 S    
O12   P15   1.746026 S    
C42   H76   1.073499 S    
C67   C71   1.405323 A    
C75   O51   1.217044 D    
C25   H61   1.102595 S    
P2    O2    1.536283 D    
P11   O43   1.739961 S    
C6    H18   1.111815 S    
C24   H48   1.105249 S    
P7    O39   1.733046 S    
P3    Ba3   3.419620 S    
C76   O52   1.218613 D    
Ba3   O48   2.940750 S    
P2    Ba2   3.414922 S    
O31   Ba3   2.816283 S    
C71   H77   1.074772 S    
H3    C31   1.110156 S    
C8    H20   1.111673 S    
O30   Ba2   2.820195 S    
C16   H36   1.112289 S    
Ba1   O46   2.940750 S    
O10   P13   1.746006 S    
C17   H41   1.110750 S    
C69   H79   1.074790 S    
C42   C60   1.411843 A    
P2    C50   1.882726 S    
C32   H68   1.112214 S    
P11   O35   1.542264 D    
P13   C46   1.852454 S    
C56   C58   1.435065 A    
P12   O36   1.547495 D    
C70   H80   1.070383 S    
P14   C45   1.841655 S    
C20   H44   1.114205 S    
C41   C45   1.402448 A    
P11   C68   1.847872 S    
O4    Ba4   2.867797 S    
C33   C61   1.398076 A    
C34   C66   1.386634 A    
C12   H70   1.103498 S    
P5    Ba1   3.417145 S    
C80   H96   1.083500 S    
C53   C59   1.439625 A    
O29   Ba1   2.816283 S    
O22   C30   1.407557 S    
O24   P15   1.752709 S    
C3    C31   1.517023 S    
C8    C12   1.524165 S    
C44   C48   1.401540 A    
C77   O53   1.218446 D    
P10   O30   1.748779 S    
P15   C48   1.852797 S    
C1    C29   1.517030 S    
O42   C6    1.413038 S    
C73   H89   1.077735 S    
P12   O44   1.751996 S    
C38   C46   1.392885 A    
C14   H30   1.109044 S    
C60   C64   1.440274 A    
O9    Ba1   2.820899 S    
C66   C70   1.402103 A    
P7    Ba3   3.417145 S    
C9    H25   1.103910 S    
C34   C62   1.394092 A    
C65   C69   1.405292 A    
C31   H67   1.109753 S    
C68   C72   1.402101 A    
C15   C19   1.527995 S    
O10   Ba2   2.816975 S    
P6    O26   1.535159 D    
C74   O50   1.218183 D    
O5    Ba2   2.861260 S    
P1    O5    1.602025 S    
C27   H55   1.096587 S    
C2    C80   1.490791 S    
C1    H7    1.110743 S    
C6    C10   1.523848 S    
C57   C61   1.444254 A    
C18   H42   1.112193 S    
C5    C9    1.507848 S    
Ba1   Ba2   4.637477 S    
Ba1   O45   2.861236 S    
O39   C16   1.388714 S    
C58   C62   1.440371 A    
C2    H8    1.109465 S    
C7    C11   1.506897 S    
P8    O47   1.607052 S    
C12   H22   1.102820 S    
C16   C20   1.525725 S    
C1    H9    1.107687 S    
C20   C76   1.480529 S    
Ba4   O48   2.851280 S    
C40   C52   1.398742 A    
P10   O34   1.547521 D    
Ba2   O45   2.939050 S    
P1    O1    1.535849 D    
C26   H54   1.102100 S    
C4    H12   1.108531 S    
P11   O31   1.750592 S    
O2    Ba2   2.867797 S    
O17   C21   1.399882 S    
P2    O6    1.595055 S    
O27   Ba3   2.871147 S    
O28   Ba4   2.881256 S    
O9    P14   1.747855 S    
C20   H40   1.109629 S    
C3    H11   1.107642 S    
O24   C32   1.407580 S    
C4    C32   1.523047 S    
C4    C78   1.490535 S    
C21   H49   1.107901 S    
P8    O28   1.535159 D    
P6    O45   1.607052 S    
C28   H64   1.097363 S    
C76   H92   1.080526 S    
C22   C26   1.514718 S    
C5    H13   1.112077 S    
C36   H84   1.082500 S    
C51   C55   1.443104 A    
C13   H33   1.114348 S    
P6    Ba2   3.421949 S    
C28   H56   1.101423 S    
O3    Ba3   2.877806 S    
C2    C30   1.522852 S    
C3    C77   1.487045 S    
C59   C63   1.444490 A    
P8    Ba4   3.421949 S    
C33   C65   1.393053 A    
C8    H16   1.109449 S    
C41   H75   1.074051 S    
P6    O38   1.739285 S    
C17   H37   1.097953 S    
H2    C30   1.111019 S    
C15   H35   1.113692 S    
O19   C23   1.399986 S    
C44   C58   1.411854 A    
C14   H34   1.112422 S    
P8    O40   1.739489 S    
C37   C49   1.393339 A    
C21   C25   1.512096 S    
C36   C68   1.386510 A    
C23   H47   1.107717 S    
C4    H6    1.109300 S    
C13   C17   1.530364 S    
O23   P16   1.743527 S    
O40   C15   1.396654 S    
C35   C63   1.398195 A    
O11   P16   1.747532 S    
C73   O49   1.217064 D    
O14   P13   1.544132 D    
O25   Ba1   2.871147 S    
P5    O37   1.733186 S    
P9    O33   1.542548 D    
C7    H19   1.105993 S    
P10   O42   1.751760 S    
O8    Ba3   2.851305 S    
C72   H78   1.070371 S    
C26   H58   1.104036 S    
C38   C50   1.398680 A    
C39   H87   1.082255 S    
H4    C32   1.111091 S    
C27   H63   1.102496 S    
C74   H90   1.080151 S    
C40   H88   1.082012 S    
P7    C64   1.868692 S    
C1    C79   1.486610 S    
O12   Ba4   2.816975 S    
P3    C51   1.876448 S    
P1    Ba1   3.419620 S    
C38   H86   1.082016 S    
C53   C71   1.413145 A    
P3    O7    1.602025 S    
C50   C54   1.439301 A    
C10   H24   1.103204 S    
C37   H85   1.082253 S    
C9    H71   1.109233 S    
P10   C65   1.851905 S    
C21   H45   1.107779 S    
C44   H74   1.073277 S    
C18   C74   1.479200 S    
C39   C51   1.393531 A    
P9    C66   1.847724 S    
C22   H50   1.110382 S    
P12   O32   1.748744 S    
C6    H14   1.109450 S    
Ba4   O47   2.939050 S    
O21   P14   1.743842 S    
O20   C24   1.399990 S    
C11   H21   1.103719 S    
C35   H83   1.082127 S    
O13   P14   1.538007 D    
C19   H39   1.096730 S    
P5    O46   1.600001 S    
H1    C29   1.109564 S    
C7    H15   1.112332 S    
C23   C27   1.512241 S    
C13   H29   1.110879 S    
C43   C47   1.402428 A    
C79   H95   1.079983 S    
P1    C49   1.876035 S    
C24   C28   1.514424 S    
C55   C57   1.439700 A    
C41   C59   1.414106 A    
