data_mof_unit_35417.cif
_audit_creation_date              2012-10-26T21:03:31-0400
_audit_creation_method            fapswitch 2.2
_symmetry_space_group_name_H-M    P1
_symmetry_Int_Tables_number       1
_space_group_crystal_system       triclinic
_cell_length_a                    15.97898
_cell_length_b                    14.760292
_cell_length_c                    10.792417
_cell_angle_alpha                 89.967233
_cell_angle_beta                  89.986097
_cell_angle_gamma                 90.012829
_cell_volume                      2545.43859607

loop_
_atom_site_label
_atom_site_type_symbol
_atom_type_description
_atom_site_fract_x
_atom_site_fract_y
_atom_site_fract_z
_atom_type_partial_charge
C1    C     C_R   0.340899 0.499988 0.499687 0.544133
C2    C     C_R   0.447563 0.951909 0.420173 -0.107089
C3    C     C_R   0.499008 0.902782 0.501601 -0.083705
C4    C     C_R   0.445230 0.047744 0.422506 0.233239
C5    C     C_R   0.551554 0.048149 0.583824 0.230488
C6    C     C_R   0.498621 0.096996 0.502778 0.016140
C7    C     C_1   0.499558 0.802701 0.500656 0.127949
C8    C     C_1   0.499507 0.197312 0.501190 0.200244
C9    C     C_R   0.503217 0.500066 0.261988 0.536411
C10   C     C_R   0.503180 0.500026 0.737993 0.535082
C11   C     C_R   0.635502 0.597324 0.129041 -0.102220
C12   C     C_R   0.659100 0.499998 0.499503 0.523628
C13   C     C_R   0.635497 0.597265 0.870483 -0.103444
C14   C     C_R   0.697093 0.644520 0.064102 -0.117513
C15   C     C_R   0.697090 0.644497 0.935224 -0.124303
C16   C     C_R   0.571567 0.550051 0.934357 0.027287
C17   C     C_R   0.571564 0.550091 0.065376 0.024823
C18   C     C_R   0.509150 0.500057 0.128577 0.003315
C19   C     C_R   0.509159 0.499967 0.871359 0.004412
C20   C     C_R   0.450981 0.447852 0.063902 -0.145291
C21   C     C_R   0.450980 0.447809 0.936194 -0.147613
C22   C     C_R   0.955968 0.583363 0.482356 0.233728
C23   C     C_R   0.956090 0.422110 0.533771 0.229935
C24   C     C_R   0.043750 0.584130 0.485160 0.237302
C25   C     C_R   0.912629 0.502265 0.506905 -0.041148
C26   C     C_R   0.087409 0.503262 0.510629 -0.052120
C27   C     C_3   0.116292 0.705651 0.559846 0.017320
C28   C     C_3   0.143840 0.801862 0.526841 -0.247781
C29   C     C_3   0.179731 0.850899 0.639406 -0.491776
C30   C     C_3   0.881208 0.708472 0.541173 0.013820
C31   C     C_3   0.810882 0.769638 0.494260 -0.244911
C32   C     C_3   0.773446 0.826405 0.598465 -0.494219
C33   C     C_3   0.920295 0.280476 0.461669 0.038069
C34   C     C_R   0.043925 0.423232 0.539305 0.211506
C35   C     C_3   0.834205 0.262392 0.404887 -0.270201
C36   C     C_3   0.837499 0.185426 0.310726 -0.490947
C37   C     C_3   0.100032 0.336170 0.691376 0.020440
C38   C     C_3   0.145130 0.247024 0.717875 -0.260010
C39   C     C_3   0.164459 0.236457 0.855570 -0.484924
C40   C     C_3   0.684964 0.070825 0.658410 0.002033
C41   C     C_3   0.738832 0.142430 0.722328 -0.241460
C42   C     C_3   0.831651 0.118584 0.714591 -0.483021
C43   C     C_3   0.318740 0.119222 0.401618 0.016844
C44   C     C_3   0.248803 0.050949 0.375157 -0.268932
C45   C     C_1   0.823041 0.500791 0.502368 0.013062
C46   C     C_3   0.166497 0.080178 0.434738 -0.487183
C47   C     C_1   0.176954 0.501363 0.504792 0.005492
C48   C     C_1   0.251920 0.500236 0.501636 -0.021236
C49   C     C_1   0.748065 0.500151 0.500381 -0.029888
C50   C     C_R   0.549435 0.951619 0.584780 -0.131110
Cu1   Cu    Cu3+1 0.500000 0.589220 0.500000 0.965064
Cu2   Cu    Cu3+1 0.500000 0.410780 0.500000 0.995027
H1    H     H_    0.404019 0.408586 0.112697 0.131528
H2    H     H_    0.089281 0.840561 0.490993 0.169404
H3    H     H_    0.131775 0.856063 0.713596 0.143873
H4    H     H_    0.199360 0.920298 0.612605 0.146401
H5    H     H_    0.235229 0.814075 0.675549 0.158565
H6    H     H_    0.931431 0.751541 0.581068 0.136006
H7    H     H_    0.855438 0.664055 0.615714 0.110280
H8    H     H_    0.835767 0.815632 0.421422 0.171082
H9    H     H_    0.760751 0.727214 0.452537 0.181342
H10   H     H_    0.745245 0.781909 0.670278 0.148020
H11   H     H_    0.723855 0.870763 0.559833 0.138055
H12   H     H_    0.404000 0.408534 0.887530 0.125274
H13   H     H_    0.822271 0.869757 0.641509 0.136282
H14   H     H_    0.945465 0.216497 0.501079 0.156111
H15   H     H_    0.964066 0.301718 0.386178 0.139210
H16   H     H_    0.789041 0.244348 0.479046 0.181571
H17   H     H_    0.811459 0.324859 0.358281 0.170752
H18   H     H_    0.881444 0.202441 0.234407 0.148396
H19   H     H_    0.774225 0.174594 0.270874 0.159274
H20   H     H_    0.858078 0.121666 0.356196 0.138195
H21   H     H_    0.039174 0.335959 0.742014 0.156140
H22   H     H_    0.139458 0.393219 0.725658 0.122607
H23   H     H_    0.639766 0.596960 0.228972 0.136283
H24   H     H_    0.104992 0.189670 0.687516 0.161482
H25   H     H_    0.204668 0.244710 0.664591 0.173102
H26   H     H_    0.105674 0.237328 0.910533 0.145560
H27   H     H_    0.206011 0.292119 0.887439 0.150279
H28   H     H_    0.196712 0.170856 0.871547 0.151774
H29   H     H_    0.705170 0.065606 0.559599 0.124120
H30   H     H_    0.695485 0.005045 0.706123 0.132538
H31   H     H_    0.728134 0.209354 0.677904 0.184725
H32   H     H_    0.720355 0.147702 0.821375 0.178715
H33   H     H_    0.844235 0.054447 0.765153 0.137522
H34   H     H_    0.639771 0.596854 0.770551 0.134497
H35   H     H_    0.869379 0.173594 0.757068 0.169129
H36   H     H_    0.851128 0.110526 0.616464 0.141864
H37   H     H_    0.299853 0.186190 0.363773 0.164856
H38   H     H_    0.326016 0.128713 0.503806 0.113267
H39   H     H_    0.239810 0.044816 0.273385 0.176900
H40   H     H_    0.266572 0.983428 0.412205 0.154881
H41   H     H_    0.146695 0.147344 0.398653 0.167452
H42   H     H_    0.173680 0.084118 0.536893 0.140421
H43   H     H_    0.117029 0.029765 0.413104 0.142342
H44   H     H_    0.586671 0.914383 0.651241 0.114677
H45   H     H_    0.745667 0.680291 0.114050 0.123414
H46   H     H_    0.408015 0.915826 0.355305 0.132732
H47   H     H_    0.745666 0.680235 0.885139 0.102199
H48   H     H_    0.171252 0.668415 0.597123 0.135252
H49   H     H_    0.067603 0.709616 0.633677 0.101124
H50   H     H_    0.192323 0.799140 0.453026 0.177363
N1    N     N_1   0.500000 0.276710 0.500000 -0.189819
N2    N     N_1   0.500000 0.723290 0.500000 -0.192111
O1    O     O_R   0.380310 0.575320 0.500020 -0.486505
O2    O     O_3   0.913442 0.658921 0.439833 -0.533753
O3    O     O_3   0.911976 0.343568 0.559863 -0.565661
O4    O     O_3   0.087150 0.343841 0.562463 -0.567007
O5    O     O_3   0.599921 0.096264 0.667973 -0.562977
O6    O     O_3   0.393333 0.092796 0.340462 -0.568590
O7    O     O_R   0.619690 0.575320 0.499980 -0.514056
O8    O     O_R   0.380310 0.424640 0.499960 -0.494637
O9    O     O_R   0.619690 0.424640 0.500040 -0.487420
O10   O     O_R   0.500000 0.575360 0.319640 -0.498508
O11   O     O_R   0.500000 0.575360 0.680360 -0.501709
O12   O     O_R   0.500000 0.424670 0.319580 -0.491513
O13   O     O_R   0.500000 0.424670 0.680420 -0.489553
O14   O     O_3   0.085822 0.662510 0.451898 -0.527769

loop_
_geom_bond_atom_site_label_1
_geom_bond_atom_site_label_2
_ccdc_geom_bond_type
C37   H22   S    
Cu2   N1    S    
C41   C42   S    
C31   H9    S    
C35   C36   S    
C33   O3    S    
C12   C49   S    
C38   H24   S    
Cu2   O9    S    
C43   H37   S    
C9    O10   A    
C28   C29   S    
C19   C21   A    
C24   C26   A    
C3    C7    S    
C1    O8    A    
C5    C6    A    
C11   C14   A    
Cu2   O8    S    
C41   H31   S    
C21   H12   S    
C37   H21   S    
C26   C34   A    
C46   H43   S    
C31   C32   S    
C44   C46   S    
C16   C17   A    
C22   C25   A    
C13   H34   S    
C43   O6    S    
C44   H40   S    
C36   H19   S    
Cu2   O13   S    
C30   O2    S    
C3    C50   A    
C36   H18   S    
C33   H14   S    
Cu2   O12   S    
C38   C39   S    
C27   H48   S    
Cu1   O10   S    
Cu1   Cu2   S    
C43   H38   S    
C39   H26   S    
C40   H30   S    
C37   O4    S    
C4    C6    A    
C28   H2    S    
C6    C8    S    
C29   H3    S    
Cu1   N2    S    
C22   O2    S    
C41   H32   S    
C27   H49   S    
Cu1   O11   S    
C39   H27   S    
C31   H8    S    
C2    C4    A    
C43   C44   S    
C37   C38   S    
C47   C48   T    
C46   H42   S    
C45   C49   T    
C10   C19   S    
Cu1   O1    S    
C23   C34   A    
C23   O3    S    
C30   H7    S    
C17   C18   A    
C42   H33   S    
C35   H17   S    
C44   H39   S    
C26   C47   S    
C40   C41   S    
C38   H25   S    
C29   H5    S    
C7    N2    T    
C13   C15   A    
C22   C24   A    
C5    C50   A    
C42   H36   S    
C25   C45   S    
C33   H15   S    
C14   H45   S    
C12   O9    A    
C27   O14   S    
C4    O6    S    
C11   C17   A    
Cu1   O7    S    
C9    O12   A    
C40   H29   S    
C32   H11   S    
C15   H47   S    
C20   H1    S    
C1    C48   S    
C40   O5    S    
C29   H4    S    
C24   O14   S    
C34   O4    S    
C39   H28   S    
C2    C3    A    
C32   H10   S    
C10   O13   A    
C11   H23   S    
C50   H44   S    
C30   C31   S    
C46   H41   S    
C5    O5    S    
C35   H16   S    
C16   C19   A    
C30   H6    S    
C33   C35   S    
C18   C20   A    
C23   C25   A    
C8    N1    T    
C28   H50   S    
C9    C18   S    
C20   C21   A    
C2    H46   S    
C13   C16   A    
C27   C28   S    
C14   C15   A    
C42   H35   S    
C12   O7    A    
C10   O11   A    
C36   H20   S    
C1    O1    A    
C32   H13   S    
