data_mof_unit_61272.cif
_audit_creation_date              2012-12-10T17:14:37-0500
_audit_creation_method            fapswitch 2.2
_symmetry_space_group_name_H-M    P1
_symmetry_Int_Tables_number       1
_space_group_crystal_system       triclinic
_cell_length_a                    25.895883
_cell_length_b                    25.865027
_cell_length_c                    22.213634
_cell_angle_alpha                 90.056033
_cell_angle_beta                  125.826747
_cell_angle_gamma                 89.973267
_cell_volume                      12063.4574698

loop_
_atom_site_label
_atom_site_type_symbol
_atom_type_description
_atom_site_fract_x
_atom_site_fract_y
_atom_site_fract_z
_atom_type_partial_charge
C1    C     C_R   0.650129 0.750014 0.300481 0.805714
C2    C     C_R   0.757118 0.473304 0.459218 -0.173391
C3    C     C_R   0.022476 0.707634 0.491136 -0.207820
C4    C     C_R   0.502731 0.736157 0.558603 0.133243
C5    C     C_R   0.468799 0.207046 0.490482 0.144045
C6    C     C_R   0.002815 0.236434 0.558748 0.133021
C7    C     C_R   0.968794 0.707048 0.490472 0.144041
C8    C     C_R   0.444083 0.754233 0.496365 -0.121333
C9    C     C_R   0.449293 0.252417 0.506941 -0.124627
C10   C     C_R   0.944083 0.254249 0.496363 -0.121029
C11   C     C_R   0.949292 0.752417 0.506939 -0.124228
C12   C     C_R   0.661843 0.946001 0.359009 -0.404634
C13   C     C_R   0.257186 0.026492 0.459146 -0.175625
C14   C     C_R   0.662005 0.053796 0.358952 -0.401985
C15   C     C_R   0.161869 0.446002 0.358996 -0.405147
C16   C     C_R   0.162029 0.553796 0.358942 -0.402275
C17   C     C_R   0.621544 0.972853 0.291856 0.507392
C18   C     C_R   0.621640 0.026851 0.291823 0.507538
C19   C     C_R   0.121588 0.472854 0.291839 0.506639
C20   C     C_R   0.121682 0.526852 0.291807 0.506989
C21   C     C_R   0.703826 0.027283 0.426621 0.062132
C22   C     C_R   0.703760 0.972602 0.426641 0.058553
C23   C     C_R   0.203837 0.527283 0.426615 0.062094
C24   C     C_R   0.257104 0.973303 0.459207 -0.173475
C25   C     C_R   0.203771 0.472602 0.426633 0.058535
C26   C     C_R   0.744066 0.946087 0.494983 -0.024097
C27   C     C_R   0.744163 0.053877 0.494966 -0.020465
C28   C     C_R   0.244062 0.446087 0.494979 -0.024397
C29   C     C_R   0.244159 0.553878 0.494962 -0.020742
C30   C     C_R   0.780970 0.973303 0.561749 -0.185222
C31   C     C_R   0.780991 0.026720 0.561743 -0.197475
C32   C     C_R   0.280950 0.473303 0.561747 -0.185334
C33   C     C_R   0.280971 0.526719 0.561741 -0.197603
C34   C     C_R   0.609536 0.750241 0.499390 0.819330
C35   C     C_3   0.494305 0.204639 0.024569 -0.213085
C36   C     C_R   0.610285 0.251004 0.500934 0.813461
C37   C     C_R   0.109525 0.250253 0.499367 0.819145
C38   C     C_R   0.110284 0.751003 0.500934 0.813520
C39   C     C_R   0.748517 0.890066 0.498752 0.810085
C40   C     C_R   0.748626 0.109921 0.498796 0.787597
C41   C     C_R   0.248515 0.390066 0.498750 0.810415
C42   C     C_R   0.248625 0.609921 0.498794 0.787859
C43   C     C_R   0.749737 0.609806 0.501035 0.840610
C44   C     C_R   0.749795 0.390192 0.501544 0.849362
C45   C     C_R   0.249738 0.109806 0.501035 0.840408
C46   C     C_3   0.491382 0.794822 0.024672 -0.215314
C47   C     C_R   0.249795 0.890192 0.501544 0.849232
C48   C     C_R   0.728500 0.554835 0.604648 0.111941
C49   C     C_R   0.735073 0.446018 0.610310 0.093180
C50   C     C_R   0.228527 0.054836 0.604670 0.112005
C51   C     C_R   0.235099 0.946019 0.610331 0.093193
C52   C     C_R   0.720176 0.527077 0.651965 -0.163261
C53   C     C_R   0.723754 0.473905 0.655041 -0.182081
C54   C     C_R   0.220221 0.027078 0.652003 -0.162904
C55   C     C_R   0.223798 0.973907 0.655078 -0.181845
C56   C     C_R   0.741307 0.472374 0.558036 0.036383
C57   C     C_3   0.000577 0.702509 0.024594 -0.213427
C58   C     C_R   0.739341 0.528078 0.556289 0.034551
C59   C     C_R   0.241321 0.972374 0.558047 0.036517
C60   C     C_R   0.239355 0.028078 0.556300 0.034625
C61   C     C_3   0.004925 0.298959 0.024769 -0.214698
C62   C     C_3   0.940555 0.736631 0.974749 -0.166686
C63   C     C_3   0.941533 0.268660 0.974806 -0.167473
C64   C     C_3   0.439245 0.243214 0.974766 -0.167525
C65   C     C_R   0.650123 0.249946 0.300474 0.837215
C66   C     C_3   0.438337 0.754737 0.974756 -0.168811
C67   C     C_1   0.889707 0.749998 0.778991 -0.115039
C68   C     C_1   0.889533 0.250225 0.778972 -0.105133
C69   C     C_1   0.389724 0.250011 0.778990 -0.114852
C70   C     C_1   0.389571 0.750198 0.778970 -0.105144
C71   C     C_1   0.610441 0.249988 0.221078 -0.090729
C72   C     C_1   0.610179 0.750151 0.221066 -0.095443
C73   C     C_1   0.110410 0.749951 0.221079 -0.090774
C74   C     C_1   0.110148 0.250190 0.221067 -0.095482
C75   C     C_3   0.023192 0.715862 0.975392 -0.161025
C76   C     C_R   0.150125 0.250018 0.300481 0.806393
C77   C     C_3   0.025838 0.280846 0.975434 -0.158170
C78   C     C_3   0.518284 0.211451 0.975354 -0.159172
C79   C     C_3   0.515596 0.790567 0.975386 -0.155404
C80   C     C_3   0.963870 0.750057 0.926936 0.103483
C81   C     C_3   0.963169 0.250470 0.926891 0.104145
C82   C     C_3   0.463929 0.250095 0.926934 0.103168
C83   C     C_3   0.463293 0.750412 0.926888 0.103793
C84   C     C_3   0.560903 0.256955 0.024922 0.189374
C85   C     C_3   0.560551 0.746054 0.024797 0.187542
C86   C     C_3   0.059459 0.763371 0.024939 0.189823
C87   C     C_R   0.150120 0.749942 0.300474 0.837653
C88   C     C_3   0.057126 0.232378 0.024746 0.187313
C89   C     C_3   0.536774 0.250113 0.073153 0.071480
C90   C     C_3   0.536199 0.750348 0.073116 0.071320
C91   C     C_3   0.036691 0.750036 0.073153 0.071812
C92   C     C_3   0.036078 0.250428 0.073118 0.071418
C93   C     C_R   0.849825 0.749998 0.699547 0.866431
C94   C     C_R   0.849916 0.249936 0.699541 0.860868
C95   C     C_R   0.349827 0.249999 0.699547 0.866377
C96   C     C_R   0.349920 0.749934 0.699540 0.860705
C97   C     C_3   0.999892 0.797690 0.975219 -0.213575
C98   C     C_R   0.748493 0.554032 0.506430 -0.049517
C99   C     C_3   0.994193 0.201844 0.974964 -0.213488
C100  C     C_3   0.506317 0.295670 0.975238 -0.214467
C101  C     C_3   0.508013 0.705852 0.975053 -0.215071
C102  C     C_3   0.482471 0.288466 0.024307 0.186227
C103  C     C_3   0.483897 0.710503 0.024173 0.185145
C104  C     C_3   0.977455 0.783976 0.024269 0.186111
C105  C     C_3   0.973486 0.220286 0.024138 0.184741
C106  C     C_1   0.923240 0.750013 0.845788 -0.005410
C107  C     C_1   0.922779 0.250404 0.845758 -0.003737
C108  C     C_1   0.423275 0.250036 0.845787 -0.005148
C109  C     C_R   0.749357 0.446047 0.507400 -0.054672
C110  C     C_1   0.422860 0.750360 0.845757 -0.003750
C111  C     C_1   0.577151 0.250005 0.154312 0.023385
C112  C     C_1   0.576707 0.750305 0.154289 0.017628
C113  C     C_1   0.077096 0.749939 0.154312 0.023560
C114  C     C_1   0.076645 0.250375 0.154291 0.018093
C115  C     C_R   0.489145 0.786453 0.368742 -0.162164
C116  C     C_R   0.567410 0.347293 0.528596 -0.142696
C117  C     C_R   0.988920 0.285863 0.368369 -0.161614
C118  C     C_R   0.067414 0.847292 0.528602 -0.142491
C119  C     C_R   0.432864 0.806471 0.307440 -0.155262
C120  C     C_R   0.248493 0.054032 0.506430 -0.049411
C121  C     C_R   0.551783 0.391826 0.549550 -0.158969
C122  C     C_R   0.932534 0.305611 0.306903 -0.151074
C123  C     C_R   0.051788 0.891824 0.549558 -0.158496
C124  C     C_R   0.380668 0.813262 0.309190 -0.105644
C125  C     C_R   0.506844 0.389862 0.564513 -0.125480
C126  C     C_R   0.880360 0.312487 0.308677 -0.104884
C127  C     C_R   0.006847 0.889861 0.564519 -0.124779
C128  C     C_R   0.383033 0.798942 0.371464 0.124126
C129  C     C_R   0.474672 0.343907 0.555614 0.137399
C130  C     C_R   0.882855 0.298496 0.371137 0.124256
C131  C     C_R   0.249356 0.946047 0.507400 -0.054522
C132  C     C_R   0.974674 0.843906 0.555617 0.137151
C133  C     C_R   0.438928 0.774246 0.433183 0.023060
C134  C     C_R   0.485338 0.298862 0.526617 0.025067
C135  C     C_R   0.938835 0.274006 0.433012 0.023410
C136  C     C_R   0.985339 0.798861 0.526618 0.025107
C137  C     C_R   0.493395 0.770412 0.432252 0.076374
C138  C     C_R   0.535917 0.300059 0.518483 0.075961
C139  C     C_R   0.993288 0.270130 0.432063 0.075693
C140  C     C_R   0.035918 0.800059 0.518485 0.076092
C141  C     C_R   0.890470 0.750160 0.500769 0.875759
C142  C     C_R   0.757199 0.526492 0.459157 -0.175413
C143  C     C_R   0.889797 0.250679 0.499378 0.876279
C144  C     C_R   0.390470 0.250160 0.500769 0.875688
C145  C     C_R   0.389792 0.750683 0.499370 0.876249
C146  C     C_R   0.551695 0.752175 0.495883 -0.091818
C147  C     C_R   0.555188 0.253523 0.503111 -0.094610
C148  C     C_R   0.051682 0.252180 0.495855 -0.091553
C149  C     C_R   0.055188 0.753523 0.503109 -0.094453
C150  C     C_R   0.556026 0.736303 0.558440 -0.194235
C151  C     C_R   0.522481 0.207633 0.491144 -0.207987
C152  C     C_R   0.056101 0.236592 0.558570 -0.194450
H1    H     H_    0.763919 0.546531 0.421339 0.159344
H2    H     H_    0.604574 0.350618 0.520785 0.176994
H3    H     H_    0.029090 0.283486 0.365438 0.136184
H4    H     H_    0.104579 0.850616 0.520794 0.176917
H5    H     H_    0.430380 0.818468 0.259122 0.160990
H6    H     H_    0.576677 0.427622 0.557296 0.165401
H7    H     H_    0.929956 0.317361 0.258440 0.163032
H8    H     H_    0.076683 0.927619 0.557306 0.165451
H9    H     H_    0.838006 0.330471 0.261493 0.178034
H10   H     H_    0.998519 0.924177 0.585657 0.166569
H11   H     H_    0.338386 0.831415 0.262129 0.179013
H12   H     H_    0.763482 0.453040 0.421206 0.163901
H13   H     H_    0.498515 0.424179 0.585650 0.166412
H14   H     H_    0.811130 0.953012 0.614098 0.171243
H15   H     H_    0.811134 0.047055 0.614105 0.164594
H16   H     H_    0.311098 0.453012 0.614098 0.171371
H17   H     H_    0.311103 0.547055 0.614105 0.164738
H18   H     H_    0.658851 0.904305 0.357626 0.159695
H19   H     H_    0.659137 0.095496 0.357512 0.163228
H20   H     H_    0.158875 0.404306 0.357611 0.159844
H21   H     H_    0.159156 0.595497 0.357500 0.163355
H22   H     H_    0.711612 0.547015 0.688249 0.178682
H23   H     H_    0.263896 0.046530 0.421319 0.159504
H24   H     H_    0.718333 0.454152 0.694010 0.178970
H25   H     H_    0.211669 0.047017 0.688297 0.178833
H26   H     H_    0.218388 0.954154 0.694055 0.179071
H27   H     H_    0.891076 0.725767 0.953233 0.173787
H28   H     H_    0.893393 0.283458 0.953368 0.172418
H29   H     H_    0.388652 0.237716 0.953265 0.173529
H30   H     H_    0.387519 0.758152 0.953287 0.172065
H31   H     H_    0.489790 0.167276 0.045667 0.182720
H32   H     H_    0.484979 0.831343 0.045886 0.180560
H33   H     H_    0.001275 0.663444 0.045715 0.183325
H34   H     H_    0.263458 0.953040 0.421187 0.164053
H35   H     H_    0.009742 0.338821 0.046059 0.183111
H36   H     H_    0.999293 0.836796 0.954271 0.179198
H37   H     H_    0.989473 0.161935 0.953858 0.178782
H38   H     H_    0.510937 0.333069 0.954306 0.179164
H39   H     H_    0.514530 0.669292 0.954017 0.178925
H40   H     H_    0.041746 0.687911 0.954401 0.173577
H41   H     H_    0.047105 0.305681 0.954517 0.174768
H42   H     H_    0.532760 0.179812 0.954330 0.174534
H43   H     H_    0.528385 0.823478 0.954437 0.175195
H44   H     H_    0.586406 0.909414 0.234383 0.319982
H45   H     H_    0.600986 0.722461 0.606887 0.182432
H46   H     H_    0.586777 0.090212 0.234252 0.322007
H47   H     H_    0.086475 0.409416 0.234359 0.319648
H48   H     H_    0.086835 0.590214 0.234234 0.321788
H49   H     H_    0.537359 0.172282 0.479124 0.173197
H50   H     H_    0.101127 0.222957 0.607133 0.182310
H51   H     H_    0.037352 0.672283 0.479111 0.173223
H52   H     H_    0.529336 0.784105 0.365844 0.135082
I1    I     I_    0.302177 0.826391 0.365309 -0.344357
I2    I     I_    0.744970 0.365547 0.636477 -0.387582
I3    I     I_    0.222188 0.136152 0.617219 -0.356905
I4    I     I_    0.244981 0.865546 0.636485 -0.387822
I5    I     I_    0.453909 0.349824 0.063199 -0.275770
I6    I     I_    0.458526 0.646752 0.062908 -0.284570
I7    I     I_    0.940936 0.838209 0.063082 -0.271976
I8    I     I_    0.931675 0.172160 0.062881 -0.284016
I9    I     I_    0.657927 0.267950 0.065305 -0.301690
I10   I     I_    0.657841 0.739191 0.064455 -0.278594
I11   I     I_    0.154309 0.784637 0.065369 -0.312432
I12   I     I_    0.424298 0.347502 0.604773 -0.364690
I13   I     I_    0.149158 0.203532 0.064309 -0.289352
I14   I     I_    0.802121 0.326206 0.365045 -0.345367
I15   I     I_    0.924298 0.847501 0.604774 -0.364671
I16   I     I_    0.514322 0.706101 0.655062 -0.323450
I17   I     I_    0.417874 0.135887 0.460392 -0.319203
I18   I     I_    0.014559 0.206730 0.655457 -0.324252
I19   I     I_    0.917861 0.635892 0.460371 -0.320937
I20   I     I_    0.722173 0.636151 0.617206 -0.357351
O1    O     O_3   0.749980 0.749980 0.500000 -0.494407
O2    O     O_R   0.612630 0.280390 0.456900 -0.643045
O3    O     O_R   0.112630 0.219610 0.456900 -0.625900
O4    O     O_R   0.112630 0.780390 0.456900 -0.642330
O5    O     O_R   0.698160 0.780350 0.335610 -0.634500
O6    O     O_R   0.698160 0.219650 0.335610 -0.627675
O7    O     O_R   0.198160 0.280350 0.335610 -0.636547
O8    O     O_R   0.198160 0.719650 0.335610 -0.628942
O9    O     O_R   0.801810 0.780340 0.664400 -0.622212
O10   O     O_R   0.801810 0.219660 0.664400 -0.628588
O11   O     O_R   0.301810 0.280340 0.664400 -0.622558
O12   O     O_3   0.749980 0.250020 0.500000 -0.493210
O13   O     O_R   0.301810 0.719660 0.664400 -0.629050
O14   O     O_R   0.637430 0.719620 0.335600 -0.630900
O15   O     O_R   0.637430 0.280380 0.335600 -0.619152
O16   O     O_R   0.137430 0.219620 0.335600 -0.629832
O17   O     O_R   0.137430 0.780380 0.335600 -0.618394
O18   O     O_R   0.862530 0.719620 0.664390 -0.614702
O19   O     O_R   0.862530 0.280380 0.664390 -0.608989
O20   O     O_R   0.362530 0.219620 0.664390 -0.614213
O21   O     O_R   0.362530 0.780380 0.664390 -0.608472
O22   O     O_R   0.844250 0.780360 0.456900 -0.616618
O23   O     O_3   0.249980 0.249980 0.500000 -0.494265
O24   O     O_R   0.844250 0.219640 0.456900 -0.616491
O25   O     O_R   0.344250 0.280360 0.456900 -0.617567
O26   O     O_R   0.344250 0.719640 0.456900 -0.617184
O27   O     O_R   0.655730 0.780340 0.543100 -0.627300
O28   O     O_R   0.655730 0.219660 0.543100 -0.622706
O29   O     O_R   0.155730 0.280340 0.543100 -0.627728
O30   O     O_R   0.155730 0.719660 0.543100 -0.623224
O31   O     O_R   0.758810 0.865800 0.456900 -0.626162
O32   O     O_R   0.758810 0.134200 0.456900 -0.637193
O33   O     O_R   0.258810 0.365800 0.456900 -0.626614
O34   O     O_3   0.249980 0.750020 0.500000 -0.493146
O35   O     O_R   0.258810 0.634200 0.456900 -0.637570
O36   O     O_R   0.698070 0.634180 0.456900 -0.616742
O37   O     O_R   0.698070 0.365820 0.456900 -0.623575
O38   O     O_R   0.198070 0.134180 0.456900 -0.616958
O39   O     O_R   0.198070 0.865820 0.456900 -0.623755
O40   O     O_R   0.741180 0.865790 0.543100 -0.636020
O41   O     O_R   0.741180 0.134210 0.543100 -0.639147
O42   O     O_R   0.241180 0.365790 0.543100 -0.635925
O43   O     O_R   0.241180 0.634210 0.543100 -0.639030
O44   O     O_R   0.801890 0.634180 0.543100 -0.610883
O45   O     O_R   0.887340 0.719630 0.543100 -0.608489
O46   O     O_R   0.801890 0.365820 0.543100 -0.606140
O47   O     O_R   0.301890 0.134180 0.543100 -0.610701
O48   O     O_R   0.301890 0.865820 0.543100 -0.605876
O49   O     O_3   0.580808 0.947226 0.225403 -0.705522
O50   O     O_3   0.581013 0.052391 0.225330 -0.703201
O51   O     O_3   0.080872 0.447227 0.225380 -0.707123
O52   O     O_3   0.081072 0.552392 0.225311 -0.704489
O53   O     O_R   0.887340 0.280370 0.543100 -0.609786
O54   O     O_R   0.387340 0.219630 0.543100 -0.607939
O55   O     O_R   0.387340 0.780370 0.543100 -0.609357
O56   O     O_R   0.612630 0.719610 0.456900 -0.626411
Zn1   Zn    Zn3+2 0.824150 0.706610 0.561580 1.048765
Zn2   Zn    Zn3+2 0.737390 0.206640 0.561580 1.005267
Zn3   Zn    Zn3+2 0.237390 0.293360 0.561580 1.011286
Zn4   Zn    Zn3+2 0.237390 0.706640 0.561580 1.004816
Zn5   Zn    Zn3+2 0.675820 0.706600 0.438420 1.012336
Zn6   Zn    Zn3+2 0.675820 0.293400 0.438420 1.014907
Zn7   Zn    Zn3+2 0.175820 0.206600 0.438420 1.013250
Zn8   Zn    Zn3+2 0.175820 0.793400 0.438420 1.015751
Zn9   Zn    Zn3+2 0.824150 0.293390 0.561580 1.049269
Zn10  Zn    Zn3+2 0.324150 0.206610 0.561580 1.049542
Zn11  Zn    Zn3+2 0.324150 0.793390 0.561580 1.049954
Zn12  Zn    Zn3+2 0.762580 0.793370 0.438420 1.009557
Zn13  Zn    Zn3+2 0.762580 0.206630 0.438420 1.012522
Zn14  Zn    Zn3+2 0.262580 0.293370 0.438420 1.007654
Zn15  Zn    Zn3+2 0.262580 0.706630 0.438420 1.011234
Zn16  Zn    Zn3+2 0.737390 0.793360 0.561580 1.011577

loop_
_geom_bond_atom_site_label_1
_geom_bond_atom_site_label_2
_ccdc_geom_bond_type
O34   Zn11  S    
C16   H21   S    
C72   C112  T    
C133  C137  A    
C29   C42   S    
C96   O13   A    
C8    C145  S    
C136  C140  A    
C135  C139  A    
O25   Zn14  S    
C59   C131  A    
C65   O6    A    
C14   C21   A    
C93   O18   A    
C46   C79   S    
C87   O17   A    
C39   O31   A    
C35   H31   S    
C74   C114  T    
C29   C33   A    
C143  O53   A    
C88   I13   S    
C61   C63   S    
C77   H41   S    
O56   Zn5   S    
C146  C150  A    
C47   O48   A    
C19   C20   A    
C77   C88   S    
C63   C105  S    
C116  H2    S    
C40   O41   A    
C66   H30   S    
C59   C60   A    
C101  C103  S    
C21   C22   A    
O45   Zn1   S    
C117  C139  A    
C151  H49   S    
C118  C140  A    
C103  I6    S    
C3    C149  A    
C116  C121  A    
C27   C31   A    
C84   C100  S    
C137  C146  A    
C28   C32   A    
C2    H12   S    
C44   O37   A    
C94   O10   A    
C81   C99   S    
C101  H39   S    
O11   Zn3   S    
C47   C131  S    
C20   O52   S    
O3    Zn7   S    
C7    I19   S    
C78   C82   S    
C75   C86   S    
C16   C20   A    
O1    Zn12  S    
O33   Zn14  S    
C35   C89   S    
C45   C120  S    
C38   O30   A    
C31   H15   S    
C32   H16   S    
C55   H26   S    
C96   O21   A    
C79   C85   S    
C13   H23   S    
O26   Zn15  S    
C66   C103  S    
C100  H38   S    
C69   C95   S    
C17   O49   S    
C85   C90   S    
C4    C150  A    
C35   C78   S    
C5    C151  A    
O44   Zn1   S    
C86   C91   S    
C129  I12   S    
H48   O52   S    
C11   C136  A    
C34   C146  S    
C24   C131  A    
O32   Zn13  S    
O43   Zn4   S    
C49   C53   A    
O23   Zn10  S    
C36   O28   A    
C15   H20   S    
C51   C55   A    
C88   C99   S    
C40   O32   A    
C125  C129  A    
C48   C52   A    
C49   I2    S    
O29   Zn3   S    
C6    I18   S    
O30   Zn4   S    
O19   Zn9   S    
H47   O51   S    
C144  O25   A    
C2    C109  A    
C80   C97   S    
C125  H13   S    
C58   C98   A    
C117  C122  A    
O46   Zn9   S    
O21   Zn11  S    
C64   C102  S    
O22   Zn12  S    
O31   Zn12  S    
C105  I8    S    
C74   C76   S    
O27   Zn16  S    
C23   C29   A    
C62   C80   S    
C15   C25   A    
O53   Zn9   S    
C12   C22   A    
C79   H43   S    
C143  O24   A    
C46   H32   S    
C130  I14   S    
C86   C97   S    
C70   C110  T    
O34   Zn15  S    
C115  C137  A    
C61   C77   S    
C117  H3    S    
C118  H4    S    
C82   C108  S    
O12   Zn9   S    
C150  H45   S    
C119  H5    S    
C124  H11   S    
C98   C142  A    
C145  O55   A    
C43   O36   A    
C62   C104  S    
C139  C148  A    
C1    C72   S    
O12   Zn2   S    
C10   C135  A    
C62   H27   S    
C48   I20   S    
O10   Zn2   S    
C68   C94   S    
C63   H28   S    
C70   C96   S    
C94   O19   A    
C5    C9    A    
C123  C127  A    
C27   C40   S    
C132  C136  A    
C17   C18   A    
C83   C110  S    
C41   O33   A    
C11   C141  S    
O14   Zn5   S    
C26   C30   A    
C127  H10   S    
C141  O45   A    
C121  H6    S    
C2    C142  A    
C52   H22   S    
C56   C109  A    
C13   C120  A    
C52   C53   A    
C54   C55   A    
C83   C101  S    
C57   H33   S    
O2    Zn6   S    
C14   H19   S    
C102  I5    S    
C16   C23   A    
O1    Zn16  S    
C115  C119  A    
O9    Zn16  S    
C50   C60   A    
C57   C75   S    
C85   I10   S    
O8    Zn15  S    
C147  C151  A    
C56   C58   A    
C67   C93   S    
O34   Zn4   S    
C42   O43   A    
C140  C149  A    
O24   Zn13  S    
C18   O50   S    
C81   C107  S    
C3    H51   S    
C130  C135  A    
C33   H17   S    
C84   I9    S    
C25   C28   A    
C15   C19   A    
O23   Zn14  S    
C50   C54   A    
C38   O4    A    
C46   C66   S    
O6    Zn13  S    
C3    C7    A    
C39   O40   A    
O48   Zn11  S    
C30   C31   A    
C26   C39   S    
C126  C130  A    
C87   O8    A    
C28   C41   S    
C61   H35   S    
C73   C113  T    
C24   H34   S    
C78   H42   S    
O13   Zn4   S    
C73   C87   S    
O23   Zn3   S    
C66   C83   S    
C4    I16   S    
C12   C17   A    
C122  H7    S    
C34   O27   A    
C68   C107  T    
O1    Zn1   S    
C126  H9    S    
C38   C149  S    
C61   C92   S    
C95   O20   A    
C124  C128  A    
C6    C152  A    
C44   C109  S    
C21   C27   A    
O35   Zn15  S    
C152  H50   S    
C41   O42   A    
C9    C144  S    
O41   Zn2   S    
O54   Zn10  S    
C148  C152  A    
O7    Zn14  S    
C93   O9    A    
O12   Zn13  S    
O28   Zn2   S    
C36   C147  S    
C77   C81   S    
C115  H52   S    
O20   Zn10  S    
C37   O29   A    
O12   Zn6   S    
C128  I1    S    
O37   Zn6   S    
C36   O2    A    
O39   Zn8   S    
C57   C91   S    
C6    C10   A    
C67   C106  T    
C48   C58   A    
C46   C90   S    
C54   H25   S    
C76   O16   A    
C32   C33   A    
C79   C83   S    
C60   C120  A    
C118  C123  A    
C37   C148  S    
C90   C103  S    
C97   C104  S    
C129  C134  A    
C92   C105  S    
C37   O3    A    
C22   C26   A    
C144  O54   A    
O40   Zn16  S    
O42   Zn3   S    
C97   H36   S    
C5    I17   S    
O16   Zn7   S    
C80   C106  S    
C89   C102  S    
C14   C18   A    
C43   C98   S    
C90   C112  S    
C91   C104  S    
C4    C8    A    
C57   C62   S    
C119  C124  A    
C7    C11   A    
C63   C81   S    
C123  H8    S    
O34   Zn8   S    
O4    Zn8   S    
C127  C132  A    
C121  C125  A    
C86   I11   S    
C19   O51   S    
C88   C92   S    
C71   C111  T    
C35   C64   S    
C75   C80   S    
O18   Zn1   S    
O36   Zn5   S    
C50   I3    S    
O38   Zn7   S    
C142  H1    S    
C95   O11   A    
C69   C108  T    
C116  C138  A    
C99   C105  S    
C145  O26   A    
C30   H14   S    
O23   Zn7   S    
C99   H37   S    
C51   I4    S    
C12   H18   S    
C47   O39   A    
C65   C71   S    
C91   C113  S    
C13   C24   A    
O1    Zn5   S    
C122  C126  A    
C42   O35   A    
C1    O5    A    
C138  C147  A    
C76   O7    A    
C100  C102  S    
C141  O22   A    
C64   C82   S    
C64   H29   S    
O15   Zn6   S    
O55   Zn11  S    
C51   C59   A    
C84   C89   S    
C85   C101  S    
C44   O46   A    
C45   O47   A    
C34   O56   A    
O47   Zn10  S    
C8    C133  A    
C82   C100  S    
O5    Zn12  S    
C134  C138  A    
H46   O50   S    
C1    O14   A    
C49   C56   A    
C89   C111  S    
C132  I15   S    
C75   H40   S    
C43   O44   A    
C128  C133  A    
C9    C134  A    
C45   O38   A    
C10   C143  S    
C23   C25   A    
O17   Zn8   S    
C78   C84   S    
C65   O15   A    
C104  I7    S    
C92   C114  S    
H44   O49   S    
C53   H24   S    
