data_mof_unit_60144.cif
_audit_creation_date              2012-12-10T17:56:56-0500
_audit_creation_method            fapswitch 2.2
_symmetry_space_group_name_H-M    P1
_symmetry_Int_Tables_number       1
_space_group_crystal_system       triclinic
_cell_length_a                    23.670372
_cell_length_b                    30.852511
_cell_length_c                    30.715663
_cell_angle_alpha                 90.043233
_cell_angle_beta                  90.065311
_cell_angle_gamma                 90.037339
_cell_volume                      22431.3284679

loop_
_atom_site_label
_atom_site_type_symbol
_atom_type_description
_atom_site_fract_x
_atom_site_fract_y
_atom_site_fract_z
_atom_type_partial_charge
C1    C     C_R   0.499827 0.690597 0.309453 0.865613
C2    C     C_R   0.500181 0.690606 0.690558 0.864596
C3    C     C_R   0.999162 0.190769 0.309266 0.868689
C4    C     C_R   0.000248 0.190588 0.690511 0.862383
C5    C     C_R   0.998627 0.690805 0.809236 0.857324
C6    C     C_R   0.999826 0.690767 0.190671 0.868153
C7    C     C_R   0.499769 0.190581 0.809497 0.862597
C8    C     C_R   0.500850 0.190778 0.190744 0.866125
C9    C     C_R   0.498442 0.593437 0.408126 -0.103027
C10   C     C_R   0.501642 0.593433 0.591885 -0.104626
C11   C     C_R   0.001763 0.093773 0.407478 -0.140704
C12   C     C_R   0.001174 0.093264 0.591896 -0.107555
C13   C     C_R   0.001321 0.591049 0.904536 -0.150172
C14   C     C_R   0.000902 0.595834 0.090228 -0.139851
C15   C     C_R   0.498911 0.093265 0.908101 -0.107491
C16   C     C_R   0.498281 0.093797 0.092493 -0.140004
C17   C     C_R   0.518043 0.584316 0.366419 -0.133283
C18   C     C_R   0.481577 0.584407 0.633467 -0.131571
C19   C     C_R   0.957627 0.096203 0.377319 -0.103440
C20   C     C_R   0.990476 0.082566 0.635099 -0.123398
C21   C     C_R   0.950329 0.607914 0.888938 -0.049353
C22   C     C_R   0.957512 0.597188 0.121093 -0.091117
C23   C     C_R   0.509382 0.082541 0.864850 -0.123475
C24   C     C_R   0.542303 0.096157 0.122755 -0.104911
C25   C     C_3   0.572442 0.565270 0.351219 -0.462229
C26   C     C_3   0.426879 0.565592 0.648361 -0.464903
C27   C     C_3   0.895181 0.098809 0.383729 -0.434370
C28   C     C_3   0.941474 0.059274 0.654736 -0.479475
C29   C     C_3   0.900260 0.625605 0.912624 -0.423498
C30   C     C_3   0.895062 0.601399 0.114578 -0.435501
C31   C     C_3   0.558221 0.059186 0.845073 -0.478886
C32   C     C_3   0.604783 0.098687 0.116488 -0.432822
C33   C     C_3   0.571587 0.599526 0.315435 0.690016
C34   C     C_3   0.427713 0.599873 0.684172 0.687569
C35   C     C_3   0.894797 0.132680 0.347675 0.651002
C36   C     C_3   0.942515 0.093601 0.690393 0.697006
C37   C     C_3   0.899497 0.661886 0.878956 0.651268
C38   C     C_3   0.895548 0.633884 0.151822 0.648775
C39   C     C_3   0.557168 0.093490 0.809448 0.697215
C40   C     C_3   0.605148 0.132562 0.152587 0.651287
C41   C     C_R   0.526091 0.879778 0.160819 0.065702
C42   C     C_R   0.461069 0.873801 0.844762 -0.031362
C43   C     C_R   0.972399 0.381224 0.163360 -0.020661
C44   C     C_R   0.039471 0.372536 0.845610 0.030407
C45   C     C_R   0.038819 0.873936 0.655307 -0.031269
C46   C     C_R   0.973974 0.879754 0.339165 0.065748
C47   C     C_R   0.535923 0.375842 0.656984 -0.026354
C48   C     C_R   0.463933 0.375694 0.343104 -0.026114
C49   C     C_R   0.493182 0.842465 0.157428 -0.175101
C50   C     C_R   0.502257 0.841688 0.842953 -0.144472
C51   C     C_R   0.000495 0.341847 0.156748 -0.173755
C52   C     C_R   0.997138 0.341456 0.843074 -0.166892
C53   C     C_R   0.997717 0.841707 0.657045 -0.146926
C54   C     C_R   0.006843 0.842464 0.342569 -0.175581
C55   C     C_R   0.497043 0.341902 0.657049 -0.151563
C56   C     C_R   0.502938 0.341887 0.342945 -0.150835
C57   C     C_R   0.458828 0.837423 0.119458 0.041397
C58   C     C_R   0.544122 0.840537 0.876386 0.045182
C59   C     C_R   0.029340 0.335298 0.116157 0.053352
C60   C     C_R   0.953655 0.341791 0.875123 0.050993
C61   C     C_R   0.955904 0.840478 0.623564 0.051336
C62   C     C_R   0.041116 0.837431 0.380567 0.042479
C63   C     C_R   0.457416 0.339325 0.622027 0.051273
C64   C     C_R   0.542666 0.339411 0.377890 0.048226
C65   C     C_R   0.461842 0.869227 0.085873 0.351113
C66   C     C_R   0.542543 0.872175 0.910115 0.360713
C67   C     C_R   0.026742 0.368021 0.083728 0.343764
C68   C     C_R   0.955854 0.373291 0.909003 0.352865
C69   C     C_R   0.957451 0.872134 0.589879 0.360134
C70   C     C_R   0.038044 0.869226 0.414184 0.350401
C71   C     C_R   0.459249 0.371048 0.588399 0.357381
C72   C     C_R   0.540799 0.371111 0.411565 0.357778
C73   C     C_R   0.499335 0.904857 0.089941 -0.191084
C74   C     C_R   0.500270 0.904810 0.909829 -0.194468
C75   C     C_R   0.000734 0.408063 0.092993 -0.178453
C76   C     C_R   0.998903 0.405521 0.909005 -0.211469
C77   C     C_R   0.999671 0.904854 0.590213 -0.194345
C78   C     C_R   0.000601 0.904833 0.410090 -0.191576
C79   C     C_R   0.499604 0.405005 0.590182 -0.193002
C80   C     C_R   0.500344 0.404959 0.409862 -0.193075
C81   C     C_R   0.532233 0.907585 0.127177 -0.075406
C82   C     C_R   0.459182 0.902996 0.877532 -0.074463
C83   C     C_R   0.975828 0.413629 0.133608 -0.016834
C84   C     C_R   0.039592 0.403871 0.876349 0.000944
C85   C     C_R   0.040703 0.903126 0.622557 -0.074694
C86   C     C_R   0.967793 0.907564 0.372821 -0.075735
C87   C     C_R   0.538368 0.404863 0.624106 -0.078050
C88   C     C_R   0.461491 0.404718 0.376006 -0.078214
C89   C     C_R   0.391931 0.750002 0.249952 0.789216
C90   C     C_R   0.391943 0.750012 0.749997 0.833909
C91   C     C_R   0.608070 0.750026 0.249998 0.841690
C92   C     C_R   0.608058 0.749999 0.750029 0.790339
C93   C     C_R   0.891941 0.249528 0.250402 0.846792
C94   C     C_R   0.891942 0.249914 0.749915 0.836911
C95   C     C_R   0.108071 0.250039 0.249992 0.795824
C96   C     C_R   0.108054 0.249892 0.749894 0.791583
C97   C     C_R   0.891932 0.749939 0.750018 0.824126
C98   C     C_R   0.891944 0.749984 0.249976 0.848943
C99   C     C_R   0.108071 0.750047 0.749991 0.795469
C100  C     C_R   0.108056 0.750005 0.250026 0.788552
C101  C     C_R   0.391928 0.250008 0.749953 0.792572
C102  C     C_R   0.391947 0.249989 0.249979 0.793071
C103  C     C_R   0.608069 0.249965 0.750062 0.830313
C104  C     C_R   0.608060 0.249929 0.249974 0.834581
C105  C     C_3   0.576759 0.935320 0.148390 0.223231
C106  C     C_3   0.410394 0.928211 0.858889 0.254481
C107  C     C_3   0.954104 0.447719 0.164343 0.176260
C108  C     C_3   0.091877 0.426196 0.858860 0.226045
C109  C     C_3   0.089422 0.928446 0.641260 0.254650
C110  C     C_3   0.923362 0.935294 0.351581 0.224791
C111  C     C_3   0.584075 0.432137 0.644339 0.251825
C112  C     C_3   0.415671 0.431870 0.355856 0.252593
C113  C     C_3   0.571188 0.901484 0.188121 0.241590
C114  C     C_3   0.408195 0.890708 0.822833 0.254914
C115  C     C_3   0.939637 0.408310 0.196455 0.233570
C116  C     C_3   0.092671 0.387894 0.823374 0.228579
C117  C     C_3   0.091616 0.890984 0.677303 0.253330
C118  C     C_3   0.928973 0.901442 0.311821 0.240488
C119  C     C_3   0.585963 0.395179 0.680919 0.258680
C120  C     C_3   0.413766 0.394866 0.319269 0.256400
C121  C     C_R   0.499992 0.939645 0.941399 0.869421
C122  C     C_R   0.500001 0.939574 0.058425 0.900959
C123  C     C_R   0.999897 0.439710 0.941304 0.908207
C124  C     C_R   0.000056 0.441948 0.060730 0.903701
C125  C     C_R   0.999975 0.939566 0.441589 0.902171
C126  C     C_R   0.999986 0.939663 0.558622 0.870596
C127  C     C_R   0.500000 0.439673 0.441438 0.871791
C128  C     C_R   0.499979 0.439695 0.558587 0.871801
C129  C     C_R   0.499855 0.559961 0.441032 0.874040
C130  C     C_R   0.500170 0.559977 0.558952 0.874610
C131  C     C_R   0.000265 0.060568 0.441311 0.868018
C132  C     C_R   0.000097 0.059663 0.559216 0.857609
C133  C     C_R   0.000307 0.559576 0.940182 0.823440
C134  C     C_R   0.000095 0.562117 0.056859 0.819527
C135  C     C_R   0.499927 0.059655 0.940771 0.857001
C136  C     C_R   0.499756 0.060578 0.058674 0.867957
C137  C     C_R   0.497285 0.809270 0.190712 0.813401
C138  C     C_R   0.500006 0.809155 0.809310 0.800386
C139  C     C_R   0.000482 0.309199 0.190566 0.807217
C140  C     C_R   0.999135 0.309089 0.809326 0.824501
C141  C     C_R   0.999980 0.809166 0.690681 0.802507
C142  C     C_R   0.002737 0.809264 0.309280 0.814546
C143  C     C_R   0.499433 0.309214 0.690666 0.802239
C144  C     C_R   0.500553 0.309204 0.309325 0.801660
C145  C     C_1   0.331041 0.749987 0.249906 -0.158549
C146  C     C_1   0.331056 0.750167 0.750047 -0.120730
C147  C     C_1   0.668961 0.750142 0.249968 -0.111135
C148  C     C_1   0.668952 0.749979 0.750075 -0.149025
C149  C     C_1   0.831043 0.249287 0.250481 -0.098207
C150  C     C_1   0.831048 0.249949 0.749899 -0.121859
C151  C     C_1   0.168969 0.250133 0.250029 -0.160208
C152  C     C_1   0.168939 0.249982 0.749962 -0.160577
C153  C     C_1   0.831047 0.749888 0.750021 -0.108892
C154  C     C_1   0.831057 0.750073 0.249987 -0.098223
C155  C     C_1   0.168965 0.750227 0.749948 -0.155852
C156  C     C_1   0.168945 0.749999 0.250030 -0.159092
C157  C     C_1   0.331032 0.250031 0.749909 -0.160718
C158  C     C_1   0.331063 0.250136 0.250077 -0.159164
C159  C     C_1   0.668957 0.250073 0.750015 -0.121812
C160  C     C_1   0.668953 0.249777 0.250012 -0.098747
C161  C     C_1   0.279949 0.749991 0.249927 0.014512
C162  C     C_1   0.279967 0.750304 0.750026 0.033594
C163  C     C_1   0.720054 0.750195 0.249958 0.047417
C164  C     C_1   0.720046 0.749936 0.750088 0.035132
C165  C     C_1   0.779954 0.249335 0.250379 0.060381
C166  C     C_1   0.779956 0.250036 0.749915 0.036597
C167  C     C_1   0.220065 0.250210 0.250086 0.012943
C168  C     C_1   0.220027 0.250057 0.749982 0.010509
C169  C     C_1   0.779957 0.749891 0.750057 0.053732
C170  C     C_1   0.779966 0.750161 0.249973 0.052801
C171  C     C_1   0.220057 0.750335 0.749964 0.021146
C172  C     C_1   0.220038 0.749997 0.249990 0.014317
C173  C     C_1   0.279937 0.250067 0.749939 0.011850
C174  C     C_1   0.279975 0.250223 0.250119 0.013449
C175  C     C_1   0.720047 0.250103 0.749958 0.040540
C176  C     C_1   0.720046 0.249560 0.250163 0.061770
C177  C     C_R   0.516990 0.615348 0.334168 0.055701
C178  C     C_R   0.482613 0.615447 0.665739 0.061309
C179  C     C_R   0.957422 0.126994 0.344761 0.052041
C180  C     C_R   0.991460 0.113892 0.667205 0.058100
C181  C     C_R   0.949412 0.640538 0.858274 0.019684
C182  C     C_R   0.958054 0.627226 0.154536 0.045552
C183  C     C_R   0.508393 0.113859 0.832764 0.058160
C184  C     C_R   0.542489 0.126949 0.155343 0.050975
C185  C     C_R   0.497010 0.657105 0.342662 -0.147930
C186  C     C_R   0.503024 0.657106 0.657365 -0.147430
C187  C     C_R   0.000592 0.157503 0.342064 -0.123790
C188  C     C_R   0.003126 0.157172 0.657106 -0.154207
C189  C     C_R   0.999496 0.657424 0.841818 -0.115738
C190  C     C_R   0.001339 0.657650 0.157558 -0.127692
C191  C     C_R   0.496938 0.157170 0.842909 -0.154639
C192  C     C_R   0.499424 0.157509 0.157944 -0.123540
C193  C     C_R   0.471051 0.665230 0.383022 -0.220509
C194  C     C_R   0.529467 0.665103 0.617182 -0.220666
C195  C     C_R   0.047800 0.153405 0.369129 -0.231309
C196  C     C_R   0.019945 0.167411 0.614404 -0.215454
C197  C     C_R   0.050514 0.637151 0.852152 -0.224492
C198  C     C_R   0.046895 0.655411 0.128630 -0.229202
C199  C     C_R   0.480397 0.167452 0.885681 -0.213995
C200  C     C_R   0.452305 0.153477 0.130774 -0.230400
C201  C     C_R   0.470832 0.633319 0.415563 0.394690
C202  C     C_R   0.529707 0.633176 0.584626 0.395222
C203  C     C_R   0.049218 0.121461 0.401465 0.419143
C204  C     C_R   0.019310 0.135587 0.581831 0.371156
C205  C     C_R   0.052201 0.604334 0.883566 0.391815
C206  C     C_R   0.047254 0.624588 0.095136 0.384453
C207  C     C_R   0.481051 0.135642 0.918237 0.371995
C208  C     C_R   0.450897 0.121532 0.098411 0.419321
Cu1   Cu    Cu3+1 0.500000 0.780890 0.280900 0.967327
Cu2   Cu    Cu3+1 0.500000 0.780890 0.719100 0.986125
Cu3   Cu    Cu3+1 0.000000 0.280890 0.280900 0.974615
Cu4   Cu    Cu3+1 0.000000 0.280890 0.719100 0.965008
Cu5   Cu    Cu3+1 0.000000 0.780890 0.780900 1.028070
Cu6   Cu    Cu3+1 0.000000 0.780890 0.219100 0.991255
Cu7   Cu    Cu3+1 0.500000 0.280890 0.780900 0.977825
Cu8   Cu    Cu3+1 0.500000 0.280890 0.219100 1.003631
Cu9   Cu    Cu3+1 0.500000 0.719090 0.219090 1.037153
Cu10  Cu    Cu3+1 0.500000 0.719090 0.780910 1.039603
Cu11  Cu    Cu3+1 0.000000 0.219090 0.219090 1.005245
Cu12  Cu    Cu3+1 0.000000 0.219090 0.780910 1.048128
Cu13  Cu    Cu3+1 0.000000 0.719090 0.719090 0.981744
Cu14  Cu    Cu3+1 0.000000 0.719090 0.280910 0.996068
Cu15  Cu    Cu3+1 0.500000 0.219090 0.719090 1.041172
Cu16  Cu    Cu3+1 0.500000 0.219090 0.280910 1.003293
Cu17  Cu    Cu3+1 0.444220 0.999980 0.000000 1.050006
Cu18  Cu    Cu3+1 0.555780 0.999980 0.000000 1.016025
Cu19  Cu    Cu3+1 0.944220 0.499980 0.000000 1.006710
Cu20  Cu    Cu3+1 0.055780 0.499980 0.000000 1.067723
Cu21  Cu    Cu3+1 0.944220 0.999980 0.500000 1.012212
Cu22  Cu    Cu3+1 0.055780 0.999980 0.500000 1.049467
Cu23  Cu    Cu3+1 0.444220 0.499980 0.500000 1.023561
Cu24  Cu    Cu3+1 0.555780 0.499980 0.500000 1.027214
H1    H     H_    0.452024 0.696479 0.389602 0.192840
H2    H     H_    0.548848 0.696265 0.610750 0.193326
H3    H     H_    0.083084 0.175543 0.365634 0.175846
H4    H     H_    0.031876 0.200245 0.605964 0.197791
H5    H     H_    0.089356 0.647935 0.836925 0.176299
H6    H     H_    0.081432 0.678335 0.131411 0.177592
H7    H     H_    0.468662 0.200311 0.894188 0.198431
H8    H     H_    0.417096 0.175664 0.134210 0.176071
H9    H     H_    0.607005 0.569465 0.375409 0.230247
H10   H     H_    0.432116 0.531852 0.660366 0.197208
H11   H     H_    0.566817 0.531544 0.339216 0.197306
H12   H     H_    0.392565 0.569910 0.623993 0.229408
H13   H     H_    0.873776 0.068088 0.374746 0.191786
H14   H     H_    0.953142 0.026317 0.666080 0.197211
H15   H     H_    0.883743 0.111644 0.416391 0.227986
H16   H     H_    0.903335 0.060368 0.633590 0.227782
H17   H     H_    0.863386 0.603365 0.910588 0.215719
H18   H     H_    0.871811 0.571085 0.122099 0.200986
H19   H     H_    0.911017 0.636412 0.946182 0.210536
H20   H     H_    0.884373 0.615708 0.082380 0.220951
H21   H     H_    0.596447 0.060249 0.866133 0.228364
H22   H     H_    0.616393 0.111503 0.083870 0.228804
H23   H     H_    0.546396 0.026236 0.833725 0.197160
H24   H     H_    0.626043 0.067947 0.125480 0.191580
O1    O     O_R   0.500000 0.731000 0.321180 -0.579179
O2    O     O_R   0.500000 0.731000 0.678820 -0.578893
O3    O     O_R   0.000000 0.231000 0.321180 -0.551807
O4    O     O_R   0.000000 0.231000 0.678820 -0.587158
O5    O     O_R   0.000000 0.731000 0.821180 -0.530965
O6    O     O_R   0.000000 0.731000 0.178820 -0.549771
O7    O     O_R   0.500000 0.231000 0.821180 -0.585993
O8    O     O_R   0.500000 0.231000 0.178820 -0.550432
O9    O     O_R   0.500000 0.678810 0.268990 -0.543348
O10   O     O_R   0.500000 0.678810 0.731010 -0.542952
O11   O     O_R   0.000000 0.178810 0.268990 -0.569639
O12   O     O_R   0.000000 0.178810 0.731010 -0.536071
O13   O     O_R   0.000000 0.678810 0.768990 -0.583840
O14   O     O_R   1.000000 0.678810 0.231010 -0.570647
O15   O     O_R   0.500000 0.178810 0.768990 -0.536375
O16   O     O_R   0.500000 0.178810 0.231010 -0.569974
O17   O     O_R   0.418600 0.776080 0.276100 -0.582535
O18   O     O_R   0.418600 0.776080 0.723900 -0.588092
O19   O     O_R   0.581400 0.776080 0.276100 -0.591058
O20   O     O_R   0.581400 0.776080 0.723900 -0.575808
O21   O     O_R   0.918600 0.276080 0.276100 -0.592065
O22   O     O_R   0.918600 0.276080 0.723900 -0.586910
O23   O     O_R   0.081400 0.276080 0.276100 -0.581105
O24   O     O_R   0.081400 0.276080 0.723900 -0.589157
O25   O     O_R   0.918600 0.776080 0.776100 -0.550994
O26   O     O_R   0.918600 0.776080 0.223900 -0.574609
O27   O     O_R   0.081400 0.776080 0.776100 -0.585510
O28   O     O_R   0.081400 0.776080 0.223900 -0.580741
O29   O     O_R   0.418600 0.276080 0.776100 -0.576747
O30   O     O_R   0.418600 0.276080 0.223900 -0.585307
O31   O     O_R   0.581400 0.276080 0.776100 -0.587859
O32   O     O_R   0.581400 0.276080 0.223900 -0.563830
O33   O     O_R   0.418610 0.723900 0.223900 -0.579804
O34   O     O_R   0.418610 0.723900 0.776100 -0.549855
O35   O     O_R   0.581390 0.723900 0.223900 -0.542380
O36   O     O_R   0.581390 0.723900 0.776100 -0.572654
O37   O     O_R   0.918610 0.223900 0.223900 -0.554368
O38   O     O_R   0.918610 0.223900 0.776100 -0.546373
O39   O     O_R   0.081390 0.223900 0.223900 -0.580648
O40   O     O_R   0.081390 0.223900 0.776100 -0.574491
O41   O     O_R   0.918610 0.723900 0.723900 -0.582621
O42   O     O_R   0.918610 0.723900 0.276100 -0.558981
O43   O     O_R   0.081390 0.723900 0.723900 -0.574190
O44   O     O_R   0.081390 0.723900 0.276100 -0.584574
O45   O     O_R   0.418610 0.223900 0.723900 -0.577713
O46   O     O_R   0.418610 0.223900 0.276100 -0.577288
O47   O     O_R   0.581390 0.223900 0.723900 -0.545993
O48   O     O_R   0.581390 0.223900 0.276100 -0.563286
O49   O     O_R   0.500000 0.821170 0.231010 -0.596347
O50   O     O_R   0.500000 0.821170 0.768990 -0.606024
O51   O     O_R   0.000000 0.321170 0.231010 -0.595385
O52   O     O_R   0.000000 0.321170 0.768990 -0.592402
O53   O     O_R   0.000000 0.821170 0.731010 -0.606502
O54   O     O_R   0.000000 0.821170 0.268990 -0.596937
O55   O     O_R   0.500000 0.321170 0.731010 -0.608042
O56   O     O_R   0.500000 0.321170 0.268990 -0.608887
O57   O     O_R   0.500000 0.768980 0.178810 -0.592449
O58   O     O_R   0.500000 0.768980 0.821190 -0.591399
O59   O     O_R   0.000000 0.268980 0.178810 -0.590562
O60   O     O_R   0.000000 0.268980 0.821190 -0.599698
O61   O     O_R   0.000000 0.768980 0.678810 -0.591125
O62   O     O_R   0.000000 0.768980 0.321190 -0.593386
O63   O     O_R   0.500000 0.268980 0.678810 -0.589967
O64   O     O_R   0.500000 0.268980 0.321190 -0.590476
O65   O     O_R   0.452860 0.954900 0.954900 -0.595821
O66   O     O_R   0.452860 0.954900 0.045100 -0.552190
O67   O     O_R   0.547140 0.954900 0.954900 -0.539819
O68   O     O_R   0.547140 0.954900 0.045100 -0.589854
O69   O     O_R   0.952860 0.454900 0.954900 -0.541889
O70   O     O_R   0.952860 0.454900 0.045100 -0.574284
O71   O     O_R   0.047140 0.454900 0.954900 -0.584604
O72   O     O_R   0.047140 0.454900 0.045100 -0.565404
O73   O     O_R   0.952860 0.954900 0.454900 -0.590141
O74   O     O_R   0.952860 0.954900 0.545100 -0.540478
O75   O     O_R   0.047140 0.954900 0.454900 -0.552211
O76   O     O_R   0.047140 0.954900 0.545100 -0.595450
O77   O     O_R   0.452860 0.454900 0.454900 -0.592362
O78   O     O_R   0.452860 0.454900 0.545100 -0.547266
O79   O     O_R   0.547140 0.454900 0.454900 -0.546489
O80   O     O_R   0.547140 0.454900 0.545100 -0.592006
O81   O     O_R   0.452890 0.545070 0.454900 -0.580309
O82   O     O_R   0.452890 0.545070 0.545100 -0.570664
O83   O     O_R   0.547110 0.545070 0.454900 -0.569472
O84   O     O_R   0.547110 0.545070 0.545100 -0.579373
O85   O     O_R   0.952890 0.045070 0.454900 -0.612615
O86   O     O_R   0.952890 0.045070 0.545100 -0.584245
O87   O     O_R   0.047110 0.045070 0.454900 -0.530986
O88   O     O_R   0.047110 0.045070 0.545100 -0.569433
O89   O     O_R   0.952890 0.545070 0.954900 -0.598459
O90   O     O_R   0.952890 0.545070 0.045100 -0.608278
O91   O     O_R   0.047110 0.545070 0.954900 -0.521370
O92   O     O_R   0.047110 0.545070 0.045100 -0.537827
O93   O     O_R   0.452890 0.045070 0.954900 -0.569563
O94   O     O_R   0.452890 0.045070 0.045100 -0.531418
O95   O     O_R   0.547110 0.045070 0.954900 -0.583291
O96   O     O_R   0.547110 0.045070 0.045100 -0.612240
Cl1   Cl    Cl    0.439189 0.645530 0.465965 -0.542865
Cl2   Cl    Cl    0.561938 0.645224 0.534414 -0.539343
Cl3   Cl    Cl    0.109842 0.120138 0.434845 -0.512921
Cl4   Cl    Cl    0.036816 0.150669 0.528311 -0.541065
Cl5   Cl    Cl    0.119668 0.583378 0.895876 -0.580508
Cl6   Cl    Cl    0.104038 0.626254 0.058091 -0.542374
Cl7   Cl    Cl    0.463902 0.150805 0.971819 -0.538662
Cl8   Cl    Cl    0.390394 0.120265 0.064890 -0.512137
Cl9   Cl    Cl    0.628217 0.637758 0.319110 -0.554458
Cl10  Cl    Cl    0.435711 0.577968 0.737558 -0.556224
Cl11  Cl    Cl    0.562927 0.577610 0.262078 -0.549205
Cl12  Cl    Cl    0.371453 0.638339 0.680223 -0.571943
Cl13  Cl    Cl    0.859641 0.115446 0.299257 -0.559216
Cl14  Cl    Cl    0.961905 0.072885 0.742528 -0.551138
Cl15  Cl    Cl    0.873011 0.185261 0.365519 -0.563655
Cl16  Cl    Cl    0.880404 0.126563 0.691830 -0.550346
Cl17  Cl    Cl    0.838925 0.661333 0.844347 -0.582937
Cl18  Cl    Cl    0.860160 0.615381 0.199579 -0.555573
Cl19  Cl    Cl    0.913893 0.714162 0.901550 -0.522318
Cl20  Cl    Cl    0.874588 0.687274 0.135899 -0.558658
Cl21  Cl    Cl    0.619397 0.126376 0.807893 -0.547759
Cl22  Cl    Cl    0.627206 0.185110 0.134862 -0.555400
Cl23  Cl    Cl    0.537495 0.072764 0.757341 -0.554564
Cl24  Cl    Cl    0.640044 0.115292 0.201065 -0.558879
C209  C     C_3   0.416954 0.800240 0.115341 -0.338664
C210  C     C_3   0.439715 0.764055 0.086211 -0.683535
H25   H     H_    0.480711 0.751807 0.098667 0.255619
H26   H     H_    0.409084 0.736794 0.085537 0.230445
H27   H     H_    0.445865 0.775725 0.052402 0.278814
H28   H     H_    0.405874 0.786612 0.147640 0.186889
H29   H     H_    0.376256 0.812225 0.101966 0.235650
C211  C     C_3   0.591800 0.807466 0.875399 -0.337293
C212  C     C_3   0.580046 0.769335 0.905832 -0.678629
H30   H     H_    0.539650 0.753224 0.897187 0.252855
H31   H     H_    0.614691 0.745255 0.903018 0.239589
H32   H     H_    0.577660 0.780263 0.940186 0.278824
H33   H     H_    0.599042 0.794941 0.842003 0.183940
H34   H     H_    0.632383 0.823053 0.884645 0.242152
C213  C     C_3   0.066587 0.295914 0.107822 -0.337230
C214  C     C_3   0.035245 0.260827 0.082170 -0.674983
H35   H     H_    0.062676 0.231834 0.078888 0.225002
H36   H     H_    0.995688 0.251168 0.098886 0.256746
H37   H     H_    0.024327 0.272523 0.049073 0.280527
H38   H     H_    0.105036 0.305545 0.089530 0.231482
H39   H     H_    0.083750 0.282291 0.138491 0.193189
C215  C     C_3   0.903153 0.311289 0.871389 -0.332766
C216  C     C_3   0.860858 0.328195 0.837943 -0.821111
H40   H     H_    0.880789 0.330874 0.805358 0.233690
H41   H     H_    0.824483 0.305565 0.835616 0.247190
H42   H     H_    0.844980 0.360573 0.847960 0.274738
H43   H     H_    0.916252 0.278030 0.862549 0.218015
H44   H     H_    0.880830 0.307079 0.902741 0.259320
C217  C     C_3   0.908324 0.807280 0.624439 -0.339493
C218  C     C_3   0.920271 0.769191 0.593956 -0.699225
H45   H     H_    0.960713 0.753209 0.602618 0.254496
H46   H     H_    0.885711 0.745001 0.596693 0.229579
H47   H     H_    0.922677 0.780135 0.559623 0.279811
H48   H     H_    0.901048 0.794731 0.657805 0.178660
H49   H     H_    0.867713 0.822754 0.615166 0.236605
C219  C     C_3   0.082979 0.800286 0.384677 -0.334409
C220  C     C_3   0.060181 0.764089 0.413751 -0.697621
H50   H     H_    0.019182 0.751813 0.401272 0.255185
H51   H     H_    0.090795 0.736847 0.414393 0.226274
H52   H     H_    0.054027 0.775756 0.447576 0.279104
H53   H     H_    0.094104 0.786658 0.352372 0.186678
H54   H     H_    0.123661 0.812317 0.398098 0.233884
C221  C     C_3   0.411511 0.304770 0.621212 -0.342239
C222  C     C_3   0.427057 0.267167 0.591087 -0.692742
H55   H     H_    0.467818 0.252415 0.600982 0.255611
H56   H     H_    0.393669 0.241928 0.592692 0.229749
H57   H     H_    0.430701 0.278284 0.556875 0.278463
H58   H     H_    0.402853 0.291954 0.654275 0.183779
H59   H     H_    0.370757 0.319100 0.610551 0.234532
C223  C     C_3   0.588720 0.305013 0.378550 -0.338760
C224  C     C_3   0.573455 0.267346 0.408643 -0.686153
H60   H     H_    0.532717 0.252454 0.398822 0.253104
H61   H     H_    0.606942 0.242223 0.406908 0.235731
H62   H     H_    0.569906 0.278434 0.442885 0.277627
H63   H     H_    0.597307 0.292229 0.345446 0.180300
H64   H     H_    0.629452 0.319485 0.389145 0.237181
Cl25  Cl    Cl    0.420343 0.863655 0.038073 -0.645008
Cl26  Cl    Cl    0.592360 0.869766 0.953263 -0.599832
Cl27  Cl    Cl    0.056523 0.359191 0.031414 -0.646061
Cl28  Cl    Cl    0.906130 0.371198 0.952181 -0.580187
Cl29  Cl    Cl    0.907670 0.869640 0.546709 -0.609400
Cl30  Cl    Cl    0.079421 0.863685 0.462040 -0.647283
Cl31  Cl    Cl    0.412192 0.367353 0.543528 -0.635400
Cl32  Cl    Cl    0.587953 0.367524 0.456379 -0.631447
C225  C     C_3   0.634238 0.933160 0.122063 -0.391049
C226  C     C_3   0.661046 0.976119 0.107783 -0.821821
H65   H     H_    0.635006 0.992771 0.082897 0.270689
H66   H     H_    0.668420 0.997508 0.136283 0.251671
H67   H     H_    0.702748 0.969481 0.092628 0.255247
H68   H     H_    0.667841 0.917663 0.141381 0.222274
H69   H     H_    0.628998 0.913158 0.092198 0.235795
C227  C     C_3   0.435158 0.973535 0.845654 -0.413518
C228  C     C_3   0.395260 0.003836 0.820858 -0.780639
H70   H     H_    0.399564 0.999093 0.785306 0.272326
H71   H     H_    0.350602 0.999578 0.830745 0.236052
H72   H     H_    0.407273 0.038013 0.827515 0.256509
H73   H     H_    0.447433 0.990837 0.875966 0.199504
H74   H     H_    0.475249 0.970308 0.827222 0.195827
C229  C     C_3   0.554344 0.983188 0.154045 -0.354657
C230  C     C_3   0.492624 0.990770 0.167784 -0.824927
H75   H     H_    0.463371 0.965640 0.155319 0.251469
H76   H     H_    0.488986 0.993879 0.203505 0.264231
H77   H     H_    0.477829 0.022235 0.154504 0.238712
H78   H     H_    0.557372 0.999395 0.122032 0.221797
H79   H     H_    0.582577 0.001429 0.176408 0.212930
C231  C     C_3   0.358214 0.934028 0.889865 -0.362058
C232  C     C_3   0.346898 0.899234 0.924510 -0.716108
H80   H     H_    0.319081 0.873443 0.911540 0.240579
H81   H     H_    0.386191 0.885036 0.937909 0.285434
H82   H     H_    0.323644 0.914115 0.952123 0.246396
H83   H     H_    0.363147 0.965066 0.907881 0.224967
H84   H     H_    0.319439 0.938369 0.869996 0.175622
C233  C     C_3   0.004800 0.476863 0.180359 -0.468817
C234  C     C_3   0.038724 0.498606 0.144395 -0.761508
H85   H     H_    0.070100 0.475669 0.130616 0.250585
H86   H     H_    0.010355 0.509371 0.118433 0.235331
H87   H     H_    0.061846 0.527070 0.157598 0.247822
H88   H     H_    0.988178 0.502555 0.202295 0.218562
H89   H     H_    0.036453 0.457882 0.198923 0.204661
C235  C     C_3   0.141538 0.428687 0.893000 -0.403078
C236  C     C_3   0.148539 0.391787 0.926240 -0.706878
H90   H     H_    0.107770 0.377332 0.936270 0.279215
H91   H     H_    0.177272 0.366357 0.913890 0.240465
H92   H     H_    0.168938 0.404803 0.956109 0.249064
H93   H     H_    0.135945 0.458436 0.912894 0.240649
H94   H     H_    0.182124 0.434001 0.875711 0.186691
C237  C     C_3   0.903508 0.476907 0.149103 -0.384469
C238  C     C_3   0.864538 0.460390 0.112470 -0.769323
H95   H     H_    0.878323 0.429108 0.098364 0.266134
H96   H     H_    0.820874 0.456305 0.125034 0.233262
H97   H     H_    0.862337 0.484637 0.085796 0.261340
H98   H     H_    0.920295 0.508458 0.137990 0.225008
H99   H     H_    0.877518 0.485188 0.178029 0.206152
C239  C     C_3   0.080927 0.473082 0.840199 -0.380427
C240  C     C_3   0.020065 0.490074 0.842558 -0.798047
H100  H     H_    0.988976 0.466490 0.829737 0.249805
H101  H     H_    0.008877 0.497603 0.876630 0.232376
H102  H     H_    0.016554 0.520502 0.823456 0.247712
H103  H     H_    0.097196 0.476218 0.806676 0.205749
H104  H     H_    0.106781 0.497422 0.857853 0.239011
C241  C     C_3   0.141642 0.934322 0.610332 -0.361285
C242  C     C_3   0.153074 0.899498 0.575699 -0.718761
H105  H     H_    0.180925 0.873788 0.588694 0.240175
H106  H     H_    0.113829 0.885192 0.562268 0.285673
H107  H     H_    0.176337 0.914386 0.548104 0.245836
H108  H     H_    0.136684 0.965323 0.592312 0.224774
H109  H     H_    0.180378 0.938770 0.630238 0.175178
C243  C     C_3   0.945862 0.983162 0.346001 -0.354676
C244  C     C_3   0.007627 0.990744 0.332361 -0.825266
H110  H     H_    0.036812 0.965626 0.344848 0.251442
H111  H     H_    0.011359 0.993831 0.296649 0.264335
H112  H     H_    0.022434 0.022221 0.345687 0.238700
H113  H     H_    0.942775 0.999391 0.378022 0.222027
H114  H     H_    0.917711 0.001386 0.323614 0.212939
C245  C     C_3   0.064576 0.973743 0.654482 -0.413747
C246  C     C_3   0.104389 0.004138 0.679337 -0.780324
H115  H     H_    0.100005 0.999437 0.714882 0.272605
H116  H     H_    0.149074 0.999933 0.669513 0.235710
H117  H     H_    0.092366 0.038288 0.672667 0.256480
H118  H     H_    0.052345 0.990987 0.624159 0.199266
H119  H     H_    0.024447 0.970473 0.672862 0.196012
C247  C     C_3   0.865821 0.933143 0.377828 -0.391485
C248  C     C_3   0.839060 0.976106 0.392133 -0.826362
H120  H     H_    0.865074 0.992755 0.417080 0.271298
H121  H     H_    0.831796 0.997495 0.363654 0.252200
H122  H     H_    0.797309 0.969475 0.407219 0.253109
H123  H     H_    0.870958 0.913147 0.407674 0.234518
H124  H     H_    0.832232 0.917647 0.358444 0.221388
C249  C     C_3   0.637915 0.439483 0.615429 -0.359488
C250  C     C_3   0.653888 0.404667 0.581877 -0.725494
H125  H     H_    0.682492 0.380276 0.596385 0.240745
H126  H     H_    0.616580 0.388670 0.567137 0.281232
H127  H     H_    0.677992 0.420054 0.554995 0.244692
H128  H     H_    0.632256 0.469995 0.596698 0.224442
H129  H     H_    0.674925 0.445643 0.636775 0.175772
C251  C     C_3   0.443955 0.476500 0.344390 -0.410903
C252  C     C_3   0.407616 0.508377 0.318358 -0.785397
H130  H     H_    0.414563 0.504124 0.282992 0.272040
H131  H     H_    0.362071 0.505248 0.326015 0.235962
H132  H     H_    0.420607 0.542070 0.326241 0.253693
H133  H     H_    0.454788 0.492994 0.375465 0.195076
H134  H     H_    0.485282 0.472323 0.327807 0.196734
C253  C     C_3   0.555672 0.476722 0.655763 -0.414073
C254  C     C_3   0.591876 0.508707 0.681867 -0.778601
H135  H     H_    0.584823 0.504489 0.717219 0.272054
H136  H     H_    0.637451 0.505656 0.674296 0.237238
H137  H     H_    0.578855 0.542363 0.673962 0.253758
H138  H     H_    0.544906 0.493153 0.624670 0.195046
H139  H     H_    0.514299 0.472485 0.672269 0.196845
C255  C     C_3   0.361883 0.439137 0.384842 -0.359089
C256  C     C_3   0.346086 0.404350 0.418436 -0.728050
H140  H     H_    0.317507 0.379858 0.403984 0.240328
H141  H     H_    0.383473 0.388476 0.433127 0.281681
H142  H     H_    0.322012 0.419729 0.445348 0.243857
H143  H     H_    0.367509 0.469702 0.403547 0.224044
H144  H     H_    0.324804 0.445163 0.363548 0.174428
C257  C     C_3   0.621660 0.869573 0.197292 -0.458635
C258  C     C_3   0.635790 0.835547 0.162201 -0.812140
H145  H     H_    0.607540 0.807061 0.165220 0.246979
H146  H     H_    0.631782 0.848020 0.128657 0.256417
H147  H     H_    0.679746 0.823947 0.167030 0.251356
H148  H     H_    0.659997 0.888612 0.205663 0.193996
H149  H     H_    0.612147 0.850521 0.227089 0.223993
C259  C     C_3   0.418679 0.905210 0.774927 -0.377999
C260  C     C_3   0.365402 0.922904 0.752579 -0.861863
H150  H     H_    0.340328 0.896040 0.738177 0.240134
H151  H     H_    0.337837 0.940417 0.775842 0.259382
H152  H     H_    0.377524 0.945126 0.725742 0.259468
H153  H     H_    0.453509 0.928989 0.772280 0.212331
H154  H     H_    0.432384 0.876972 0.755444 0.232497
C261  C     C_3   0.551297 0.922195 0.232500 -0.357739
C262  C     C_3   0.488333 0.918616 0.244476 -0.777012
H155  H     H_    0.460083 0.918226 0.215741 0.250452
H156  H     H_    0.480339 0.889348 0.264324 0.267176
H157  H     H_    0.476332 0.946629 0.265213 0.228145
H158  H     H_    0.574772 0.907789 0.260300 0.188792
H159  H     H_    0.564614 0.956534 0.234187 0.201113
C263  C     C_3   0.357872 0.857264 0.825185 -0.369701
C264  C     C_3   0.365591 0.817278 0.854485 -0.822492
H160  H     H_    0.392271 0.792846 0.837945 0.246513
H161  H     H_    0.385338 0.825243 0.886172 0.270404
H162  H     H_    0.323811 0.802106 0.860647 0.247470
H163  H     H_    0.318155 0.874104 0.833855 0.201674
H164  H     H_    0.349713 0.843689 0.792264 0.201118
C265  C     C_3   0.966634 0.413836 0.243172 -0.364439
C266  C     C_3   0.936892 0.393338 0.282272 -0.745189
H165  H     H_    0.892979 0.405493 0.285413 0.240378
H166  H     H_    0.937531 0.357686 0.280840 0.291361
H167  H     H_    0.959751 0.402711 0.312454 0.219581
H168  H     H_    0.011229 0.402650 0.243011 0.203819
H169  H     H_    0.966843 0.448756 0.251712 0.186124
C267  C     C_3   0.143815 0.355217 0.826789 -0.426370
C268  C     C_3   0.133485 0.313052 0.852109 -0.794021
H170  H     H_    0.112135 0.318686 0.883655 0.262387
H171  H     H_    0.107317 0.290638 0.832560 0.249830
H172  H     H_    0.174507 0.296787 0.858455 0.245242
H173  H     H_    0.157787 0.344764 0.793889 0.192533
H174  H     H_    0.182015 0.371477 0.839458 0.210238
C269  C     C_3   0.875311 0.395583 0.196239 -0.333949
C270  C     C_3   0.860344 0.349261 0.209853 -0.789257
H175  H     H_    0.890118 0.325484 0.195865 0.240058
H176  H     H_    0.857593 0.345694 0.245534 0.249926
H177  H     H_    0.817622 0.341056 0.197253 0.231770
H178  H     H_    0.850693 0.418951 0.216125 0.201636
H179  H     H_    0.858899 0.397321 0.162799 0.215437
C271  C     C_3   0.082978 0.399415 0.773988 -0.395329
C272  C     C_3   0.026443 0.419692 0.759867 -0.764995
H180  H     H_    0.990172 0.408031 0.779342 0.255039
H181  H     H_    0.028264 0.455506 0.760575 0.245764
H182  H     H_    0.017873 0.410834 0.725421 0.236442
H183  H     H_    0.118347 0.420002 0.762295 0.183506
H184  H     H_    0.086396 0.368947 0.754856 0.226836
C273  C     C_3   0.142011 0.857649 0.675006 -0.366947
C274  C     C_3   0.134433 0.817605 0.645693 -0.820919
H185  H     H_    0.107789 0.793129 0.662206 0.249630
H186  H     H_    0.114715 0.825479 0.613990 0.268757
H187  H     H_    0.176260 0.802525 0.639566 0.247913
H188  H     H_    0.181711 0.874564 0.666385 0.200739
H189  H     H_    0.150133 0.844136 0.707935 0.204118
C275  C     C_3   0.949002 0.922133 0.267490 -0.358272
C276  C     C_3   0.011991 0.918559 0.255601 -0.775073
H190  H     H_    0.040171 0.918184 0.284376 0.249803
H191  H     H_    0.019995 0.889285 0.235731 0.267347
H192  H     H_    0.024083 0.946566 0.234913 0.228832
H193  H     H_    0.925576 0.907706 0.239643 0.190323
H194  H     H_    0.935736 0.956468 0.265817 0.201374
C277  C     C_3   0.080991 0.905520 0.725200 -0.377447
C278  C     C_3   0.134182 0.923343 0.747635 -0.860156
H195  H     H_    0.159256 0.896544 0.762073 0.240307
H196  H     H_    0.161784 0.940874 0.724418 0.258844
H197  H     H_    0.121956 0.945578 0.774455 0.260367
H198  H     H_    0.046117 0.929235 0.727803 0.212632
H199  H     H_    0.067276 0.877279 0.744652 0.232946
C279  C     C_3   0.878467 0.869529 0.302549 -0.452348
C280  C     C_3   0.864206 0.835516 0.337584 -0.826084
H200  H     H_    0.892432 0.807039 0.334582 0.247375
H201  H     H_    0.868139 0.848007 0.371147 0.256522
H202  H     H_    0.820250 0.823899 0.332675 0.247345
H203  H     H_    0.840179 0.888564 0.294151 0.193433
H204  H     H_    0.888007 0.850466 0.272742 0.223800
C281  C     C_3   0.638478 0.363757 0.681285 -0.363398
C282  C     C_3   0.635669 0.323202 0.652172 -0.825716
H205  H     H_    0.609470 0.297874 0.667770 0.242745
H206  H     H_    0.617777 0.329985 0.619591 0.269189
H207  H     H_    0.678806 0.309699 0.648037 0.246235
H208  H     H_    0.677635 0.382079 0.674204 0.200881
H209  H     H_    0.644907 0.350877 0.714693 0.204982
C283  C     C_3   0.428469 0.409743 0.272132 -0.385853
C284  C     C_3   0.377946 0.429607 0.247928 -0.848524
H210  H     H_    0.352388 0.403850 0.232068 0.244086
H211  H     H_    0.349830 0.447726 0.270307 0.258639
H212  H     H_    0.393234 0.451761 0.222010 0.260529
H213  H     H_    0.464756 0.432351 0.271412 0.210533
H214  H     H_    0.441934 0.381475 0.252645 0.234917
C285  C     C_3   0.571054 0.410079 0.728029 -0.389648
C286  C     C_3   0.621439 0.430093 0.752352 -0.841934
H215  H     H_    0.646987 0.404417 0.768277 0.244093
H216  H     H_    0.649607 0.448239 0.730039 0.259346
H217  H     H_    0.606001 0.452253 0.778231 0.261169
H218  H     H_    0.534714 0.432604 0.728674 0.210301
H219  H     H_    0.557573 0.381805 0.747478 0.234842
C287  C     C_3   0.361344 0.363299 0.319006 -0.360004
C288  C     C_3   0.364356 0.322813 0.348139 -0.824912
H220  H     H_    0.390605 0.297531 0.332520 0.246445
H221  H     H_    0.382309 0.329714 0.380690 0.267855
H222  H     H_    0.321276 0.309192 0.352346 0.245325
H223  H     H_    0.322153 0.381527 0.326143 0.199751
H224  H     H_    0.354863 0.350336 0.285616 0.208074

loop_
_geom_bond_atom_site_label_1
_geom_bond_atom_site_label_2
_ccdc_geom_bond_type
C248  H122  S    
C261  C262  S    
C264  H161  S    
Cu3   O3    S    
C282  H205  S    
C6    O14   A    
C135  O95   A    
C257  C258  S    
C107  C233  S    
C109  C241  S    
C224  H60   S    
C110  C118  S    
C114  C259  S    
C271  H183  S    
C48   C120  S    
C233  C234  S    
C91   O35   A    
C249  H128  S    
C155  C171  T    
C139  O51   A    
Cu22  O88   S    
C222  H55   S    
C288  H221  S    
C286  H216  S    
C137  O57   A    
Cu21  O74   S    
C195  C203  A    
C111  C249  S    
C17   C177  A    
C193  C201  A    
C262  H155  S    
C30   C38   S    
C110  C243  S    
C143  O63   A    
C278  H195  S    
Cu5   O53   S    
C144  O64   A    
C161  C172  S    
C197  H5    S    
C158  C174  T    
C133  O89   A    
C162  C171  S    
C245  H119  S    
C260  H151  S    
C18   C26   S    
C277  H198  S    
Cu8   O30   S    
C8    O8    A    
C93   O21   A    
C69   Cl29  S    
C269  H178  S    
C220  H51   S    
C67   Cl27  S    
C261  H158  S    
C26   C34   S    
C89   O17   A    
C240  H101  S    
C125  O73   A    
C259  H153  S    
C65   Cl25  S    
C194  H2    S    
C39   Cl23  S    
C59   C213  S    
C275  C276  S    
C138  O58   A    
C64   C223  S    
C121  O65   A    
C132  O86   A    
C241  H108  S    
C96   O24   A    
C215  H44   S    
C270  H175  S    
C214  H36   S    
C247  H123  S    
C112  C120  S    
Cu4   O22   S    
C20   C28   S    
C282  H207  S    
C27   C35   S    
C283  H213  S    
C268  H170  S    
C21   C29   S    
C100  O28   A    
C241  H109  S    
C255  H143  S    
C3    C187  S    
C258  H147  S    
C142  O62   A    
C40   Cl22  S    
C217  H48   S    
Cu8   Cu16  S    
Cu15  O15   S    
Cu21  Cu22  S    
C27   H15   S    
C102  O46   A    
C124  O72   A    
Cu1   O1    S    
Cu19  Cu20  S    
C33   Cl11  S    
C238  H96   S    
C37   C181  S    
C246  H115  S    
C12   C20   A    
C266  H167  S    
Cu12  O60   S    
C242  H105  S    
C13   C21   A    
C265  H168  S    
C252  H131  S    
C30   H18   S    
C10   C202  A    
C103  O31   A    
C273  H189  S    
Cu10  O34   S    
C167  C174  S    
Cu4   O24   S    
Cu11  O39   S    
C259  C260  S    
C63   C71   A    
C274  H186  S    
C14   C206  A    
C284  H210  S    
C135  O93   A    
C218  H46   S    
C37   Cl17  S    
C239  C240  S    
C19   C179  A    
C272  H180  S    
C32   C40   S    
C243  C244  S    
C287  C288  S    
C268  H172  S    
C189  C197  A    
C118  C279  S    
C216  H41   S    
Cu22  O76   S    
C245  H118  S    
C12   C132  S    
C86   C110  S    
C253  H138  S    
C13   C133  S    
C222  H57   S    
C41   C113  S    
Cu18  O96   S    
C285  C286  S    
C50   C138  S    
C247  C248  S    
C1    C185  S    
C94   C150  S    
C274  H187  S    
C196  H4    S    
C276  H190  S    
C262  H157  S    
C17   C25   S    
C227  C228  S    
C4    C188  S    
Cu1   Cu9   S    
C209  H28   S    
C80   C88   A    
C217  C218  S    
C275  H194  S    
C117  C273  S    
C133  O91   A    
C145  C161  T    
C8    C192  S    
C151  C167  T    
C91   O19   A    
Cu10  O10   S    
Cu7   O31   S    
C235  H93   S    
C279  H203  S    
Cu8   O32   S    
C265  C266  S    
C221  H59   S    
C99   O43   A    
C5    C189  S    
C178  C186  A    
Cu20  O71   S    
Cu12  O38   S    
C74   C121  S    
C179  C187  A    
C251  C252  S    
C44   C116  S    
C236  H91   S    
C223  C224  S    
C127  O79   A    
C125  O75   A    
C182  C190  A    
C210  H25   S    
C39   Cl21  S    
C78   C125  S    
C68   Cl28  S    
C47   C87   A    
C212  H31   S    
C98   C154  S    
C132  O88   A    
C49   C137  S    
C204  Cl4   S    
C43   C83   A    
C69   C77   A    
C221  C222  S    
C270  H177  S    
C75   C83   A    
C102  C158  S    
C91   C147  S    
C273  C274  S    
Cu18  O68   S    
C225  H68   S    
C223  H64   S    
C259  H154  S    
C224  H61   S    
C154  C170  T    
C128  O78   A    
C263  H163  S    
C134  O92   A    
C105  C113  S    
C219  C220  S    
C40   Cl24  S    
C10   C18   A    
C27   H13   S    
Cu7   O55   S    
C243  H114  S    
Cu8   O56   S    
Cu17  O65   S    
C216  H40   S    
C150  C166  T    
C246  H117  S    
C94   O38   A    
C49   C57   A    
C111  C119  S    
C285  H218  S    
Cu24  O79   S    
Cu4   O52   S    
C163  C170  S    
Cu11  O59   S    
C279  C280  S    
C52   C60   A    
C59   C67   A    
C53   C61   A    
C281  H208  S    
Cu11  O37   S    
C269  C270  S    
Cu20  O91   S    
Cu21  O85   S    
C230  H75   S    
C55   C63   A    
C284  H212  S    
Cu2   O20   S    
C257  H148  S    
C56   C64   A    
C7    O7    A    
C37   Cl19  S    
C227  H74   S    
C206  Cl6   S    
Cu6   Cu14  S    
C130  O84   A    
Cu3   O51   S    
C34   Cl12  S    
C44   C52   A    
C192  C200  A    
C77   C85   A    
C202  Cl2   S    
C249  C250  S    
Cu5   Cu13  S    
C208  Cl8   S    
Cu19  O70   S    
C238  H95   S    
C62   C219  S    
C51   C59   A    
C280  H201  S    
C35   C179  S    
C237  H99   S    
C276  H192  S    
C81   C105  S    
C244  H111  S    
C55   C143  S    
C33   C177  S    
C75   C124  S    
C108  C235  S    
Cu23  O77   S    
C256  H142  S    
C149  C165  T    
C90   O18   A    
C65   C73   A    
C267  H174  S    
Cu6   O54   S    
C234  H85   S    
Cu7   Cu15  S    
Cu1   O19   S    
C123  O69   A    
C156  C172  T    
Cu7   O29   S    
Cu5   O5    S    
C29   H17   S    
C23   C183  A    
C97   O25   A    
C94   O22   A    
Cu12  O40   S    
C237  C238  S    
C28   C36   S    
C107  C115  S    
C92   O36   A    
C48   C88   A    
C127  O77   A    
C93   O37   A    
C6    O6    A    
C28   H14   S    
C269  H179  S    
C66   Cl26  S    
C60   C68   A    
C266  H165  S    
C104  O32   A    
C139  O59   A    
C89   O33   A    
C140  O52   A    
C42   C50   A    
C73   C122  S    
C141  O53   A    
C14   C22   A    
C250  H126  S    
C92   O20   A    
Cu24  O84   S    
C29   C37   S    
C245  C246  S    
C16   C136  S    
C119  C281  S    
C137  O49   A    
C103  O47   A    
C105  C225  S    
C248  H121  S    
C231  H84   S    
C282  H206  S    
C128  O80   A    
C126  O76   A    
C134  O90   A    
Cu9   O57   S    
C186  C194  A    
C257  H149  S    
C234  H87   S    
C143  O55   A    
C3    O3    A    
C271  H184  S    
C25   H9    S    
C24   C184  A    
C68   C76   A    
Cu3   Cu11  S    
C38   C182  S    
C31   H23   S    
Cu16  O64   S    
C203  Cl3   S    
Cu1   O49   S    
C72   C80   A    
Cu21  O73   S    
C211  H33   S    
C88   C112  S    
C230  H77   S    
Cu2   O18   S    
C109  C245  S    
C237  H98   S    
Cu3   O23   S    
C239  H103  S    
C12   C204  A    
C130  O82   A    
C287  H223  S    
C34   Cl10  S    
C67   C75   A    
C18   C178  A    
C104  O48   A    
C260  H150  S    
C118  C275  S    
C253  C254  S    
C31   C39   S    
Cu19  O90   S    
C266  H166  S    
C213  H38   S    
C226  H65   S    
C226  H66   S    
C278  H197  S    
C15   C207  A    
C25   C33   S    
Cu12  O12   S    
C5    O5    A    
C220  H50   S    
C92   C148  S    
C38   Cl20  S    
C246  H116  S    
C93   C149  S    
C256  H140  S    
C36   C180  S    
C115  C269  S    
Cu22  O75   S    
C7    C191  S    
C76   C84   A    
C233  H89   S    
C109  C117  S    
Cu5   O25   S    
C165  C176  S    
C146  C162  T    
C11   C19   A    
C166  C175  S    
Cu16  O46   S    
Cu11  O11   S    
C29   H19   S    
C254  H135  S    
C270  H176  S    
C85   C109  S    
C247  H124  S    
C87   C111  S    
C251  H133  S    
C283  H214  S    
C2    C186  S    
C194  C202  A    
C229  H79   S    
C177  C185  A    
Cu17  O94   S    
C46   C118  S    
C250  H127  S    
C255  C256  S    
C28   H16   S    
Cu9   O33   S    
C180  C188  A    
C181  C189  A    
C121  O67   A    
C285  H219  S    
C288  H220  S    
C99   C155  S    
C232  H82   S    
C242  H106  S    
C184  C192  A    
C97   C153  S    
C22   C30   S    
C273  H188  S    
C60   C215  S    
C100  C156  S    
C268  H171  S    
C264  H162  S    
C101  C157  S    
C229  C230  S    
C252  H130  S    
C126  O74   A    
C115  C265  S    
C195  H3    S    
C74   C82   A    
C238  H97   S    
C71   C79   A    
C235  C236  S    
C152  C168  T    
C1    O1    A    
C25   H11   S    
C242  H107  S    
C3    O11   A    
C249  H129  S    
C57   C209  S    
C32   H24   S    
C50   C58   A    
Cu7   O7    S    
Cu22  O87   S    
C213  C214  S    
C288  H222  S    
C97   O41   A    
C286  H215  S    
Cu8   O8    S    
C197  C205  A    
C200  C208  A    
C31   H21   S    
C231  C232  S    
C54   C62   A    
C198  H6    S    
Cu4   O4    S    
C232  H80   S    
C199  H7    S    
Cu3   O21   S    
C95   O39   A    
Cu17  O66   S    
C89   C145  S    
C200  H8    S    
C58   C211  S    
C236  H90   S    
C66   C74   A    
Cu23  O78   S    
C260  H152  S    
C41   C81   A    
C46   C54   A    
C144  O56   A    
C235  H94   S    
C279  H204  S    
C63   C221  S    
C9    C201  A    
C73   C81   A    
C114  C263  S    
Cu20  O72   S    
C116  C267  S    
C220  H52   S    
Cu9   O9    S    
C10   C130  S    
C229  H78   S    
C38   Cl18  S    
C240  H102  S    
C255  H144  S    
C34   C178  S    
C95   C151  S    
C258  H145  S    
C131  O87   A    
C272  H181  S    
C136  O94   A    
C117  C277  S    
C157  C173  T    
C212  H30   S    
Cu5   O27   S    
C129  O81   A    
Cu15  O47   S    
Cu16  O48   S    
Cu14  O44   S    
C120  C283  S    
C215  H43   S    
Cu6   O6    S    
C254  H137  S    
Cu19  O89   S    
C57   C65   A    
C214  H35   S    
C44   C84   A    
C35   Cl13  S    
C280  H200  S    
C98   O26   A    
C258  H146  S    
Cu13  O61   S    
Cu2   O2    S    
Cu4   Cu12  S    
C5    O13   A    
C263  H164  S    
C108  C116  S    
C210  H27   S    
C7    O15   A    
C217  H49   S    
C272  H182  S    
C43   C51   A    
C271  C272  S    
C61   C217  S    
C90   O34   A    
Cu23  O82   S    
C123  O71   A    
C84   C108  S    
C30   H20   S    
C265  H169  S    
C53   C141  S    
Cu24  O80   S    
C45   C117  S    
C116  C271  S    
C56   C144  S    
C71   Cl31  S    
C213  H39   S    
C15   C135  S    
C72   Cl32  S    
C8    O16   A    
C274  H185  S    
C252  H132  S    
C153  C169  T    
C284  H211  S    
C218  H45   S    
C147  C163  T    
Cu9   O35   S    
C39   C183  S    
C77   C126  S    
C23   C31   S    
C40   C184  S    
C96   C152  S    
C216  H42   S    
C79   C128  S    
Cu14  O62   S    
C120  C287  S    
C102  O30   A    
C70   C78   A    
C277  C278  S    
C42   C82   A    
C286  H217  S    
C103  C159  S    
Cu18  O95   S    
Cu19  O69   S    
C24   C32   S    
C35   Cl15  S    
C248  H120  S    
C20   C180  A    
C253  H139  S    
C21   C181  A    
C276  H191  S    
Cu13  O41   S    
C244  H110  S    
C263  C264  S    
C79   C87   A    
C106  C114  S    
C83   C107  S    
C256  H141  S    
C191  C199  A    
C209  H29   S    
C236  H92   S    
C36   Cl14  S    
C275  H193  S    
C234  H86   S    
Cu16  O16   S    
C222  H56   S    
C140  O60   A    
C141  O61   A    
C241  C242  S    
C43   C115  S    
C111  C253  S    
C41   C49   A    
C112  C251  S    
C82   C106  S    
C262  H156  S    
C283  C284  S    
C211  C212  S    
C58   C66   A    
C106  C231  S    
C240  H100  S    
C131  O85   A    
C19   C27   S    
C193  H1    S    
C205  Cl5   S    
C136  O96   A    
C190  C198  A    
C212  H32   S    
C228  H72   S    
C15   C23   A    
Cu15  O45   S    
C16   C24   A    
C159  C175  T    
Cu14  O42   S    
C201  Cl1   S    
C160  C176  T    
C62   C70   A    
Cu23  O81   S    
C164  C169  S    
C214  H37   S    
C231  H83   S    
C42   C114  S    
Cu18  O67   S    
C225  H69   S    
C223  H63   S    
C168  C173  S    
C224  H62   S    
C110  C247  S    
C95   O23   A    
C148  C164  T    
C101  O29   A    
C129  O83   A    
C105  C229  S    
Cu20  O92   S    
C267  C268  S    
C4    O4    A    
C243  H113  S    
C11   C203  A    
C14   C134  S    
C228  H71   S    
C218  H47   S    
C264  H160  S    
C138  O50   A    
C219  H54   S    
C45   C85   A    
C96   O40   A    
C211  H34   S    
C198  C206  A    
C112  C255  S    
C196  C204  A    
C281  H209  S    
C32   H22   S    
C54   C142  S    
C106  C227  S    
Cu21  O86   S    
C52   C140  S    
C207  Cl7   S    
C6    C190  S    
C199  C207  A    
Cu17  Cu18  S    
C104  C160  S    
C33   Cl9   S    
C239  H104  S    
C227  H73   S    
C122  O68   A    
C209  C210  S    
C113  C261  S    
C122  O66   A    
C287  H224  S    
C22   C182  A    
C9    C17   A    
C2    O2    A    
C219  H53   S    
C228  H70   S    
Cu1   O17   S    
C100  O44   A    
C113  C257  S    
Cu15  O63   S    
C98   O42   A    
Cu13  O13   S    
C47   C55   A    
C280  H202  S    
C61   C69   A    
C48   C56   A    
Cu13  O43   S    
C244  H112  S    
C187  C195  A    
C250  H125  S    
C76   C123  S    
C101  O45   A    
C70   Cl30  S    
C4    O12   A    
C185  C193  A    
C16   C208  A    
C107  C237  S    
C267  H173  S    
C36   Cl16  S    
C233  H88   S    
C26   H10   S    
C183  C191  A    
C80   C127  S    
C9    C129  S    
C2    O10   A    
Cu2   Cu10  S    
C230  H76   S    
C278  H196  S    
C277  H199  S    
C119  C285  S    
C226  H67   S    
C254  H136  S    
C221  H58   S    
C11   C131  S    
C90   C146  S    
Cu2   O50   S    
C78   C86   A    
C225  C226  S    
C281  C282  S    
C251  H134  S    
C261  H159  S    
C47   C119  S    
C142  O54   A    
Cu17  O93   S    
C26   H12   S    
C13   C205  A    
C64   C72   A    
Cu6   O26   S    
C108  C239  S    
C45   C53   A    
Cu14  O14   S    
Cu6   O28   S    
C124  O70   A    
C1    O9    A    
C188  C196  A    
Cu10  O36   S    
Cu23  Cu24  S    
C232  H81   S    
C215  C216  S    
Cu10  O58   S    
Cu24  O83   S    
C210  H26   S    
C51   C139  S    
C46   C86   A    
C99   O27   A    
