data_mof_unit_11892.cif
_audit_creation_date              2012-10-26T20:38:54-0400
_audit_creation_method            fapswitch 2.2
_symmetry_space_group_name_H-M    P1
_symmetry_Int_Tables_number       1
_space_group_crystal_system       triclinic
_cell_length_a                    23.558047
_cell_length_b                    13.012592
_cell_length_c                    11.725824
_cell_angle_alpha                 100.250856
_cell_angle_beta                  94.740424
_cell_angle_gamma                 90.727971
_cell_volume                      3523.71277593

loop_
_atom_site_label
_atom_site_type_symbol
_atom_type_description
_atom_site_fract_x
_atom_site_fract_y
_atom_site_fract_z
_atom_type_partial_charge
C1    C     C_R   0.498046 0.299452 0.478405 0.608919
C2    C     C_R   0.697321 0.538798 0.417981 -0.163181
C3    C     C_R   0.243114 0.452632 0.578576 0.029969
C4    C     C_R   0.756342 0.542681 0.415368 0.049210
C5    C     C_R   0.209195 0.498021 0.497051 0.202542
C6    C     C_R   0.790788 0.499468 0.498368 0.208502
C7    C     C_R   0.501264 0.813640 0.533822 0.056123
C8    C     C_R   0.498877 0.186343 0.466221 0.054133
C9    C     C_R   0.542527 0.027767 0.381262 -0.106290
C10   C     C_R   0.457696 0.972258 0.618848 -0.108638
C11   C     C_R   0.532747 0.132635 0.384663 -0.087704
C12   C     C_R   0.502000 0.700539 0.521599 0.613565
C13   C     C_R   0.467392 0.867370 0.615357 -0.088401
C14   C     C_R   0.471733 0.133847 0.543188 0.019172
C15   C     C_R   0.528520 0.866127 0.456982 0.021688
C16   C     C_R   0.391079 0.502964 0.499754 0.600275
C17   C     C_R   0.608958 0.497003 0.500237 0.597493
C18   C     C_R   0.482268 0.026905 0.541165 0.019312
C19   C     C_R   0.517986 0.973084 0.458966 0.019525
C20   C     C_R   0.443841 0.403884 0.018197 -0.037789
C21   C     C_R   0.556165 0.596094 0.981799 -0.032068
C22   C     C_R   0.450288 0.411665 0.141433 0.159236
C23   C     C_R   0.234771 0.549678 0.416650 0.027482
C24   C     C_R   0.549706 0.588344 0.858569 0.157765
C25   C     C_R   0.523701 0.540903 0.158749 0.030173
C26   C     C_R   0.476312 0.459069 0.841245 0.031281
C27   C     C_R   0.520419 0.534337 0.035498 -0.037404
C28   C     C_R   0.479594 0.465630 0.964496 -0.038890
C29   C     C_R   0.882807 0.585995 0.552521 0.440313
C30   C     C_R   0.117210 0.410841 0.444852 0.449333
C31   C     C_R   0.876735 0.414059 0.440210 0.438192
C32   C     C_R   0.123367 0.582552 0.557540 0.430551
C33   C     C_R   0.936821 0.408262 0.445183 -0.003876
C34   C     C_R   0.765749 0.450696 0.581409 0.008780
C35   C     C_R   0.063294 0.588432 0.552565 0.008028
C36   C     C_R   0.969937 0.498809 0.498153 -0.047520
C37   C     C_R   0.030169 0.497750 0.500152 -0.050308
C38   C     C_R   0.942689 0.590422 0.549096 0.007710
C39   C     C_R   0.057442 0.405984 0.449770 0.013278
C40   C     C_R   0.964486 0.315009 0.400736 -0.055495
C41   C     C_R   0.035687 0.681682 0.597207 0.030262
C42   C     C_R   0.024442 0.313435 0.404476 0.011817
C43   C     C_R   0.975794 0.682735 0.595259 0.026222
C44   C     C_2   0.931774 0.215136 0.357982 0.684049
C45   C     C_R   0.294954 0.555978 0.419224 -0.053424
C46   C     C_2   0.068179 0.781934 0.637081 0.659847
C47   C     C_2   0.587902 0.652050 0.804026 0.368939
C48   C     C_2   0.412056 0.348037 0.195991 0.369177
C49   C     C_2   0.398401 0.334665 0.946181 0.205660
C50   C     C_2   0.601604 0.665311 0.053815 0.194402
C51   C     C_2   0.051911 0.211571 0.370269 0.654266
C52   C     C_2   0.948584 0.784116 0.632775 0.660526
C53   C     C_2   0.198885 0.601352 0.333481 0.288960
C54   C     C_2   0.804010 0.402537 0.663919 0.269530
C55   C     C_2   0.322024 0.615483 0.339882 0.222818
C56   C     C_R   0.705588 0.446460 0.582127 -0.012204
C57   C     C_2   0.678985 0.393368 0.667364 0.300293
C58   C     C_2   0.216758 0.400791 0.665194 0.304847
C59   C     C_2   0.779714 0.592164 0.323538 0.314158
C60   C     C_2   0.568345 0.809553 0.376836 0.235276
C61   C     C_2   0.432014 0.190383 0.623543 0.239131
C62   C     C_R   0.328558 0.506881 0.498972 -0.006807
C63   C     C_R   0.671529 0.492877 0.500581 -0.003799
C64   C     C_R   0.302334 0.457453 0.578230 -0.102132
Cu1   Cu    Cu3+1 0.504210 0.507730 0.615930 1.037277
Cu2   Cu    Cu3+1 0.495790 0.492270 0.384070 1.039000
H1    H     H_    0.446821 0.405106 0.784468 0.137411
H2    H     H_    0.097731 0.893417 0.771826 0.368143
H3    H     H_    0.627881 0.620955 0.775599 0.089613
H4    H     H_    0.372082 0.379202 0.224377 0.099721
H5    H     H_    0.373225 0.361910 0.876321 0.136265
H6    H     H_    0.626815 0.638028 0.123608 0.098568
H7    H     H_    0.102278 0.100589 0.420245 0.377211
H8    H     H_    0.932689 0.898902 0.765041 0.372555
H9    H     H_    0.215542 0.668137 0.301952 0.121087
H10   H     H_    0.846939 0.434047 0.689666 0.133308
H11   H     H_    0.304833 0.608564 0.250022 0.105038
H12   H     H_    0.553198 0.594860 0.215519 0.137707
H13   H     H_    0.695812 0.407782 0.757907 0.136328
H14   H     H_    0.170888 0.398288 0.668233 0.139769
H15   H     H_    0.750955 0.627588 0.265441 0.112476
H16   H     H_    0.566974 0.819600 0.286840 0.124990
H17   H     H_    0.433812 0.180919 0.713783 0.126454
H18   H     H_    0.328468 0.421173 0.639601 0.196615
H19   H     H_    0.670983 0.573362 0.355317 0.144698
H20   H     H_    0.446130 0.826735 0.673625 0.158038
H21   H     H_    0.553949 0.173276 0.326321 0.159148
H22   H     H_    0.570541 0.991449 0.318409 0.138464
H23   H     H_    0.429695 0.008641 0.681708 0.137843
H24   H     H_    0.932407 0.229598 0.189821 0.331274
N1    N     N_R   0.851742 0.500412 0.495851 -0.388970
N2    N     N_R   0.148288 0.496846 0.500343 -0.396475
N3    N     N_R   0.510550 0.519360 0.790130 -0.265644
N4    N     N_R   0.489450 0.480640 0.209870 -0.266141
O1    O     O_R   0.502990 0.354470 0.582000 -0.477623
O2    O     O_2   0.144498 0.331906 0.383253 -0.415752
O3    O     O_2   0.842913 0.334772 0.380503 -0.416671
O4    O     O_2   0.157198 0.661013 0.619004 -0.441221
O5    O     O_2   0.916586 0.163286 0.427706 -0.367003
O6    O     O_R   0.918199 0.179703 0.239097 -0.562549
O7    O     O_2   0.088752 0.826402 0.565991 -0.434288
O8    O     O_R   0.074935 0.825001 0.755528 -0.606110
O9    O     O_2   0.576637 0.742249 0.797578 -0.429762
O10   O     O_2   0.423285 0.257837 0.202505 -0.432504
O11   O     O_2   0.389346 0.246115 0.962583 -0.429044
O12   O     O_R   0.497010 0.645530 0.418000 -0.475641
O13   O     O_2   0.610618 0.753903 0.037489 -0.435878
O14   O     O_2   0.044549 0.164243 0.270098 -0.434912
O15   O     O_R   0.085924 0.170139 0.453524 -0.626017
O16   O     O_2   0.922824 0.827171 0.560380 -0.402140
O17   O     O_R   0.952779 0.829955 0.750444 -0.607302
O18   O     O_2   0.150648 0.569239 0.297489 -0.436317
O19   O     O_2   0.789238 0.324970 0.700236 -0.443810
O20   O     O_2   0.362491 0.675469 0.375369 -0.475083
O21   O     O_2   0.639379 0.330486 0.636281 -0.466120
O22   O     O_2   0.246026 0.360139 0.734834 -0.468887
O23   O     O_R   0.495870 0.341410 0.386200 -0.485281
O24   O     O_2   0.830517 0.593712 0.310156 -0.431947
O25   O     O_2   0.603443 0.751476 0.411527 -0.506718
O26   O     O_2   0.396529 0.247771 0.588702 -0.496940
O27   O     O_R   0.504130 0.658590 0.613800 -0.484417
O28   O     O_R   0.421440 0.506500 0.597920 -0.508444
O29   O     O_R   0.578560 0.493500 0.402080 -0.504146
O30   O     O_R   0.414320 0.493440 0.402120 -0.503158
O31   O     O_R   0.585680 0.506560 0.597880 -0.511357
O32   O     O_2   0.855308 0.665259 0.613034 -0.431532

loop_
_geom_bond_atom_site_label_1
_geom_bond_atom_site_label_2
_ccdc_geom_bond_type
C22   C48   S    
C34   C56   A    
C23   C45   A    
C1    C8    S    
C22   N4    A    
C15   C60   S    
C14   C18   A    
C57   O21   D    
C3    C64   A    
C15   C19   A    
C46   O8    S    
C2    H19   S    
C26   H1    S    
C36   C37   A    
C35   C37   A    
H2    O8    S    
C9    H22   S    
C55   H11   S    
C44   O5    D    
C43   C52   S    
C6    N1    S    
C48   O10   D    
C54   O19   D    
C45   C62   A    
C33   C36   A    
C56   C57   S    
C60   O25   D    
C18   C19   A    
C57   H13   S    
C47   H3    S    
C62   C64   A    
C60   H16   S    
C9    C19   A    
C64   H18   S    
C12   O27   A    
C10   H23   S    
C11   H21   S    
C51   O14   D    
Cu2   O23   S    
C13   H20   S    
C30   O2    S    
C41   C46   S    
C31   C33   A    
Cu1   O27   S    
C40   C44   S    
C58   H14   S    
C42   C51   S    
Cu2   N4    S    
C50   H6    S    
C26   N3    A    
C40   C42   A    
C21   C27   A    
C25   N4    A    
C51   O15   S    
C29   O32   S    
C61   O26   D    
C58   O22   D    
C41   C43   A    
C53   H9    S    
C16   C62   S    
Cu2   O12   S    
H24   O6    S    
C21   C50   S    
C17   O29   A    
C23   C53   S    
C39   C42   A    
C7    C12   S    
C46   O7    D    
C33   C40   A    
C47   O9    D    
Cu1   O1    S    
C25   H12   S    
C32   C35   A    
C16   O28   A    
C4    C6    A    
C61   H17   S    
H8    O17   S    
C49   O11   D    
C20   C28   A    
C52   O17   S    
C14   C61   S    
C6    C34   A    
Cu1   O31   S    
C29   C38   A    
C2    C4    A    
C20   C49   S    
C5    C23   A    
C52   O16   D    
C1    O1    A    
C56   C63   A    
C1    O23   A    
Cu1   O28   S    
C9    C11   A    
C54   H10   S    
C53   O18   D    
C30   N2    A    
C20   C22   A    
C34   C54   S    
C59   O24   D    
C31   N1    A    
C50   O13   D    
Cu2   O30   S    
C29   N1    A    
C2    C63   A    
C8    C14   A    
C24   C47   S    
C59   H15   S    
C48   H4    S    
C3    C5    A    
C10   C13   A    
H7    O15   S    
C55   O20   D    
C25   C27   A    
C26   C28   A    
C36   C38   A    
C16   O30   A    
C38   C43   A    
C37   C39   A    
C24   N3    A    
C17   C63   S    
C12   O12   A    
C44   O6    S    
C17   O31   A    
C32   N2    A    
C10   C18   A    
C8    C11   A    
C4    C59   S    
C7    C15   A    
Cu1   N3    S    
C32   O4    S    
C30   C39   A    
C31   O3    S    
C35   C41   A    
C5    N2    S    
C3    C58   S    
C7    C13   A    
C45   C55   S    
Cu1   Cu2   S    
C49   H5    S    
C21   C24   A    
C27   C28   A    
Cu2   O29   S    
