data_mof_unit_49560.cif
_audit_creation_date              2012-12-10T20:57:55-0500
_audit_creation_method            fapswitch 2.2
_symmetry_space_group_name_H-M    P1
_symmetry_Int_Tables_number       1
_space_group_crystal_system       triclinic
_cell_length_a                    18.203198
_cell_length_b                    18.321716
_cell_length_c                    18.433302
_cell_angle_alpha                 120.154288
_cell_angle_beta                  89.809415
_cell_angle_gamma                 119.942538
_cell_volume                      4347.94637823

loop_
_atom_site_label
_atom_site_type_symbol
_atom_type_description
_atom_site_fract_x
_atom_site_fract_y
_atom_site_fract_z
_atom_type_partial_charge
C1    C     C_R   0.358330 0.220051 0.360859 0.809558
C2    C     C_3   0.802920 0.943299 0.726553 -0.151251
C3    C     C_2   0.098740 0.296170 0.087868 0.359931
C4    C     C_2   0.163167 0.151564 0.867693 0.361218
C5    C     C_2   0.046486 0.228543 0.688657 0.448935
C6    C     C_3   0.699802 0.897898 0.701544 -0.067690
C7    C     C_R   0.641181 0.781060 0.640563 0.774926
C8    C     C_3   0.800049 0.103068 0.808295 0.067332
C9    C     C_3   0.725518 0.056465 0.845495 -0.126615
C10   C     C_3   0.860099 0.062177 0.798606 -0.124103
C11   C     C_3   0.671039 0.385099 0.234475 -0.192871
C12   C     C_3   0.727046 0.384220 0.169683 -0.130113
C13   C     C_3   0.686627 0.537835 0.249351 -0.423848
C14   C     C_3   0.798969 0.570085 0.360178 -0.437076
C15   C     C_3   0.275772 0.574344 0.358527 -0.538917
C16   C     C_3   0.698369 0.497770 0.302314 0.065567
C17   C     C_3   0.800097 0.497340 0.200552 0.176136
C18   C     C_3   0.749080 0.541495 0.192247 -0.535509
C19   C     C_R   0.358993 0.500288 0.640343 0.783304
C20   C     C_3   0.858954 0.569062 0.300910 -0.035328
C21   C     C_R   0.442338 0.181633 0.568451 -0.136566
C22   C     C_R   0.412893 0.137957 0.477234 0.025407
C23   C     C_R   0.323961 0.098553 0.436675 0.016762
C24   C     C_R   0.266711 0.102807 0.487357 -0.145260
C25   C     C_R   0.296085 0.145840 0.578158 0.056605
C26   C     C_3   0.305105 0.502313 0.299660 0.096794
C27   C     C_R   0.384571 0.185261 0.618765 0.018857
C28   C     C_R   0.233864 0.944261 0.285434 -0.251358
C29   C     C_R   0.192611 0.892052 0.195188 -0.078984
C30   C     C_R   0.203169 0.947480 0.158772 -0.044460
C31   C     C_R   0.640691 0.499841 0.359628 0.800803
C32   C     C_R   0.253576 0.055021 0.214642 0.042464
C33   C     C_R   0.299242 0.107423 0.305144 -0.058575
C34   C     C_R   0.287283 0.050813 0.340830 -0.057841
C35   C     C_R   0.209726 0.877190 0.002704 0.036543
C36   C     C_R   0.166564 0.821299 0.910929 0.067077
C37   C     C_3   0.198564 0.499961 0.199368 0.065393
C38   C     C_R   0.075992 0.782417 0.880448 -0.118345
C39   C     C_R   0.029256 0.800459 0.939993 -0.145961
C40   C     C_R   0.072024 0.857261 0.030725 -0.166846
C41   C     C_R   0.161779 0.895138 0.062708 0.114211
C42   C     C_R   0.876042 0.510877 0.508062 -0.205616
C43   C     C_R   0.641767 0.499055 0.639033 0.784960
C44   C     C_R   0.818987 0.482385 0.553475 0.085018
C45   C     C_R   0.829549 0.559154 0.638649 0.059333
C46   C     C_R   0.895241 0.664600 0.675998 0.105471
C47   C     C_R   0.952727 0.691881 0.628655 0.159376
C48   C     C_3   0.149908 0.391235 0.183146 -0.232550
C49   C     C_R   0.942647 0.614472 0.545588 -0.176134
C50   C     C_R   0.835261 0.529280 0.752465 -0.245157
C51   C     C_R   0.798596 0.498264 0.806479 -0.052119
C52   C     C_R   0.709465 0.465963 0.804268 0.000372
C53   C     C_R   0.660566 0.468220 0.748961 -0.252014
C54   C     C_R   0.697463 0.499266 0.694855 -0.044353
C55   C     C_R   0.360139 0.501639 0.359182 0.886892
C56   C     C_R   0.785652 0.529550 0.696091 0.011151
C57   C     C_R   0.631928 0.333154 0.836417 -0.087780
C58   C     C_R   0.584215 0.298784 0.884682 -0.165893
C59   C     C_3   0.217856 0.577922 0.300840 -0.108923
C60   C     C_R   0.566008 0.361202 0.953799 -0.184508
C61   C     C_R   0.595940 0.458805 0.975244 0.155648
C62   C     C_R   0.645735 0.494202 0.928342 -0.166940
C63   C     C_R   0.664799 0.432094 0.859245 0.076298
C64   C     C_R   0.397378 0.808705 0.731049 -0.138595
C65   C     C_R   0.374165 0.739934 0.754201 -0.136345
C66   C     C_R   0.295710 0.639134 0.700244 0.158211
C67   C     C_3   0.359248 0.544930 0.245534 -0.035166
C68   C     C_R   0.240437 0.608132 0.623438 -0.076677
C69   C     C_R   0.263976 0.677148 0.600492 -0.077437
C70   C     C_3   0.685331 0.943225 0.654282 -0.158374
C71   C     C_R   0.342512 0.777235 0.654101 -0.052082
C72   C     C_R   0.218024 0.562447 0.777041 -0.233727
C73   C     C_R   0.193427 0.496433 0.803694 -0.083811
C74   C     C_R   0.222589 0.430559 0.774892 -0.008530
C75   C     C_R   0.275702 0.433407 0.720969 -0.193011
C76   C     C_R   0.301452 0.500557 0.695625 -0.066736
C77   C     C_R   0.271855 0.565814 0.723824 -0.021696
C78   C     C_R   0.272582 0.387542 0.864742 0.164974
C79   C     C_3   0.290904 0.534859 0.181563 -0.202283
C80   C     C_R   0.258403 0.318294 0.885157 -0.298987
C81   C     C_3   0.751739 0.062907 0.713871 -0.528267
C82   C     C_R   0.175920 0.222365 0.844186 -0.012209
C83   C     C_R   0.107305 0.194394 0.780554 -0.066987
C84   C     C_R   0.119876 0.261842 0.758120 0.004511
C85   C     C_R   0.203188 0.359799 0.801227 0.032076
C86   C     C_R   0.857218 0.499150 0.142724 0.814934
C87   C     C_R   0.138228 0.499139 0.861317 0.786325
C88   C     C_R   0.857002 0.219338 0.863993 0.739280
C89   C     C_R   0.137831 0.779813 0.141030 0.797301
C90   C     C_R   0.855671 0.500710 0.863212 0.800867
C91   C     C_3   0.215441 0.390866 0.237080 -0.116141
C92   C     C_3   0.677085 0.936925 0.789476 -0.392312
C93   C     C_R   0.139117 0.499360 0.142686 0.814036
C94   C     C_2   0.407493 0.497744 0.193254 0.386848
C95   C     C_2   0.589809 0.911529 0.630468 0.489114
C96   C     C_2   0.827039 0.890046 0.753165 0.490651
C97   C     C_2   0.437408 0.658392 0.310769 0.287014
C98   C     C_2   0.759366 0.109605 0.944996 0.405708
C99   C     C_2   0.675285 0.337244 0.280236 0.382102
C100  C     C_2   0.474942 0.133893 0.425279 0.382989
C101  C     C_2   0.234132 0.149035 0.630169 0.372668
C102  C     C_2   0.215405 0.802385 0.846722 0.345131
H1    H     H_    0.152294 0.552150 0.313348 0.161024
H2    H     H_    0.913876 0.098347 0.774582 0.178521
H3    H     H_    0.696628 0.913488 0.826685 0.206347
H4    H     H_    0.599380 0.336961 0.192986 0.175401
H5    H     H_    0.679461 0.345455 0.104100 0.162978
H6    H     H_    0.615628 0.486494 0.205416 0.198124
H7    H     H_    0.318427 0.611858 0.195561 0.133841
H8    H     H_    0.708608 0.496492 0.121760 0.200732
H9    H     H_    0.818510 0.650532 0.406261 0.197120
H10   H     H_    0.809541 0.548270 0.403328 0.180308
H11   H     H_    0.902899 0.649281 0.318932 0.158614
H12   H     H_    0.182316 0.371279 0.281755 0.125664
H13   H     H_    0.702275 0.616366 0.295776 0.190905
H14   H     H_    0.797537 0.622532 0.214067 0.182192
H15   H     H_    0.510300 0.212640 0.601043 0.174505
H16   H     H_    0.198684 0.072191 0.455323 0.183925
H17   H     H_    0.225095 0.901879 0.313559 0.184466
H18   H     H_    0.041253 0.737208 0.810214 0.176298
H19   H     H_    0.959268 0.769307 0.915822 0.165322
H20   H     H_    0.034611 0.869552 0.076071 0.130104
H21   H     H_    0.987652 0.634882 0.510283 0.150739
H22   H     H_    0.870175 0.452095 0.444160 0.149576
H23   H     H_    0.095531 0.383764 0.213318 0.146107
H24   H     H_    0.902876 0.551683 0.752604 0.172459
H25   H     H_    0.593107 0.446249 0.748790 0.164218
H26   H     H_    0.643104 0.282734 0.781147 0.134973
H27   H     H_    0.559999 0.222973 0.867484 0.132488
H28   H     H_    0.527914 0.333448 0.990064 0.137073
H29   H     H_    0.668109 0.569216 0.944505 0.145825
H30   H     H_    0.360699 0.830489 0.636176 0.121454
H31   H     H_    0.457817 0.886417 0.772799 0.110583
H32   H     H_    0.417282 0.764863 0.813728 0.125644
H33   H     H_    0.179654 0.530632 0.581340 0.109764
H34   H     H_    0.700838 0.913580 0.591202 0.178178
H35   H     H_    0.221287 0.653153 0.541277 0.108694
H36   H     H_    0.195895 0.612835 0.798248 0.186637
H37   H     H_    0.297823 0.382926 0.699583 0.178807
H38   H     H_    0.312128 0.339130 0.932989 0.127663
H39   H     H_    0.235598 0.544710 0.394766 0.162562
H40   H     H_    0.044596 0.118753 0.746946 0.199054
H41   H     H_    0.334860 0.653446 0.411234 0.243190
H42   H     H_    0.450959 0.533171 0.163794 0.036029
H43   H     H_    0.561379 0.936083 0.682127 0.030181
H44   H     H_    0.809586 0.883832 0.807073 0.068521
H45   H     H_    0.802690 0.087087 0.682325 0.216187
H46   H     H_    0.448019 0.716557 0.301623 0.079743
H47   H     H_    0.929802 0.166018 0.935327 0.230447
H48   H     H_    0.958311 0.085232 0.879732 0.237428
H49   H     H_    0.790083 0.191833 0.989879 0.066098
H50   H     H_    0.738184 0.370517 0.325150 0.069308
H51   H     H_    0.709725 0.245915 0.120260 0.209743
H52   H     H_    0.801482 0.345831 0.210514 0.199916
H53   H     H_    0.889600 0.493878 0.337740 0.162069
H54   H     H_    0.977324 0.610040 0.368965 0.185724
H55   H     H_    0.470838 0.304354 0.743527 0.199340
H56   H     H_    0.716453 0.099600 0.718814 0.179884
H57   H     H_    0.437114 0.186835 0.716219 0.194854
H58   H     H_    0.453462 0.102003 0.355299 0.087213
H59   H     H_    0.267409 0.400404 0.069598 0.181019
H60   H     H_    0.334552 0.507981 0.073197 0.164002
H61   H     H_    0.256878 0.183546 0.700620 0.107351
H62   H     H_    0.282444 0.096789 0.128938 0.197798
H63   H     H_    0.189453 0.085574 0.155362 0.183044
H64   H     H_    0.340001 0.992206 0.080304 0.200144
H65   H     H_    0.302061 0.878925 0.065844 0.202509
H66   H     H_    0.285029 0.831017 0.869482 0.101391
H67   H     H_    0.603491 0.898579 0.775259 0.153478
H68   H     H_    0.238105 0.305090 0.123297 0.215535
H69   H     H_    0.175040 0.239536 0.163387 0.206305
H70   H     H_    0.765092 0.356418 0.555182 0.213324
H71   H     H_    0.689865 0.361894 0.508031 0.217131
H72   H     H_    0.844985 0.735428 0.760623 0.229375
H73   H     H_    0.956060 0.815800 0.785492 0.224899
H74   H     H_    0.997469 0.838652 0.676120 0.264366
H75   H     H_    0.067786 0.827994 0.724564 0.212331
H76   H     H_    0.600454 0.535533 0.102699 0.186926
H77   H     H_    0.504644 0.479336 0.026624 0.169768
H78   H     H_    0.674590 0.070369 0.835732 0.102999
H79   H     H_    0.120032 0.295641 0.032882 0.113282
H80   H     H_    0.403623 0.492083 0.947833 0.174492
H81   H     H_    0.348081 0.542794 0.948384 0.185238
H82   H     H_    0.216489 0.175868 0.918715 0.068804
H83   H     H_    0.055209 0.278971 0.669806 0.056694
H84   H     H_    0.253020 0.725494 0.389002 0.193765
H85   H     H_    0.326932 0.721263 0.335860 0.188762
H86   H     H_    0.821335 0.930940 0.665549 0.174505
N1    N     N_3   0.903137 0.089539 0.884208 -0.399827
N2    N     N_3   0.904919 0.740750 0.763465 -0.484420
N3    N     N_3   0.024355 0.796583 0.664520 -0.442511
N4    N     N_3   0.574540 0.521678 0.043287 -0.472085
N5    N     N_3   0.357948 0.485727 0.906942 -0.453919
N6    N     N_3   0.258491 0.683702 0.327145 -0.420289
N7    N     N_3   0.763438 0.323299 0.152158 -0.462670
N8    N     N_3   0.918248 0.542424 0.317013 -0.435484
N9    N     N_3   0.415560 0.227770 0.710968 -0.489351
N10   N     N_3   0.277281 0.468885 0.086658 -0.438013
N11   N     N_3   0.255214 0.111067 0.180418 -0.408336
N12   N     N_3   0.300685 0.912136 0.033900 -0.496847
N13   N     N_3   0.230968 0.311153 0.181826 -0.366591
N14   N     N_3   0.753010 0.374839 0.513374 -0.417963
O1    O     O_3   0.500000 0.500000 0.500000 -0.503499
O2    O     O_R   0.113800 0.731630 0.056520 -0.637285
O3    O     O_R   0.819390 0.439310 0.886160 -0.643028
O4    O     O_R   0.383400 0.268380 0.323710 -0.604216
O5    O     O_R   0.115110 0.560720 0.179280 -0.625437
O6    O     O_R   0.941380 0.560750 0.885620 -0.641950
O7    O     O_R   0.115110 0.439270 0.057830 -0.644234
O8    O     O_R   0.942690 0.268390 0.886930 -0.654829
O9    O     O_R   0.114340 0.731630 0.178520 -0.645618
O10   O     O_R   0.820160 0.439310 0.057830 -0.648398
O11   O     O_R   0.113800 0.560730 0.885620 -0.642944
O12   O     O_R   0.383400 0.560740 0.616060 -0.647713
O13   O     O_R   0.555060 0.731630 0.615290 -0.614336
O14   O     O_R   0.383950 0.439280 0.616600 -0.647510
O15   O     O_R   0.677590 0.560710 0.444390 -0.642287
O16   O     O_R   0.556370 0.439260 0.616600 -0.643084
O17   O     O_R   0.382640 0.439290 0.322940 -0.568961
O18   O     O_R   0.678360 0.560700 0.616060 -0.644403
O19   O     O_R   0.382640 0.560750 0.444390 -0.639959
O20   O     O_2   0.400266 0.422859 0.182238 -0.557256
O21   O     O_2   0.544149 0.859281 0.552933 -0.535183
O22   O     O_2   0.866759 0.853722 0.713644 -0.592994
O23   O     O_R   0.555060 0.439270 0.322940 -0.614663
O24   O     O_2   0.493576 0.685246 0.371502 -0.529222
O25   O     O_2   0.751963 0.062394 0.976497 -0.547005
O26   O     O_2   0.607389 0.260469 0.267193 -0.567367
O27   O     O_2   0.551085 0.165969 0.460007 -0.581685
O28   O     O_2   0.156663 0.112884 0.594887 -0.573712
O29   O     O_2   0.178494 0.754650 0.767343 -0.591099
O30   O     O_2   0.033468 0.215939 0.072357 -0.574442
O31   O     O_2   0.093394 0.065449 0.830523 -0.580845
O32   O     O_2   0.974978 0.143899 0.651281 -0.597181
O33   O     O_R   0.383950 0.268380 0.445700 -0.650548
O34   O     O_R   0.677590 0.731610 0.615290 -0.625235
O35   O     O_3   0.997750 0.500010 0.002220 -0.482565
O36   O     O_R   0.942690 0.560750 0.179280 -0.636676
O37   O     O_R   0.114340 0.439270 0.886160 -0.646499
O38   O     O_R   0.820160 0.268410 0.886930 -0.652586
Zn1   Zn    Zn3+2 0.456040 0.586770 0.543190 1.002057
Zn2   Zn    Zn3+2 0.456820 0.413240 0.543960 0.965915
Zn3   Zn    Zn3+2 0.631110 0.586750 0.543190 1.003164
Zn4   Zn    Zn3+2 0.456040 0.413240 0.369660 1.049514
Zn5   Zn    Zn3+2 0.041710 0.413240 0.959030 0.966182
Zn6   Zn    Zn3+2 0.866640 0.413270 0.959030 0.960428
Zn7   Zn    Zn3+2 0.040930 0.586780 0.958260 0.971778
Zn8   Zn    Zn3+2 0.041710 0.586770 0.132560 0.973507

loop_
_geom_bond_atom_site_label_1
_geom_bond_atom_site_label_2
_ccdc_geom_bond_type
C66   C68   A    
C92   H3    S    
C9    C98   S    
H75   N3    S    
C4    O31   D    
C35   C36   A    
C95   H43   S    
C5    H83   S    
C26   C55   S    
H73   N2    S    
C29   C89   S    
C42   H22   S    
C47   C49   A    
O1    Zn2   S    
O19   Zn1   S    
C45   C46   A    
C52   C53   A    
O23   Zn4   S    
C14   H10   S    
C37   C79   S    
C72   C77   A    
H59   N10   S    
O12   Zn1   S    
C26   C67   S    
O34   Zn3   S    
C11   C99   S    
C28   C29   A    
H54   N8    S    
C86   O10   A    
C32   N11   S    
H63   N11   S    
C51   C90   S    
C18   H14   S    
C38   C39   A    
C78   C80   A    
O1    Zn3   S    
C58   H27   S    
C58   C60   A    
C88   O38   A    
C3    C48   S    
C17   C20   S    
O17   Zn4   S    
O35   Zn7   S    
C36   C102  S    
C19   O14   A    
C73   C74   A    
C64   C71   A    
C69   C71   A    
C70   C81   S    
C73   C87   S    
H68   N13   S    
C21   H15   S    
H53   N8    S    
C53   H25   S    
C86   O36   A    
C48   H23   S    
C64   H31   S    
C2    C10   S    
H77   N4    S    
C43   O18   A    
C45   C56   S    
C8    C9    S    
C81   H45   S    
C48   C91   S    
C27   N9    S    
C12   C17   S    
C67   C94   S    
H65   N12   S    
C30   C41   S    
C101  O28   D    
C50   H24   S    
C97   H46   S    
C50   C56   A    
C99   O26   D    
C52   C63   S    
H62   N11   S    
C55   O19   A    
C38   H18   S    
C72   H36   S    
C97   O24   D    
C21   C27   A    
C28   C34   A    
C10   H2    S    
C79   N10   S    
C88   O8    A    
C21   C22   A    
O5    Zn8   S    
C44   N14   S    
C2    C6    S    
C42   C44   A    
C46   N2    S    
C13   H6    S    
C37   C93   S    
C9    C92   S    
C35   N12   S    
C57   C63   A    
H64   N12   S    
C98   H49   S    
C59   N6    S    
C69   H35   S    
C14   H9    S    
O18   Zn3   S    
C54   C56   A    
O13   Zn1   S    
C10   N1    S    
C22   C100  S    
C74   C75   A    
C79   H7    S    
C1    C33   S    
C8    C81   S    
C14   C20   S    
C101  H61   S    
C87   O37   A    
C24   C25   A    
C80   C82   A    
O3    Zn6   S    
C60   H28   S    
C39   C40   A    
C5    C84   S    
C68   C69   A    
H74   N3    S    
C55   O17   A    
O1    Zn4   S    
C96   O22   D    
C26   C91   S    
C53   C54   A    
O38   Zn6   S    
C95   O21   D    
C71   H30   S    
O35   Zn8   S    
C60   C61   A    
C16   C31   S    
C78   N5    S    
O11   Zn7   S    
O9    Zn8   S    
H69   N13   S    
C75   C76   A    
O15   Zn3   S    
O33   Zn2   S    
C29   C30   A    
C70   H34   S    
C61   N4    S    
C90   O3    A    
H76   N4    S    
C11   C16   S    
C100  H58   S    
C43   C54   S    
C83   C84   A    
H51   N7    S    
C92   H67   S    
C23   C24   A    
C23   C34   S    
C62   C63   A    
C17   C18   S    
C87   O11   A    
O35   Zn5   S    
C50   C51   A    
H80   N5    S    
C37   C59   S    
C84   C85   A    
C37   C48   S    
H70   N14   S    
C1    O4    A    
C3    H79   S    
C12   H5    S    
C13   H13   S    
C9    H78   S    
H72   N2    S    
C90   O6    A    
H52   N7    S    
C13   C18   S    
C78   C85   A    
O10   Zn6   S    
C40   C41   A    
C65   C66   A    
C17   C86   S    
C31   O23   A    
H85   N6    S    
C93   O7    A    
C102  O29   D    
C57   H26   S    
C14   C16   S    
C43   O16   A    
C89   O9    A    
C93   O5    A    
O7    Zn5   S    
C40   H20   S    
C44   C45   A    
C100  O27   D    
C98   O25   D    
C6    C70   S    
C66   C77   S    
C46   C47   A    
C19   C76   S    
C102  H66   S    
C81   H56   S    
C15   C59   S    
C62   H29   S    
H84   N6    S    
C68   H33   S    
O4    Zn4   S    
C18   H8    S    
C91   N13   S    
C72   C73   A    
C15   C26   S    
C28   H17   S    
C3    O30   D    
C83   H40   S    
C11   C12   S    
C6    C7    S    
O1    Zn1   S    
C25   C27   A    
C96   H44   S    
C99   H50   S    
H60   N10   S    
H47   N1    S    
C39   H19   S    
C91   H12   S    
O37   Zn5   S    
C5    O32   D    
C19   O12   A    
C94   H42   S    
C12   N7    S    
C36   C38   A    
C70   C95   S    
O6    Zn7   S    
C59   H1    S    
C51   C52   A    
C80   H38   S    
C32   C33   A    
H48   N1    S    
C30   C32   A    
C76   C77   A    
O14   Zn2   S    
C25   C101  S    
C57   C58   A    
C20   H11   S    
C11   H4    S    
C1    O33   A    
C6    C92   S    
C64   C65   A    
C2    C96   S    
C24   H16   S    
H81   N5    S    
C33   C34   A    
O35   Zn6   S    
C7    O34   A    
C65   H32   S    
H55   N9    S    
O16   Zn2   S    
C74   C85   S    
C47   N3    S    
C61   C62   A    
C35   C41   A    
C2    H86   S    
C4    H82   S    
O2    Zn7   S    
C67   C97   S    
C42   C49   A    
C15   H41   S    
H57   N9    S    
C89   O2    A    
C4    C82   S    
C8    C10   S    
C82   C83   A    
C13   C16   S    
O36   Zn8   S    
C94   O20   D    
C15   H39   S    
C22   C23   A    
H71   N14   S    
C75   H37   S    
O8    Zn5   S    
C8    C88   S    
C20   N8    S    
C67   C79   S    
C7    O13   A    
C31   O15   A    
C49   H21   S    
