data_mof_unit_22508.cif
_audit_creation_date              2013-03-05T16:05:38-0500
_audit_creation_method            fapswitch 2.2
_symmetry_space_group_name_H-M    P1
_symmetry_Int_Tables_number       1
_space_group_crystal_system       triclinic
_cell_length_a                    15.870083
_cell_length_b                    10.809816
_cell_length_c                    9.520409
_cell_angle_alpha                 89.965426
_cell_angle_beta                  90.018439
_cell_angle_gamma                 90.159082
_cell_volume                      1633.24497497

loop_
_atom_site_label
_atom_site_type_symbol
_atom_site_description
_atom_site_fract_x
_atom_site_fract_y
_atom_site_fract_z
_atom_type_partial_charge
O1    O     O_R   0.500000 0.319660 0.618740 -0.592291
O2    O     O_R   0.500000 0.680340 0.381260 -0.592291
O3    O     O_R   0.499990 0.319630 0.381170 -0.550654
O4    O     O_R   0.500010 0.680370 0.618830 -0.550655
C1    C     C_R   0.502467 0.262291 0.499989 0.859933
C2    C     C_R   0.497533 0.737709 0.500010 0.859934
O5    O     O_R   0.379080 0.500000 0.618760 -0.553174
O6    O     O_R   0.620920 0.500000 0.381240 -0.553171
O7    O     O_R   0.379080 0.499970 0.381190 -0.593113
O8    O     O_R   0.620920 0.500030 0.618810 -0.593111
C3    C     C_R   0.339773 0.499867 0.499954 0.839059
C4    C     C_R   0.660226 0.500133 0.500046 0.839059
Cu1   Cu    Cu3+1 0.500000 0.500020 0.640660 1.007668
Cu2   Cu    Cu3+1 0.500000 0.499980 0.359340 1.007669
C5    C     C_3   0.971889 0.424182 0.603638 -0.294996
C6    C     C_3   0.028110 0.575812 0.396364 -0.294781
C7    C     C_3   0.027651 0.382919 0.477901 -0.298622
C8    C     C_3   0.972350 0.617075 0.522100 -0.298408
H1    H     H_    0.051492 0.288013 0.458526 0.163558
H2    H     H_    0.948518 0.711981 0.541505 0.163636
H3    H     H_    0.947725 0.363714 0.688961 0.163297
H4    H     H_    0.052267 0.636255 0.311013 0.163353
C9    C     C_1   0.250080 0.499796 0.499855 -0.128414
C10   C     C_1   0.749919 0.500204 0.500145 -0.128408
C11   C     C_3   0.027798 0.539953 0.622160 0.595318
C12   C     C_3   0.972201 0.460044 0.377841 0.595363
C13   C     C_3   0.082892 0.499480 0.498799 0.045411
C14   C     C_3   0.917108 0.500518 0.501202 0.045407
C15   C     C_1   0.174546 0.499681 0.499525 0.029740
C16   C     C_1   0.825453 0.500318 0.500475 0.029748
C17   C     C_R   0.547566 0.061685 0.395604 0.352761
C18   C     C_R   0.452434 0.938315 0.604396 0.352759
C19   C     C_R   0.541458 0.933419 0.395308 -0.276465
C20   C     C_R   0.458542 0.066581 0.604692 -0.276465
H5    H     H_    0.575899 0.881263 0.316928 0.191702
H6    H     H_    0.424101 0.118737 0.683072 0.191701
C21   C     C_R   0.495486 0.871600 0.499444 -0.198058
C22   C     C_R   0.504514 0.128400 0.500556 -0.198058
C23   C     C_R   0.447332 0.423453 0.074394 0.027580
C24   C     C_R   0.552668 0.576547 0.925606 0.027585
H7    H     H_    0.405195 0.362038 0.130450 0.125120
H8    H     H_    0.594805 0.637962 0.869550 0.125123
C25   C     C_R   0.447345 0.423492 0.925580 0.022434
C26   C     C_R   0.552655 0.576507 0.074420 0.022439
H9    H     H_    0.405220 0.362097 0.869496 0.124124
H10   H     H_    0.594779 0.637903 0.130503 0.124129
N1    N     N_R   0.500020 0.500030 0.852070 -0.167350
N2    N     N_R   0.499980 0.499970 0.147930 -0.167350
O9    O     O_3   0.936391 0.418813 0.250491 -0.559719
C27   C     C_3   0.001187 0.385545 0.156907 -0.286804
H11   H     H_    0.038629 0.306768 0.198371 0.162921
H12   H     H_    0.042969 0.465530 0.132791 0.153340
H13   H     H_    0.972175 0.355021 0.056691 0.195808
O10   O     O_3   0.063607 0.581291 0.749468 -0.559703
C28   C     C_3   0.998791 0.613832 0.843356 -0.286288
H14   H     H_    0.957626 0.533251 0.867950 0.153326
H15   H     H_    0.960680 0.691959 0.801916 0.162569
H16   H     H_    0.027831 0.644995 0.943311 0.196025
N3    N     N_R   0.600643 0.121586 0.293596 0.132559
O11   O     O_R   0.653097 0.207791 0.332454 -0.349165
O12   O     O_R   0.606074 0.077438 0.166752 -0.344029
N4    N     N_R   0.399357 0.878414 0.706404 0.132561
O13   O     O_R   0.346903 0.792208 0.667546 -0.349148
O14   O     O_R   0.393926 0.922563 0.833247 -0.344027

loop_
_geom_bond_atom_site_label_1
_geom_bond_atom_site_label_2
_geom_bond_distance
_ccdc_geom_bond_type
C24   N1    1.367067 A    
C27   H12   1.112044 S    
O7    Cu2   1.930319 S    
C17   C19   1.389652 A    
C8    C14   1.545884 S    
N4    O13   1.301574 A    
O3    Cu2   1.960473 S    
C11   C13   1.529257 S    
O7    C3    1.291519 A    
C4    C10   1.423432 S    
C12   C14   1.529252 S    
C17   C22   1.410434 A    
C24   C26   1.416769 A    
O6    C4    1.291514 A    
C6    C13   1.546041 S    
C14   C16   1.454571 S    
C27   H11   1.111900 S    
C2    C21   1.447798 S    
C18   N4    1.438302 S    
N3    O11   1.301575 A    
C23   H7    1.081697 S    
C20   C22   1.399541 A    
C18   C21   1.410434 A    
C12   O9    1.410817 S    
O5    C3    1.291514 A    
C25   H9    1.081763 S    
C5    C14   1.546061 S    
O2    C2    1.290455 A    
C8    C11   1.542534 S    
O8    C4    1.291517 A    
O1    C1    1.290455 A    
C7    C12   1.542562 S    
C9    C15   1.198731 T    
O4    C2    1.290203 A    
C19   H5    1.084406 S    
C20   H6    1.084405 S    
C26   H10   1.081762 S    
C25   N1    1.367097 A    
C8    H2    1.110009 S    
C28   H15   1.112204 S    
C6    C12   1.542219 S    
O2    Cu2   1.960919 S    
C10   C16   1.198730 T    
C28   H14   1.112238 S    
N3    O12   1.301718 A    
C27   H13   1.109237 S    
C13   C15   1.454571 S    
N4    O14   1.301718 A    
C7    C13   1.545903 S    
C26   N2    1.367097 A    
C5    H3    1.110096 S    
O1    Cu1   1.960920 S    
C11   O10   1.410830 S    
C5    C11   1.542251 S    
C6    C8    1.555147 S    
O9    C27   1.408407 S    
C28   H16   1.109369 S    
C17   N3    1.438302 S    
C3    C9    1.423432 S    
C5    C7    1.555168 S    
Cu2   N2    2.012710 S    
O10   C28   1.408464 S    
C23   N2    1.367066 A    
C23   C25   1.416770 A    
O5    Cu1   1.930238 S    
O6    Cu2   1.930236 S    
Cu1   Cu2   2.678282 S    
C7    H1    1.110006 S    
C1    C22   1.447798 S    
Cu1   N1    2.012710 S    
C19   C21   1.399541 A    
O4    Cu1   1.960471 S    
C6    H4    1.110101 S    
C24   H8    1.081698 S    
O3    C1    1.290201 A    
O8    Cu1   1.930319 S    
C18   C20   1.389652 A    
