data_mof_unit_11446.cif
_audit_creation_date              2012-12-11T15:37:32-0500
_audit_creation_method            fapswitch 2.2
_symmetry_space_group_name_H-M    P1
_symmetry_Int_Tables_number       1
_space_group_crystal_system       triclinic
_cell_length_a                    17.274446
_cell_length_b                    24.315541
_cell_length_c                    14.694765
_cell_angle_alpha                 90.000163
_cell_angle_beta                  125.684021
_cell_angle_gamma                 89.999757
_cell_volume                      5013.4699715

loop_
_atom_site_label
_atom_site_type_symbol
_atom_type_description
_atom_site_fract_x
_atom_site_fract_y
_atom_site_fract_z
_atom_type_partial_charge
C1    C     C_R   0.850819 0.652618 0.907315 -0.134759
C2    C     C_3   0.576812 0.500001 0.653999 0.040700
C3    C     C_3   0.054001 0.999985 0.535323 -0.257080
C4    C     C_1   0.516469 0.406294 0.686278 0.039745
C5    C     C_1   0.471629 0.594513 0.440152 0.026848
C6    C     C_1   0.471612 0.405466 0.440192 0.026829
C7    C     C_1   0.516481 0.593726 0.686234 0.039728
C8    C     C_1   0.016465 0.906300 0.686290 0.039749
C9    C     C_1   0.971635 0.094506 0.440141 0.026854
C10   C     C_1   0.971607 0.905459 0.440203 0.026825
C11   C     C_1   0.016485 0.093731 0.686222 0.039723
C12   C     C_1   0.823038 0.401735 0.461041 0.043696
C13   C     C_3   0.904533 0.999998 0.466477 0.039403
C14   C     C_1   0.839091 0.598425 0.279954 0.057219
C15   C     C_1   0.839076 0.401582 0.279936 0.057223
C16   C     C_1   0.823030 0.598263 0.461042 0.043705
C17   C     C_1   0.323019 0.901742 0.461033 0.043702
C18   C     C_1   0.339087 0.098423 0.279948 0.057221
C19   C     C_1   0.339083 0.901580 0.279945 0.057220
C20   C     C_1   0.323036 0.098265 0.461044 0.043704
C21   C     C_3   0.076811 0.000001 0.653999 0.040700
C22   C     C_R   0.788905 0.232696 0.897292 -0.158297
C23   C     C_R   0.342699 0.685716 0.098958 -0.158765
C24   C     C_R   0.342701 0.314285 0.098961 -0.158766
C25   C     C_R   0.788907 0.767305 0.897293 -0.158294
C26   C     C_R   0.288903 0.732697 0.897291 -0.158298
C27   C     C_R   0.842698 0.185717 0.098959 -0.158764
C28   C     C_R   0.842701 0.814286 0.098961 -0.158765
C29   C     C_R   0.190794 0.374286 0.092618 -0.121563
C30   C     C_R   0.288907 0.267305 0.897293 -0.158293
C31   C     C_R   0.240002 0.687405 0.896313 -0.161496
C32   C     C_R   0.890989 0.231424 0.100150 -0.156185
C33   C     C_R   0.890991 0.768578 0.100151 -0.156183
C34   C     C_R   0.240006 0.312597 0.896315 -0.161494
C35   C     C_R   0.740004 0.187404 0.896313 -0.161495
C36   C     C_R   0.390989 0.731423 0.100149 -0.156184
C37   C     C_R   0.390991 0.268578 0.100151 -0.156183
C38   C     C_R   0.740007 0.812597 0.896315 -0.161494
C39   C     C_R   0.260103 0.667691 0.997415 0.134733
C40   C     C_R   0.190793 0.625715 0.092618 -0.121563
C41   C     C_R   0.857893 0.258314 0.999463 0.133735
C42   C     C_R   0.857895 0.741687 0.999464 0.133733
C43   C     C_R   0.260106 0.332311 0.997417 0.134732
C44   C     C_R   0.760104 0.167691 0.997416 0.134732
C45   C     C_R   0.357893 0.758314 0.999462 0.133735
C46   C     C_R   0.357895 0.241687 0.999464 0.133733
C47   C     C_R   0.760107 0.832311 0.997417 0.134732
C48   C     C_R   0.857707 0.450495 0.438814 -0.009774
C49   C     C_R   0.865105 0.549509 0.348475 -0.016411
C50   C     C_R   0.865103 0.450494 0.348470 -0.016417
C51   C     C_R   0.850818 0.347383 0.907314 -0.134761
C52   C     C_R   0.857704 0.549505 0.438815 -0.009780
C53   C     C_R   0.357706 0.950497 0.438816 -0.009781
C54   C     C_R   0.365107 0.049509 0.348475 -0.016415
C55   C     C_R   0.365106 0.950494 0.348475 -0.016414
C56   C     C_R   0.357708 0.049507 0.438817 -0.009779
C57   C     C_R   0.889057 0.500002 0.319921 -0.015886
C58   C     C_R   0.874617 0.500000 0.498396 -0.022947
C59   C     C_R   0.389060 0.000001 0.319924 -0.015885
C60   C     C_R   0.374618 0.000002 0.498397 -0.022945
C61   C     C_R   0.945246 0.348278 0.093406 -0.125502
C62   C     C_R   0.350819 0.152618 0.907315 -0.134758
C63   C     C_R   0.095776 0.624127 0.904911 -0.120742
C64   C     C_R   0.095777 0.375874 0.904911 -0.120741
C65   C     C_R   0.945246 0.651722 0.093407 -0.125502
C66   C     C_R   0.445245 0.848278 0.093406 -0.125501
C67   C     C_R   0.595776 0.124127 0.904911 -0.120743
C68   C     C_R   0.595777 0.875874 0.904911 -0.120742
C69   C     C_R   0.445246 0.151722 0.093407 -0.125501
C70   C     C_R   0.980496 0.546114 0.249976 -0.125517
C71   C     C_R   0.943975 0.454379 0.690792 -0.141756
C72   C     C_R   0.943975 0.545620 0.690793 -0.141751
C73   C     C_R   0.690794 0.874286 0.092618 -0.121563
C74   C     C_R   0.980496 0.453887 0.249975 -0.125514
C75   C     C_R   0.480497 0.046114 0.249977 -0.125516
C76   C     C_R   0.443974 0.954380 0.690792 -0.141753
C77   C     C_R   0.443976 0.045621 0.690793 -0.141752
C78   C     C_R   0.480497 0.953887 0.249977 -0.125515
C79   C     C_R   0.732771 0.454465 0.759416 -0.118931
C80   C     C_R   0.261246 0.545516 0.300704 -0.138724
C81   C     C_R   0.261245 0.454484 0.300703 -0.138727
C82   C     C_R   0.732771 0.545536 0.759414 -0.118923
C83   C     C_R   0.232771 0.954465 0.759417 -0.118932
C84   C     C_R   0.690793 0.125715 0.092618 -0.121563
C85   C     C_R   0.761246 0.045515 0.300704 -0.138723
C86   C     C_R   0.761245 0.954483 0.300702 -0.138728
C87   C     C_R   0.232771 0.045536 0.759414 -0.118921
C88   C     C_R   0.882710 0.684149 0.000611 0.054316
C89   C     C_R   0.186810 0.361994 0.997907 0.042896
C90   C     C_R   0.186809 0.638007 0.997906 0.042896
C91   C     C_R   0.882710 0.315852 0.000610 0.054316
C92   C     C_R   0.382710 0.184149 0.000611 0.054315
C93   C     C_R   0.686810 0.861994 0.997907 0.042895
C94   C     C_R   0.686809 0.138008 0.997907 0.042897
C95   C     C_R   0.350818 0.847383 0.907314 -0.134762
C96   C     C_R   0.382709 0.815852 0.000610 0.054316
C97   C     C_R   0.945640 0.500001 0.272543 0.081253
C98   C     C_R   0.919983 0.500000 0.621805 0.087702
C99   C     C_R   0.445642 0.000000 0.272545 0.081253
C100  C     C_R   0.419983 0.000001 0.621805 0.087702
C101  C     C_R   0.677911 0.500001 0.739977 0.066132
C102  C     C_R   0.313246 0.499999 0.358560 0.077602
C103  C     C_R   0.177911 0.000001 0.739977 0.066131
C104  C     C_R   0.813246 0.999999 0.358560 0.077603
C105  C     C_3   0.502441 0.455099 0.619445 0.043748
C106  C     C_3   0.404533 0.499999 0.466477 0.039403
C107  C     C_3   0.479540 0.544840 0.501820 0.050611
C108  C     C_3   0.479533 0.455149 0.501839 0.050614
C109  C     C_3   0.502448 0.544910 0.619426 0.043751
C110  C     C_3   0.002439 0.955101 0.619451 0.043747
C111  C     C_3   0.979543 0.044837 0.501815 0.050610
C112  C     C_3   0.979531 0.955146 0.501845 0.050614
C113  C     C_3   0.002450 0.044913 0.619420 0.043752
C114  C     C_3   0.425738 0.500008 0.584330 -0.264986
C115  C     C_3   0.554002 0.499991 0.535323 -0.257080
C116  C     C_3   0.925738 0.000013 0.584330 -0.264985
H1    H     H_    0.812481 0.666256 0.821459 0.089910
H2    H     H_    0.067410 0.629035 0.817786 0.094668
H3    H     H_    0.067412 0.370966 0.817786 0.094669
H4    H     H_    0.993118 0.665608 0.179021 0.087259
H5    H     H_    0.493116 0.834392 0.179020 0.087259
H6    H     H_    0.567411 0.129036 0.817786 0.094668
H7    H     H_    0.567412 0.870966 0.817786 0.094669
H8    H     H_    0.493117 0.165608 0.179021 0.087259
H9    H     H_    0.973208 0.588712 0.262920 0.110897
H10   H     H_    0.928716 0.411958 0.666187 0.108187
H11   H     H_    0.928719 0.588042 0.666188 0.108184
H12   H     H_    0.249089 0.367852 0.179002 0.099838
H13   H     H_    0.973205 0.411290 0.262920 0.110895
H14   H     H_    0.473209 0.088711 0.262923 0.110896
H15   H     H_    0.428715 0.911958 0.666184 0.108183
H16   H     H_    0.428719 0.088043 0.666189 0.108185
H17   H     H_    0.473207 0.911289 0.262921 0.110895
H18   H     H_    0.709737 0.412091 0.743145 0.110359
H19   H     H_    0.274506 0.587351 0.331211 0.102573
H20   H     H_    0.274503 0.412648 0.331209 0.102578
H21   H     H_    0.709737 0.587910 0.743142 0.110359
H22   H     H_    0.209736 0.912092 0.743146 0.110359
H23   H     H_    0.249088 0.632148 0.179002 0.099835
H24   H     H_    0.774507 0.087351 0.331212 0.102571
H25   H     H_    0.774502 0.912648 0.331209 0.102580
H26   H     H_    0.209738 0.087910 0.743142 0.110359
H27   H     H_    0.371357 0.500016 0.601920 0.142929
H28   H     H_    0.606875 0.499984 0.515212 0.148618
H29   H     H_    0.871357 0.000024 0.601921 0.142928
H30   H     H_    0.106875 0.999974 0.515213 0.148618
H31   H     H_    0.765275 0.250196 0.817448 0.111500
H32   H     H_    0.364624 0.668707 0.178429 0.125218
H33   H     H_    0.364627 0.331294 0.178431 0.125214
H34   H     H_    0.812480 0.333745 0.821458 0.089910
H35   H     H_    0.765277 0.749805 0.817449 0.111500
H36   H     H_    0.265271 0.750197 0.817447 0.111499
H37   H     H_    0.864622 0.168709 0.178430 0.125219
H38   H     H_    0.864627 0.831294 0.178432 0.125213
H39   H     H_    0.265276 0.249805 0.817449 0.111500
H40   H     H_    0.180638 0.672038 0.816228 0.111539
H41   H     H_    0.947724 0.248201 0.180351 0.114948
H42   H     H_    0.947726 0.751800 0.180352 0.114949
H43   H     H_    0.180643 0.327965 0.816230 0.111539
H44   H     H_    0.680641 0.172036 0.816229 0.111539
H45   H     H_    0.312481 0.166256 0.821459 0.089910
H46   H     H_    0.447726 0.748200 0.180350 0.114948
H47   H     H_    0.447727 0.251800 0.180351 0.114948
H48   H     H_    0.680644 0.827965 0.816230 0.111539
H49   H     H_    0.749089 0.867853 0.179002 0.099838
H50   H     H_    0.749088 0.132148 0.179002 0.099834
H51   H     H_    0.312480 0.833745 0.821458 0.089910
H52   H     H_    0.993117 0.334392 0.179020 0.087259
N1    N     N_R   0.892620 0.603790 0.941800 -0.038998
N2    N     N_R   0.047790 0.602400 0.942090 -0.040637
N3    N     N_R   0.047790 0.397600 0.942090 -0.040637
N4    N     N_R   0.952210 0.602400 0.057910 -0.038852
N5    N     N_R   0.452210 0.897600 0.057910 -0.038852
N6    N     N_R   0.547790 0.102400 0.942090 -0.040637
N7    N     N_R   0.547790 0.897600 0.942090 -0.040637
N8    N     N_R   0.452210 0.102400 0.057910 -0.038852
N9    N     N_R   0.026300 0.529110 0.206760 -0.045547
N10   N     N_R   0.973700 0.470890 0.793240 -0.042405
N11   N     N_R   0.973700 0.529110 0.793240 -0.042405
N12   N     N_R   0.107380 0.396210 0.058200 -0.041695
N13   N     N_R   0.026300 0.470890 0.206760 -0.045547
N14   N     N_R   0.526300 0.029110 0.206760 -0.045547
N15   N     N_R   0.473700 0.970890 0.793240 -0.042405
N16   N     N_R   0.473700 0.029110 0.793240 -0.042405
N17   N     N_R   0.526300 0.970890 0.206760 -0.045547
N18   N     N_R   0.818530 0.472270 0.792960 -0.044340
N19   N     N_R   0.181470 0.527730 0.207040 -0.040344
N20   N     N_R   0.181470 0.472270 0.207040 -0.040345
N21   N     N_R   0.818530 0.527730 0.792960 -0.044341
N22   N     N_R   0.318530 0.972270 0.792960 -0.044340
N23   N     N_R   0.107380 0.603790 0.058200 -0.041695
N24   N     N_R   0.681470 0.027730 0.207040 -0.040344
N25   N     N_R   0.681470 0.972270 0.207040 -0.040345
N26   N     N_R   0.318530 0.027730 0.792960 -0.044341
N27   N     N_1   0.527670 0.367809 0.739011 -0.082431
N28   N     N_1   0.465836 0.633787 0.392134 -0.103929
N29   N     N_1   0.465811 0.366182 0.392190 -0.103928
N30   N     N_1   0.527687 0.632221 0.738949 -0.082438
N31   N     N_1   0.027665 0.867817 0.739028 -0.082429
N32   N     N_1   0.965844 0.133779 0.392119 -0.103929
N33   N     N_1   0.965803 0.866173 0.392205 -0.103928
N34   N     N_R   0.892620 0.396210 0.941800 -0.038997
N35   N     N_1   0.027692 0.132229 0.738932 -0.082440
N36   N     N_1   0.794646 0.362704 0.477642 -0.093991
N37   N     N_1   0.817711 0.637537 0.225258 -0.085155
N38   N     N_1   0.817685 0.362474 0.225227 -0.085152
N39   N     N_1   0.794632 0.637292 0.477643 -0.093988
N40   N     N_1   0.294610 0.862716 0.477624 -0.093988
N41   N     N_1   0.317701 0.137533 0.225246 -0.085153
N42   N     N_1   0.317693 0.862471 0.225240 -0.085153
N43   N     N_1   0.294641 0.137296 0.477644 -0.093988
N44   N     N_R   0.392620 0.103790 0.941800 -0.038998
N45   N     N_R   0.607380 0.896210 0.058200 -0.041695
N46   N     N_R   0.607380 0.103790 0.058200 -0.041695
N47   N     N_R   0.392620 0.896210 0.941800 -0.038997
N48   N     N_R   0.952210 0.397600 0.057910 -0.038852
Ni1   Ni    Ni4+2 0.934150 0.565840 0.869060 0.216153
Ni2   Ni    Ni4+2 0.065850 0.434160 0.130940 0.214441
Ni3   Ni    Ni4+2 0.065850 0.565840 0.130940 0.214440
Ni4   Ni    Ni4+2 0.934150 0.434160 0.869060 0.216152
Ni5   Ni    Ni4+2 0.434150 0.065840 0.869060 0.216153
Ni6   Ni    Ni4+2 0.565850 0.934160 0.130940 0.214441
Ni7   Ni    Ni4+2 0.565850 0.065840 0.130940 0.214439
Ni8   Ni    Ni4+2 0.434150 0.934160 0.869060 0.216152

loop_
_geom_bond_atom_site_label_1
_geom_bond_atom_site_label_2
_ccdc_geom_bond_type
C9    C111  S    
C4    N27   T    
N1    Ni1   S    
C28   C47   A    
C27   H37   S    
C79   N18   A    
C55   C59   A    
C19   N42   T    
C59   C99   S    
C83   N22   A    
N12   Ni2   S    
C95   C96   A    
C58   C98   S    
C73   C93   A    
C20   C56   S    
C16   N39   T    
C86   C104  A    
N47   Ni8   S    
C64   N3    A    
C29   C89   A    
C21   C110  S    
C49   C57   A    
C2    C109  S    
C74   N13   A    
C72   C98   A    
C85   N24   A    
C22   C35   A    
N14   Ni7   S    
C43   C89   S    
C80   H19   S    
C83   C103  A    
C82   H21   S    
C106  C114  S    
C33   C42   A    
N7    N45   A    
C108  C115  S    
N10   Ni4   S    
N8    Ni7   S    
N48   Ni2   S    
C13   C112  S    
N22   Ni8   S    
C86   N25   A    
C116  H29   S    
C76   H15   S    
C23   C39   A    
C20   N43   T    
C62   H45   S    
C46   C92   S    
C106  C107  S    
C67   N6    A    
C40   H23   S    
C77   N16   A    
C95   N47   A    
C77   C100  A    
C78   H17   S    
N45   Ni6   S    
C15   C50   S    
N34   Ni4   S    
C35   H44   S    
C26   C45   A    
C51   C91   A    
C54   C59   A    
C27   C44   A    
C68   N7    A    
N18   N21   A    
C51   H34   S    
C3    C111  S    
N15   Ni8   S    
C29   N12   A    
C62   C92   A    
C67   C94   A    
N7    Ni8   S    
C71   H10   S    
C10   C112  S    
C69   N8    A    
C76   N15   A    
C39   C90   S    
N3    Ni4   S    
C51   N34   A    
C12   C48   S    
C37   H47   S    
C113  C116  S    
N4    Ni3   S    
C34   H43   S    
C1    C88   A    
C48   C50   A    
C26   C31   A    
N11   Ni1   S    
C28   H38   S    
C107  C109  S    
C73   N45   A    
N6    Ni5   S    
C64   C89   A    
N9    Ni3   S    
N5    Ni6   S    
C68   H7    S    
C105  C108  S    
C53   C60   A    
N21   Ni1   S    
N10   N11   A    
C74   C97   A    
N44   Ni5   S    
C53   C55   A    
N16   Ni5   S    
C71   C98   A    
C54   C56   A    
C81   C102  A    
C30   C34   A    
C65   N4    A    
C15   N38   T    
C105  C114  S    
C18   N41   T    
C44   C94   S    
C87   N26   A    
C73   H49   S    
C24   H33   S    
N23   Ni3   S    
C63   H2    S    
C18   C54   S    
C63   N2    A    
C1    H1    S    
C72   H11   S    
C69   H8    S    
C60   C100  S    
N18   Ni4   S    
N2    N23   A    
C56   C60   A    
C80   C102  A    
N6    N46   A    
N14   N17   A    
C21   C103  S    
N15   N16   A    
C8    C110  S    
C25   C38   A    
C2    C115  S    
C3    C112  S    
C32   C41   A    
C49   C52   A    
C57   C97   S    
C80   N19   A    
C75   C99   A    
C24   C37   A    
C47   C93   S    
C66   H5    S    
C36   C45   A    
C111  C113  S    
C78   N17   A    
C84   C94   A    
C13   C104  S    
C35   C44   A    
C64   H3    S    
C85   H24   S    
C107  C115  S    
C38   C47   A    
C85   C104  A    
C52   C58   A    
C109  C114  S    
N26   Ni5   S    
C87   C103  A    
C70   H9    S    
C21   C113  S    
C30   H39   S    
C61   N48   A    
C28   C33   A    
C11   N35   T    
N17   Ni6   S    
C5    N28   T    
C82   N21   A    
N19   Ni3   S    
N1    N4    A    
N3    N12   A    
C3    C21   S    
C42   C88   S    
C69   C92   A    
C67   H6    S    
C17   C53   S    
N13   Ni2   S    
C33   H42   S    
C84   N46   A    
C81   H20   S    
C66   C96   A    
C32   H41   S    
C5    C107  S    
C4    C105  S    
C19   C55   S    
C79   H18   S    
C115  H28   S    
N25   Ni6   S    
C62   N44   A    
C81   N20   A    
C41   C91   S    
C27   C32   A    
C14   N37   T    
C50   C57   A    
C71   N10   A    
C30   C46   A    
C17   N40   T    
C38   H48   S    
C34   C43   A    
C16   C52   S    
N24   Ni7   S    
N5    N47   A    
C75   H14   S    
C95   H51   S    
C25   C42   A    
C6    N29   T    
C70   C97   A    
C70   N9    A    
C48   C58   A    
N20   Ni2   S    
C76   C100  A    
C14   C49   S    
C23   H32   S    
C2    C105  S    
C68   C93   A    
C2    C101  S    
N8    N44   A    
C25   H35   S    
C61   H52   S    
C40   C90   A    
C114  H27   S    
N2    Ni1   S    
C7    N30   T    
C26   H36   S    
C82   C101  A    
N19   N20   A    
C13   C111  S    
N24   N25   A    
C75   N14   A    
C66   N5    A    
C40   N23   A    
C106  C108  S    
C65   C88   A    
C36   H46   S    
N9    N13   A    
C63   C90   A    
C1    N1    A    
C65   H4    S    
C31   C39   A    
C102  C106  S    
C12   N36   T    
C87   H26   S    
C11   C113  S    
C10   N33   T    
C110  C112  S    
C13   C116  S    
C84   H50   S    
N46   Ni7   S    
N22   N26   A    
C22   C41   A    
C31   H40   S    
C110  C116  S    
C22   H31   S    
C3    H30   S    
C23   C36   A    
C74   H13   S    
C29   H12   S    
C78   C99   A    
C24   C43   A    
C6    C108  S    
C79   C101  A    
C8    N31   T    
C7    C109  S    
C72   N11   A    
N34   N48   A    
C37   C46   A    
C45   C96   S    
C77   H16   S    
C83   H22   S    
C61   C91   A    
C86   H25   S    
C9    N32   T    
