data_mof_unit_24163.cif
_audit_creation_date              2012-10-26T20:21:45-0400
_audit_creation_method            fapswitch 2.2
_symmetry_space_group_name_H-M    P1
_symmetry_Int_Tables_number       1
_space_group_crystal_system       orthorhombic
_cell_length_a                    15.505886
_cell_length_b                    15.122236
_cell_length_c                    9.581379
_cell_angle_alpha                 90.0
_cell_angle_beta                  90.0
_cell_angle_gamma                 90.0
_cell_volume                      2246.67688745

loop_
_atom_site_label
_atom_site_type_symbol
_atom_type_description
_atom_site_fract_x
_atom_site_fract_y
_atom_site_fract_z
_atom_type_partial_charge
C1    C     C_R   0.118796 0.381053 0.500000 0.563160
C2    C     C_R   0.000000 0.577869 0.925583 0.064108
C3    C     C_R   0.000000 0.577869 0.074417 0.064108
C4    C     C_R   0.000000 0.422131 0.925583 0.064108
C5    C     C_R   0.500000 0.922131 0.074417 0.064108
C6    C     C_R   0.500000 0.077869 0.925583 0.064108
C7    C     C_R   0.500000 0.077869 0.074417 0.064108
C8    C     C_R   0.500000 0.922131 0.925583 0.064108
C9    C     C_R   0.781956 0.281918 0.373182 -0.118213
C10   C     C_R   0.218044 0.718082 0.626818 -0.118213
C11   C     C_R   0.218044 0.718082 0.373182 -0.118213
C12   C     C_R   0.881204 0.618947 0.500000 0.563160
C13   C     C_R   0.781956 0.281918 0.626818 -0.118214
C14   C     C_R   0.218044 0.281918 0.626818 -0.118213
C15   C     C_R   0.781956 0.718082 0.373182 -0.118213
C16   C     C_R   0.781956 0.718082 0.626818 -0.118213
C17   C     C_R   0.218044 0.281918 0.373182 -0.118213
C18   C     C_R   0.281956 0.781918 0.373182 -0.118213
C19   C     C_R   0.718044 0.218082 0.626818 -0.118213
C20   C     C_R   0.718044 0.218082 0.373182 -0.118213
C21   C     C_R   0.281956 0.781918 0.626818 -0.118214
C22   C     C_R   0.718044 0.781918 0.626818 -0.118213
C23   C     C_R   0.881204 0.381053 0.500000 0.563160
C24   C     C_R   0.281956 0.218082 0.373182 -0.118213
C25   C     C_R   0.281956 0.218082 0.626818 -0.118213
C26   C     C_R   0.718044 0.781918 0.373182 -0.118213
C27   C     C_R   0.185787 0.685906 0.500000 0.027499
C28   C     C_R   0.814213 0.314093 0.500000 0.027499
C29   C     C_R   0.814213 0.685906 0.500000 0.027499
C30   C     C_R   0.185787 0.314093 0.500000 0.027499
C31   C     C_R   0.685787 0.185907 0.500000 0.027499
C32   C     C_R   0.314213 0.814093 0.500000 0.027499
C33   C     C_R   0.314213 0.185907 0.500000 0.027499
C34   C     C_R   0.118796 0.618947 0.500000 0.563160
C35   C     C_R   0.685787 0.814093 0.500000 0.027499
C36   C     C_1   0.000000 0.338917 0.148404 0.236006
C37   C     C_1   0.000000 0.661083 0.851596 0.236006
C38   C     C_1   0.000000 0.661083 0.148404 0.236006
C39   C     C_1   0.000000 0.338917 0.851596 0.236006
C40   C     C_1   0.500000 0.838917 0.148404 0.236006
C41   C     C_1   0.500000 0.161082 0.851596 0.236006
C42   C     C_1   0.500000 0.161082 0.148404 0.236006
C43   C     C_1   0.500000 0.838917 0.851596 0.236006
C44   C     C_R   0.618796 0.881053 0.500000 0.563160
C45   C     C_R   0.381204 0.118947 0.500000 0.563160
C46   C     C_R   0.381204 0.881053 0.500000 0.563160
C47   C     C_R   0.618796 0.118947 0.500000 0.563160
C48   C     C_R   0.000000 0.422131 0.074417 0.064108
Cu1   Cu    Cu3+1 0.000000 0.500000 0.640660 0.985970
Cu2   Cu    Cu3+1 0.000000 0.500000 0.359340 0.985970
Cu3   Cu    Cu3+1 0.500000 0.000000 0.640660 0.985970
Cu4   Cu    Cu3+1 0.500000 0.000000 0.359340 0.985970
H1    H     H_    0.805918 0.305930 0.273987 0.144867
H2    H     H_    0.694082 0.194070 0.726013 0.144867
H3    H     H_    0.694082 0.194071 0.273987 0.144868
H4    H     H_    0.305918 0.805929 0.726013 0.144867
H5    H     H_    0.694082 0.805930 0.726013 0.144867
H6    H     H_    0.305918 0.194070 0.273987 0.144867
H7    H     H_    0.305918 0.194070 0.726013 0.144867
H8    H     H_    0.694082 0.805929 0.273987 0.144867
H9    H     H_    0.194082 0.694070 0.726013 0.144867
H10   H     H_    0.194082 0.694071 0.273987 0.144868
H11   H     H_    0.805918 0.305929 0.726013 0.144867
H12   H     H_    0.194082 0.305930 0.726013 0.144867
H13   H     H_    0.805918 0.694070 0.273987 0.144867
H14   H     H_    0.805918 0.694070 0.726013 0.144867
H15   H     H_    0.194082 0.305930 0.273987 0.144867
H16   H     H_    0.305918 0.805930 0.273987 0.144867
N1    N     N_R   0.000000 0.500000 0.852070 -0.267723
N2    N     N_1   0.500000 0.228193 0.793453 -0.297419
N3    N     N_1   0.500000 0.228193 0.206547 -0.297420
N4    N     N_1   0.500000 0.771806 0.793453 -0.297420
N5    N     N_R   0.000000 0.500000 0.147930 -0.267723
N6    N     N_R   0.500000 1.000000 0.852070 -0.267723
N7    N     N_R   0.500000 0.000000 0.147930 -0.267723
N8    N     N_1   0.000000 0.271807 0.206547 -0.297419
N9    N     N_1   0.000000 0.728193 0.793453 -0.297419
N10   N     N_1   0.000000 0.728193 0.206547 -0.297420
N11   N     N_1   0.000000 0.271807 0.793453 -0.297420
N12   N     N_1   0.500000 0.771806 0.206547 -0.297419
O1    O     O_R   0.090170 0.409820 0.618740 -0.502892
O2    O     O_R   0.409830 0.090180 0.381260 -0.502892
O3    O     O_R   0.409830 0.090180 0.618740 -0.502892
O4    O     O_R   0.590170 0.909820 0.381260 -0.502892
O5    O     O_R   0.409830 0.909820 0.381260 -0.502892
O6    O     O_R   0.590170 0.090180 0.618740 -0.502892
O7    O     O_R   0.590170 0.090180 0.381260 -0.502892
O8    O     O_R   0.409830 0.909820 0.618740 -0.502892
O9    O     O_R   0.909830 0.590180 0.381260 -0.502892
O10   O     O_R   0.909830 0.590180 0.618740 -0.502892
O11   O     O_R   0.090170 0.409820 0.381260 -0.502892
O12   O     O_R   0.909830 0.409820 0.381260 -0.502892
O13   O     O_R   0.090170 0.590180 0.618740 -0.502892
O14   O     O_R   0.090170 0.590180 0.381260 -0.502892
O15   O     O_R   0.909830 0.409820 0.618740 -0.502892
O16   O     O_R   0.590170 0.909820 0.618740 -0.502892

loop_
_geom_bond_atom_site_label_1
_geom_bond_atom_site_label_2
_ccdc_geom_bond_type
C10   C27   A    
C11   C18   A    
C43   N4    T    
C12   C29   S    
C33   C45   S    
C45   O2    A    
Cu3   N6    S    
Cu1   O10   S    
C11   H10   S    
C19   C31   A    
C22   H5    S    
C22   C35   A    
C12   O10   A    
Cu4   O5    S    
C1    O1    A    
C15   H13   S    
C7    C42   S    
Cu1   O1    S    
Cu4   O4    S    
C1    C30   S    
C9    C20   A    
C3    C38   S    
C6    C41   S    
C40   N12   T    
C13   C28   A    
C15   C29   A    
C2    N1    A    
C36   N8    T    
Cu3   O16   S    
C46   O5    A    
Cu4   N7    S    
C24   H6    S    
C10   C21   A    
C31   C47   S    
C17   C30   A    
C45   O3    A    
C9    H1    S    
C14   C30   A    
C20   H3    S    
Cu3   O6    S    
C4    N1    A    
C6    N6    A    
C46   O8    A    
C27   C34   S    
C21   C32   A    
C17   H15   S    
C17   C24   A    
C13   C19   A    
Cu3   Cu4   S    
C47   O6    A    
C12   O9    A    
Cu2   N5    S    
Cu2   O14   S    
C15   C26   A    
C7    N7    A    
C38   N10   T    
C16   C29   A    
C37   N9    T    
C47   O7    A    
C5    N7    A    
C44   O16   A    
C5    C8    A    
C26   C35   A    
Cu2   O9    S    
C13   H11   S    
C4    C39   S    
C11   C27   A    
C14   H12   S    
C8    N6    A    
C23   C28   S    
Cu1   O15   S    
Cu4   O2    S    
C35   C44   S    
C19   H2    S    
Cu2   O12   S    
C10   H9    S    
C18   C32   A    
Cu3   O3    S    
C4    C48   A    
C16   C22   A    
C32   C46   S    
C48   N5    A    
Cu4   O7    S    
C34   O14   A    
C44   O4    A    
Cu3   O8    S    
C21   H4    S    
C6    C7    A    
C24   C33   A    
C2    C3    A    
C2    C37   S    
C26   H8    S    
C8    C43   S    
C42   N3    T    
C23   O15   A    
C36   C48   S    
C14   C25   A    
C3    N5    A    
C34   O13   A    
Cu2   O11   S    
C16   H14   S    
C1    O11   A    
Cu1   Cu2   S    
C5    C40   S    
C25   C33   A    
C23   O12   A    
Cu1   N1    S    
C25   H7    S    
Cu1   O13   S    
C18   H16   S    
C9    C28   A    
C39   N11   T    
C41   N2    T    
C20   C31   A    
