data_mof_unit_25062.cif
_audit_creation_date              2013-03-05T16:42:04-0500
_audit_creation_method            fapswitch 2.2
_symmetry_space_group_name_H-M    P1
_symmetry_Int_Tables_number       1
_space_group_crystal_system       triclinic
_cell_length_a                    9.926894
_cell_length_b                    10.769812
_cell_length_c                    13.034619
_cell_angle_alpha                 91.427237
_cell_angle_beta                  68.825101
_cell_angle_gamma                 88.528421
_cell_volume                      1298.15006944

loop_
_atom_site_label
_atom_site_type_symbol
_atom_site_description
_atom_site_fract_x
_atom_site_fract_y
_atom_site_fract_z
_atom_type_partial_charge
O1    O     O_R   0.385310 0.683210 0.499990 -0.643254
O2    O     O_R   0.614650 0.683240 0.500000 -0.545936
C1    C     C_R   0.502315 0.739522 0.492899 0.950196
O3    O     O_R   0.328390 0.499940 0.653610 -0.581675
O4    O     O_R   0.557730 0.499980 0.653620 -0.572366
C2    C     C_R   0.418044 0.494176 0.705530 0.934652
Zn1   Zn    Zn3+2 0.346870 0.499980 0.499990 1.062573
Zn2   Zn    Zn3+2 0.653130 0.500020 0.500010 1.082162
O5    O     O_R   0.385350 0.316760 0.500000 -0.565110
O6    O     O_R   0.614690 0.316790 0.500010 -0.542578
O7    O     O_R   0.442270 0.500020 0.346380 -0.575111
O8    O     O_R   0.671610 0.500060 0.346390 -0.625404
C3    C     C_R   0.504661 0.260232 0.492968 0.981125
C4    C     C_R   0.582182 0.495896 0.294854 0.871383
C5    C     C_R   0.742475 0.310201 0.030845 0.318515
H1    H     H_    0.726321 0.218660 0.842019 0.227136
C6    C     C_R   0.638796 0.469245 0.175911 -0.310891
C7    C     C_R   0.224238 0.528585 0.895000 0.189746
C8    C     C_R   0.210028 0.581293 0.998722 0.247509
C9    C     C_R   0.322774 0.564841 0.037737 -0.104716
C10   C     C_R   0.447383 0.489930 0.978912 0.093749
C11   C     C_R   0.458192 0.435963 0.876207 -0.075076
C12   C     C_R   0.555408 0.459597 0.022958 0.107108
C13   C     C_R   0.653088 0.356648 0.976202 -0.200464
C14   C     C_R   0.654986 0.298372 0.878557 -0.038535
C15   C     C_R   0.560627 0.336540 0.827929 0.479287
C16   C     C_R   0.566696 0.525909 0.113940 0.432516
C17   C     C_R   0.733301 0.365148 0.131502 0.356083
C18   C     C_R   0.362270 0.479754 0.826502 -0.241059
H2    H     H_    0.302339 0.601326 0.119805 0.244293
C19   C     C_R   0.388631 0.942339 0.486366 -0.113960
C20   C     C_R   0.512398 0.869761 0.469717 -0.188044
C21   C     C_R   0.647688 0.928759 0.429107 0.341662
C22   C     C_R   0.648891 0.060128 0.436931 0.477081
C23   C     C_R   0.515520 0.128657 0.470825 -0.173838
C24   C     C_R   0.392123 0.066918 0.476237 -0.123706
C25   C     C_3   0.230437 0.083145 0.533674 0.640864
C26   C     C_3   0.229100 0.942420 0.549306 -0.018912
H3    H     H_    0.170130 0.892907 0.504060 0.104258
C27   C     C_R   0.884964 0.543282 0.590109 0.105241
N1    N     N_R   0.856940 0.500860 0.500710 -0.127250
C28   C     C_R   0.967856 0.445697 0.416232 -0.066807
H4    H     H_    0.945307 0.402271 0.349092 0.191471
C29   C     C_R   0.111600 0.444829 0.414839 0.376574
N2    N     N_R   0.142580 0.500820 0.500710 -0.181970
C30   C     C_R   0.027225 0.541559 0.590836 0.093226
C31   C     C_3   0.006826 0.669546 0.640188 0.102786
C32   C     C_3   0.853627 0.672146 0.639802 0.557583
H5    H     H_    0.079578 0.732809 0.583305 0.101903
O9    O     O_3   0.815340 0.313012 0.185828 -0.663776
H6    H     H_    0.860392 0.382357 0.211009 0.366460
O10   O     O_3   0.776417 0.122618 0.410772 -0.678649
H7    H     H_    0.859077 0.062471 0.395075 0.402001
N3    N     N_R   0.183247 0.160219 0.635613 0.275782
O11   O     O_R   0.067361 0.231601 0.660523 -0.256215
O12   O     O_R   0.253004 0.156225 0.703060 -0.340483
O13   O     O_3   0.157859 0.119356 0.463454 -0.706436
H8    H     H_    0.198749 0.069494 0.393200 0.351326
N4    N     N_R   0.189268 0.910586 0.665131 0.231462
O14   O     O_R   0.056823 0.931924 0.732556 -0.258532
O15   O     O_R   0.285508 0.869538 0.703615 -0.330596
N5    N     N_R   0.221822 0.386275 0.320527 0.227454
O16   O     O_R   0.306883 0.299288 0.332928 -0.338104
O17   O     O_R   0.211858 0.394943 0.224187 -0.422343
O18   O     O_3   0.013054 0.672928 0.745521 -0.582198
H9    H     H_    0.117047 0.676190 0.734380 0.383174
N6    N     N_R   0.737289 0.678608 0.748519 0.257897
O19   O     O_R   0.628081 0.757049 0.768875 -0.308024
O20   O     O_R   0.737761 0.601488 0.823608 -0.320975
O21   O     O_3   0.833157 0.758621 0.567506 -0.720926
H10   H     H_    0.842325 0.842093 0.597866 0.366641
N7    N     N_R   0.834585 0.201068 0.989739 0.239631
O22   O     O_R   0.821801 0.105892 0.051709 -0.247329
O23   O     O_R   0.941761 0.201892 0.895918 -0.233432
O24   O     O_3   0.512428 0.647131 0.138694 -0.727959
H11   H     H_    0.548920 0.686127 0.192832 0.340391
N8    N     N_R   0.097376 0.499867 0.870386 0.237967
O25   O     O_R   0.969012 0.539017 0.935271 -0.285938
O26   O     O_R   0.105111 0.410952 0.799090 -0.267671
N9    N     N_R   0.083080 0.652927 0.065175 0.242366
O27   O     O_R   0.036046 0.744906 0.022786 -0.227921
O28   O     O_R   0.028815 0.639922 0.171179 -0.385223
O29   O     O_3   0.562584 0.265056 0.738042 -0.714072
H12   H     H_    0.463574 0.264979 0.736866 0.353106
O30   O     O_3   0.777533 0.862495 0.382721 -0.683696
H13   H     H_    0.761181 0.788457 0.342646 0.370816

loop_
_geom_bond_atom_site_label_1
_geom_bond_atom_site_label_2
_geom_bond_distance
_ccdc_geom_bond_type
C15   O29   1.379746 S    
C11   C18   1.409501 A    
N7    O23   1.299470 A    
N1    C28   1.354877 A    
C8    C9    1.395763 A    
O13   H8    0.993718 S    
C31   H5    1.095051 S    
C9    H2    1.076135 S    
N8    O25   1.301110 A    
C29   N2    1.391266 A    
Zn1   O7    1.880442 S    
C5    N7    1.436680 S    
C25   C26   1.533992 S    
Zn1   N2    2.024381 S    
C24   C25   1.509362 S    
C3    C23   1.432559 S    
O30   H13   0.991050 S    
O4    C2    1.308921 A    
O7    C4    1.305193 A    
C27   C32   1.493290 S    
C22   C23   1.415547 A    
O5    C3    1.289791 A    
N5    O17   1.300200 A    
N3    O11   1.300821 A    
C17   O9    1.375819 S    
C31   C32   1.522165 S    
C12   C13   1.423080 A    
O21   H10   0.992746 S    
C12   C16   1.409574 A    
N7    O22   1.301210 A    
N4    O14   1.301338 A    
C10   C11   1.412717 A    
C4    C6    1.463559 S    
C1    C20   1.440557 S    
C28   C29   1.420254 A    
O3    Zn1   1.943667 S    
C16   O24   1.384225 S    
C21   C22   1.416624 A    
N8    O26   1.298782 A    
N3    O12   1.301694 A    
N4    O15   1.302054 A    
N6    O19   1.301282 A    
C6    C16   1.398906 A    
C13   C14   1.398740 A    
N9    O28   1.301830 A    
C7    C8    1.410617 A    
C29   N5    1.435373 S    
C14   C15   1.386402 A    
N2    C30   1.364011 A    
O1    C1    1.298783 A    
C23   C24   1.389004 A    
C27   C30   1.415321 A    
O24   H11   0.991612 S    
N5    O16   1.297043 A    
O29   H12   0.988520 S    
Zn2   O8    1.943668 S    
O9    H6    0.988184 S    
C7    C18   1.416701 A    
Zn2   N1    2.026766 S    
C25   N3    1.466089 S    
O3    C2    1.299351 A    
C27   N1    1.363155 A    
O8    C4    1.293327 A    
C10   C12   1.422121 A    
C28   H4    1.077599 S    
O10   H7    0.989744 S    
H1    C14   1.081688 S    
Zn1   O5    2.000235 S    
C30   C31   1.483975 S    
C5    C13   1.412950 A    
C21   O30   1.380046 S    
O1    Zn1   2.019507 S    
C6    C17   1.411876 A    
C19   C20   1.384622 A    
O2    Zn2   2.000236 S    
C32   O21   1.403204 S    
N9    O27   1.301699 A    
O6    C3    1.294707 A    
O4    Zn2   1.880439 S    
C22   O10   1.383890 S    
C19   C26   1.497423 S    
C20   C21   1.426400 A    
O2    C1    1.289250 A    
C5    C17   1.397192 A    
C26   H3    1.106643 S    
C7    N8    1.446207 S    
C32   N6    1.468123 S    
C8    N9    1.435887 S    
C26   N4    1.467875 S    
C2    C18   1.484234 S    
C9    C10   1.414798 A    
Zn2   O6    2.019507 S    
O18   H9    0.990879 S    
C11   C15   1.422951 A    
C19   C24   1.351550 A    
N6    O20   1.300558 A    
C31   O18   1.396112 S    
C25   O13   1.410197 S    
