data_mof_unit_55573.cif
_audit_creation_date              2013-03-05T16:12:27-0500
_audit_creation_method            fapswitch 2.2
_symmetry_space_group_name_H-M    P1
_symmetry_Int_Tables_number       1
_space_group_crystal_system       triclinic
_cell_length_a                    10.708828
_cell_length_b                    9.812003
_cell_length_c                    23.443013
_cell_angle_alpha                 90.060135
_cell_angle_beta                  90.050699
_cell_angle_gamma                 90.028343
_cell_volume                      2463.27319725

loop_
_atom_site_label
_atom_site_type_symbol
_atom_site_description
_atom_site_fract_x
_atom_site_fract_y
_atom_site_fract_z
_atom_type_partial_charge
O1    O     O_R   0.316770 0.614620 0.500000 -0.626485
O2    O     O_R   0.683230 0.385380 0.500000 -0.628103
O3    O     O_R   0.683230 0.614620 0.500000 -0.627390
O4    O     O_R   0.316770 0.385380 0.500000 -0.634823
C1    C     C_R   0.259800 0.499976 0.499978 0.863606
C2    C     C_R   0.740202 0.500015 0.500011 0.880657
O5    O     O_R   0.499970 0.614690 0.416160 -0.614124
O6    O     O_R   0.500030 0.385310 0.583840 -0.600204
O7    O     O_R   0.500030 0.614690 0.583840 -0.619947
O8    O     O_R   0.499970 0.385310 0.416160 -0.621419
C3    C     C_R   0.498921 0.499884 0.389141 0.896186
C4    C     C_R   0.499168 0.500084 0.610784 0.901126
Zn1   Zn    Zn3+2 0.500000 0.653120 0.500000 0.958399
Zn2   Zn    Zn3+2 0.500000 0.346880 0.500000 0.952981
C5    C     C_R   0.627670 0.483355 0.879108 0.576146
C6    C     C_R   0.424925 0.557119 0.120837 0.559693
N1    N     N_R   0.519150 0.518619 0.852349 -0.336448
N2    N     N_R   0.532373 0.518748 0.147754 -0.337607
C7    C     C_R   0.413831 0.553029 0.881580 0.588986
C8    C     C_R   0.636524 0.479700 0.118660 0.609176
C9    C     C_R   0.414744 0.553982 0.941003 -0.029932
C10   C     C_R   0.636794 0.482081 0.059161 -0.032575
C11   C     C_R   0.525615 0.519693 0.970019 -0.052791
C12   C     C_R   0.526648 0.518865 0.030077 -0.055079
C13   C     C_R   0.635019 0.485926 0.939052 -0.048329
C14   C     C_R   0.417553 0.554004 0.060983 -0.051834
C15   C     C_R   0.306749 0.587003 0.971575 -0.222813
C16   C     C_R   0.744995 0.449792 0.028564 -0.213103
C17   C     C_R   0.306124 0.585514 0.031059 0.222574
C18   C     C_R   0.746351 0.454213 0.969042 0.220706
O9    O     O_2   0.726512 0.444371 0.847417 -0.510548
O10   O     O_2   0.326742 0.598845 0.152370 -0.510908
O11   O     O_2   0.308733 0.586172 0.852903 -0.552122
O12   O     O_2   0.739595 0.440451 0.147480 -0.540322
H1    H     H_    0.220958 0.611815 0.949377 0.182149
H2    H     H_    0.830462 0.423877 0.050809 0.181671
C19   C     C_R   0.486235 0.395657 0.234097 -0.165933
C20   C     C_R   0.465791 0.399735 0.765330 -0.173025
H3    H     H_    0.456688 0.311032 0.207556 0.168239
H4    H     H_    0.432122 0.317950 0.792142 0.165733
C21   C     C_R   0.470455 0.388419 0.292877 0.197173
C22   C     C_R   0.458517 0.390674 0.705839 0.200323
C23   C     C_R   0.505771 0.501492 0.326738 -0.167979
C24   C     C_R   0.502031 0.501915 0.673156 -0.165038
C25   C     C_R   0.553473 0.619337 0.300543 -0.312787
C26   C     C_R   0.551469 0.617899 0.700087 -0.317771
H5    H     H_    0.581630 0.705444 0.326487 0.213732
H6    H     H_    0.585269 0.702339 0.674663 0.206256
C27   C     C_R   0.566636 0.627877 0.241404 0.368678
C28   C     C_R   0.557985 0.626985 0.759331 0.365377
C29   C     C_R   0.532874 0.513393 0.208385 0.151006
C30   C     C_R   0.514361 0.515976 0.791720 0.159182
C31   C     C_R   0.063869 0.378794 0.488213 -0.187663
C32   C     C_R   0.936147 0.621174 0.511752 -0.177500
C33   C     C_R   0.935990 0.378809 0.488241 -0.179255
C34   C     C_R   0.064020 0.621159 0.511726 -0.179854
H7    H     H_    0.112576 0.284715 0.478660 0.154247
H8    H     H_    0.887451 0.715261 0.521298 0.156241
H9    H     H_    0.887162 0.284716 0.478725 0.159726
H10   H     H_    0.112841 0.715257 0.521239 0.159938
C35   C     C_R   0.872590 0.500005 0.500004 -0.016010
C36   C     C_R   0.127420 0.499965 0.499970 -0.015893
C37   C     C_R   0.581940 0.072181 0.533424 -0.052564
C38   C     C_R   0.417897 0.927841 0.466666 -0.067770
C39   C     C_R   0.417688 0.071923 0.466787 -0.083038
C40   C     C_R   0.581898 0.928075 0.533449 -0.066578
H11   H     H_    0.647310 0.127095 0.560122 0.141735
H12   H     H_    0.352417 0.872971 0.440009 0.135165
H13   H     H_    0.351824 0.126615 0.440359 0.126526
H14   H     H_    0.647235 0.873364 0.560169 0.132615
N3    N     N_R   0.500000 0.857200 0.500000 -0.083095
N4    N     N_R   0.500000 0.142800 0.500000 -0.083041
N5    N     N_2   0.191881 0.612701 0.059913 -0.248231
H15   H     H_    0.138374 0.686888 0.040554 0.227030
C41   C     C_3   0.119606 0.491832 0.072626 -0.666036
H16   H     H_    0.035447 0.520703 0.097481 0.262784
H17   H     H_    0.175427 0.419019 0.098430 0.260623
H18   H     H_    0.089482 0.441063 0.032513 0.199155
N6    N     N_2   0.860935 0.428705 0.940213 -0.256304
H19   H     H_    0.915079 0.354773 0.959372 0.221201
C42   C     C_3   0.932100 0.550570 0.927870 -0.641013
H20   H     H_    0.016360 0.523060 0.902822 0.251404
H21   H     H_    0.961963 0.600802 0.968141 0.200971
H22   H     H_    0.875562 0.623376 0.902385 0.279531
N7    N     N_2   0.410151 0.271279 0.315803 -0.311946
H23   H     H_    0.353229 0.287420 0.350560 0.231172
C43   C     C_3   0.487485 0.150802 0.319552 -0.648880
H24   H     H_    0.430049 0.063115 0.333936 0.226199
H25   H     H_    0.564448 0.167205 0.350622 0.244826
H26   H     H_    0.527447 0.125365 0.277158 0.277239
N8    N     N_2   0.403354 0.274979 0.678397 -0.291373
H27   H     H_    0.328197 0.297052 0.652458 0.234599
C44   C     C_3   0.394865 0.146419 0.708382 -0.697585
H28   H     H_    0.370845 0.064400 0.677598 0.241137
H29   H     H_    0.320413 0.151198 0.741275 0.237759
H30   H     H_    0.485969 0.120537 0.728339 0.271341
N9    N     N_R   0.611268 0.753123 0.216155 0.225997
O13   O     O_R   0.647905 0.758138 0.163318 -0.366451
O14   O     O_R   0.619090 0.863626 0.246725 -0.405021
N10   N     N_R   0.608820 0.748249 0.785483 0.216430
O15   O     O_R   0.580505 0.781867 0.837581 -0.382516
O16   O     O_R   0.678047 0.831169 0.755883 -0.388294

loop_
_geom_bond_atom_site_label_1
_geom_bond_atom_site_label_2
_geom_bond_distance
_ccdc_geom_bond_type
C43   H24   1.110279 S    
C44   H28   1.110352 S    
C33   H9    1.083713 S    
C15   C17   1.394584 A    
C21   C23   1.414674 A    
N5    H15   1.031898 S    
O3    C2    1.279615 A    
C42   H20   1.110273 S    
N7    H23   1.030187 S    
O5    C3    1.291809 A    
O1    C1    1.279411 A    
C38   H12   1.081762 S    
C2    C35   1.417715 S    
C7    C9    1.393108 A    
C12   C14   1.417778 A    
C20   C22   1.399496 A    
C19   C29   1.395969 A    
C5    C13   1.407623 A    
C20   C30   1.396963 A    
C22   N8    1.431298 S    
C38   N3    1.365525 A    
O7    Zn1   2.001695 S    
N9    O14   1.301688 A    
C27   C29   1.410334 A    
C28   C30   1.408202 A    
C11   C12   1.407990 A    
C3    C23   1.464902 S    
O3    Zn1   1.998394 S    
C34   C36   1.396938 A    
C8    O12   1.350090 S    
C31   C33   1.369436 A    
C9    C15   1.399102 A    
C37   C40   1.413966 A    
C44   H29   1.110633 S    
C10   C16   1.399583 A    
O4    Zn2   1.998395 S    
N5    C41   1.447276 S    
O2    C2    1.279346 A    
C22   C24   1.413297 A    
N1    C30   1.422426 S    
C42   H21   1.111228 S    
C24   C26   1.404028 A    
N2    C29   1.422398 S    
N9    O13   1.300609 A    
C32   C34   1.369364 A    
C25   H5    1.083063 S    
C6    C14   1.405619 A    
C37   H11   1.081776 S    
N7    C43   1.446378 S    
O8    Zn2   2.001697 S    
N8    H27   1.031510 S    
N6    C42   1.447253 S    
C31   H7    1.083781 S    
Zn1   N3    2.002434 S    
C15   H1    1.083411 S    
C34   H10   1.083709 S    
C41   H16   1.110339 S    
N8    C44   1.447581 S    
C41   H17   1.111032 S    
C31   C36   1.396736 A    
C40   N3    1.365545 A    
C25   C27   1.396249 A    
O6    C4    1.290670 A    
N10   O16   1.301757 A    
C23   C25   1.405894 A    
C18   N6    1.423549 S    
C8    C10   1.395052 A    
C44   H30   1.111254 S    
O8    C3    1.290989 A    
C9    C11   1.408904 A    
C7    O11   1.350515 S    
C10   C12   1.409244 A    
O1    Zn1   1.998028 S    
C42   H22   1.111095 S    
C32   H8    1.083761 S    
C13   C18   1.418400 A    
C5    N1    1.365039 A    
O6    Zn2   2.000917 S    
Zn2   N4    2.002434 S    
O4    C1    1.279523 A    
C5    O9    1.349000 S    
C32   C35   1.396712 A    
C6    O10   1.349354 S    
C39   N4    1.365253 A    
C21   N7    1.424131 S    
C26   C28   1.393300 A    
C28   N10   1.444030 S    
C38   C39   1.413737 A    
C16   C18   1.396183 A    
C19   H3    1.083985 S    
C20   H4    1.081768 S    
C40   H14   1.081859 S    
C39   H13   1.081477 S    
C33   C35   1.396992 A    
N10   O15   1.300880 A    
N1    C7    1.362655 A    
C1    C36   1.417638 S    
N2    C8    1.362793 A    
C11   C13   1.418025 A    
C19   C21   1.390343 A    
O2    Zn2   1.998027 S    
C41   H18   1.111235 S    
O7    C4    1.290389 A    
C27   N9    1.445850 S    
N6    H19   1.031888 S    
C26   H6    1.083428 S    
O5    Zn1   2.000920 S    
C17   N5    1.423682 S    
C37   N4    1.365498 A    
C16   H2    1.083492 S    
C14   C17   1.418072 A    
C6    N2    1.365115 A    
C43   H26   1.110644 S    
C43   H25   1.110978 S    
C4    C24   1.462578 S    
