data_mof_unit_40755.cif
_audit_creation_date              2012-12-10T17:19:49-0500
_audit_creation_method            fapswitch 2.2
_symmetry_space_group_name_H-M    P1
_symmetry_Int_Tables_number       1
_space_group_crystal_system       triclinic
_cell_length_a                    21.793474
_cell_length_b                    21.793469
_cell_length_c                    23.449465
_cell_angle_alpha                 90.000129
_cell_angle_beta                  89.999926
_cell_angle_gamma                 90.000091
_cell_volume                      11137.4500293

loop_
_atom_site_label
_atom_site_type_symbol
_atom_type_description
_atom_site_fract_x
_atom_site_fract_y
_atom_site_fract_z
_atom_type_partial_charge
C1    C     C_R   0.380125 1.000000 0.500000 1.059255
C2    C     C_R   0.040091 0.282449 0.462859 -0.109516
C3    C     C_R   0.367051 0.209861 0.905423 0.389821
C4    C     C_R   0.209861 0.367052 0.094578 0.389822
C5    C     C_R   0.367052 0.790139 0.094579 0.389822
C6    C     C_R   0.790139 0.632948 0.094579 0.389823
C7    C     C_R   0.632949 0.209862 0.094577 0.389822
C8    C     C_R   0.230555 0.853002 0.422547 -0.435477
C9    C     C_R   0.147000 0.230555 0.422550 -0.435474
C10   C     C_R   0.769446 0.146999 0.422548 -0.435472
C11   C     C_R   0.852999 0.769445 0.422551 -0.435473
C12   C     C_R   0.769445 0.853001 0.577451 -0.435474
C13   C     C_R   0.717551 0.040091 0.462859 -0.109517
C14   C     C_R   0.853001 0.230555 0.577451 -0.435475
C15   C     C_R   0.230555 0.146998 0.577454 -0.435477
C16   C     C_R   0.147002 0.769446 0.577448 -0.435470
C17   C     C_R   0.730554 0.353000 0.922549 -0.435473
C18   C     C_R   0.646999 0.730555 0.922549 -0.435477
C19   C     C_R   0.269446 0.646999 0.922548 -0.435474
C20   C     C_R   0.353000 0.269445 0.922550 -0.435473
C21   C     C_R   0.269445 0.353001 0.077451 -0.435475
C22   C     C_R   0.353001 0.730555 0.077452 -0.435472
C23   C     C_R   0.730555 0.646999 0.077451 -0.435475
C24   C     C_R   0.959908 0.717551 0.462859 -0.109516
C25   C     C_R   0.647000 0.269446 0.077450 -0.435475
C26   C     C_R   0.191285 0.899694 0.442427 0.471735
C27   C     C_R   0.100307 0.191285 0.442429 0.471739
C28   C     C_R   0.808715 0.100306 0.442429 0.471741
C29   C     C_R   0.899693 0.808714 0.442430 0.471742
C30   C     C_R   0.808714 0.899694 0.557571 0.471744
C31   C     C_R   0.899694 0.191285 0.557571 0.471742
C32   C     C_R   0.191285 0.100305 0.557573 0.471741
C33   C     C_R   0.100308 0.808715 0.557568 0.471752
C34   C     C_R   0.691285 0.399694 0.942429 0.471742
C35   C     C_R   0.717551 0.959909 0.537141 -0.109517
C36   C     C_R   0.600306 0.691286 0.942429 0.471741
C37   C     C_R   0.308715 0.600306 0.942429 0.471740
C38   C     C_R   0.399693 0.308714 0.942430 0.471743
C39   C     C_R   0.308714 0.399694 0.057571 0.471742
C40   C     C_R   0.399694 0.691285 0.057571 0.471742
C41   C     C_R   0.691285 0.600306 0.057571 0.471743
C42   C     C_R   0.600306 0.308715 0.057571 0.471742
C43   C     C_R   0.218515 0.953210 0.468604 -0.113461
C44   C     C_R   0.046790 0.218515 0.468605 -0.113464
C45   C     C_R   0.781485 0.046790 0.468605 -0.113463
C46   C     C_R   0.959909 0.282449 0.537141 -0.109516
C47   C     C_R   0.953209 0.781485 0.468605 -0.113466
C48   C     C_R   0.781485 0.953210 0.531395 -0.113465
C49   C     C_R   0.953210 0.218515 0.531395 -0.113463
C50   C     C_R   0.218515 0.046789 0.531396 -0.113460
C51   C     C_R   0.046791 0.781485 0.531393 -0.113468
C52   C     C_R   0.718515 0.453210 0.968605 -0.113463
C53   C     C_R   0.546790 0.718515 0.968605 -0.113463
C54   C     C_R   0.281485 0.546790 0.968605 -0.113463
C55   C     C_R   0.453210 0.281485 0.968605 -0.113466
C56   C     C_R   0.281485 0.453210 0.031395 -0.113464
C57   C     C_R   0.282449 0.040091 0.537142 -0.109516
C58   C     C_R   0.453210 0.718515 0.031395 -0.113463
C59   C     C_R   0.718515 0.546790 0.031395 -0.113464
C60   C     C_R   0.546790 0.281485 0.031395 -0.113463
C61   C     C_3   0.299405 0.209818 0.664118 0.073842
C62   C     C_3   0.294846 0.277133 0.645864 -0.317464
C63   C     C_3   0.260498 0.315433 0.689934 -0.980737
C64   C     C_3   0.790179 0.299405 0.664115 0.073840
C65   C     C_3   0.722865 0.294848 0.645861 -0.317460
C66   C     C_3   0.684563 0.260502 0.689932 -0.980738
C67   C     C_3   0.700595 0.790180 0.664115 0.073838
C68   C     C_R   0.040093 0.717552 0.537139 -0.109518
C69   C     C_3   0.705153 0.722866 0.645863 -0.317462
C70   C     C_3   0.739501 0.684566 0.689933 -0.980737
C71   C     C_3   0.209826 0.700597 0.664110 0.073838
C72   C     C_3   0.277139 0.705154 0.645854 -0.317456
C73   C     C_3   0.315444 0.739497 0.689925 -0.980716
C74   C     C_3   0.700596 0.209818 0.335883 0.073836
C75   C     C_3   0.705154 0.277134 0.354134 -0.317450
C76   C     C_3   0.739499 0.315433 0.310061 -0.980733
C77   C     C_3   0.209821 0.299404 0.335885 0.073840
C78   C     C_3   0.277135 0.294846 0.354138 -0.317462
C79   C     C_R   0.782449 0.459908 0.962859 -0.109517
C80   C     C_3   0.315435 0.260499 0.310067 -0.980738
C81   C     C_3   0.299405 0.790181 0.335882 0.073841
C82   C     C_3   0.294846 0.722867 0.354134 -0.317458
C83   C     C_3   0.260497 0.684568 0.310063 -0.980741
C84   C     C_3   0.790179 0.700596 0.335886 0.073839
C85   C     C_3   0.722864 0.705155 0.354139 -0.317461
C86   C     C_3   0.684565 0.739504 0.310069 -0.980739
C87   C     C_3   0.799404 0.709821 0.164115 0.073841
C88   C     C_3   0.794847 0.777135 0.145862 -0.317463
C89   C     C_3   0.760499 0.815436 0.189931 -0.980736
C90   C     C_R   0.540091 0.782449 0.962859 -0.109517
C91   C     C_3   0.290178 0.799407 0.164114 0.073836
C92   C     C_3   0.222864 0.794850 0.145861 -0.317447
C93   C     C_3   0.184560 0.760512 0.189936 -0.980720
C94   C     C_3   0.200595 0.290180 0.164115 0.073841
C95   C     C_3   0.205153 0.222865 0.145861 -0.317461
C96   C     C_3   0.239501 0.184565 0.189931 -0.980737
C97   C     C_3   0.709823 0.200596 0.164112 0.073843
C98   C     C_3   0.777137 0.205154 0.145858 -0.317460
C99   C     C_3   0.815438 0.239501 0.189927 -0.980735
C100  C     C_3   0.200600 0.709816 0.835881 0.073845
C101  C     C_R   0.217551 0.540091 0.962859 -0.109516
C102  C     C_3   0.205161 0.777131 0.854132 -0.317459
C103  C     C_3   0.239522 0.815425 0.810066 -0.980738
C104  C     C_3   0.709821 0.799404 0.835885 0.073845
C105  C     C_3   0.777135 0.794846 0.854140 -0.317468
C106  C     C_3   0.815436 0.760496 0.810072 -0.980737
C107  C     C_3   0.799404 0.290179 0.835885 0.073839
C108  C     C_3   0.794845 0.222865 0.854137 -0.317460
C109  C     C_3   0.760498 0.184565 0.810066 -0.980739
C110  C     C_3   0.290178 0.200595 0.835887 0.073841
C111  C     C_3   0.222864 0.205154 0.854141 -0.317462
C112  C     C_R   1.000000 0.380124 0.500000 1.059253
C113  C     C_R   0.459908 0.217551 0.962859 -0.109516
C114  C     C_3   0.184563 0.239502 0.810072 -0.980737
C115  C     C_3   0.108760 0.871378 0.384602 0.129549
C116  C     C_3   0.105502 0.925577 0.342879 -0.359441
C117  C     C_3   0.092635 0.903721 0.282223 -1.000091
C118  C     C_3   0.128623 0.108761 0.384603 0.129561
C119  C     C_3   0.074428 0.105516 0.342875 -0.359492
C120  C     C_3   0.096288 0.092645 0.282221 -1.000050
C121  C     C_3   0.891239 0.128622 0.384602 0.129563
C122  C     C_3   0.894481 0.074427 0.342874 -0.359493
C123  C     C_3   0.907355 0.096286 0.282220 -1.000060
C124  C     C_R   0.217551 0.459909 0.037141 -0.109516
C125  C     C_3   0.871377 0.891238 0.384603 0.129548
C126  C     C_3   0.925572 0.894483 0.342876 -0.359478
C127  C     C_3   0.903713 0.907352 0.282221 -1.000053
C128  C     C_3   0.891238 0.871378 0.615398 0.129554
C129  C     C_3   0.894480 0.925573 0.657126 -0.359500
C130  C     C_3   0.907354 0.903714 0.717780 -1.000044
C131  C     C_3   0.871377 0.108761 0.615397 0.129559
C132  C     C_3   0.925572 0.105516 0.657125 -0.359488
C133  C     C_3   0.903712 0.092644 0.717779 -1.000032
C134  C     C_3   0.108761 0.128621 0.615399 0.129576
C135  C     C_R   0.459909 0.782449 0.037141 -0.109516
C136  C     C_3   0.105518 0.074427 0.657127 -0.359525
C137  C     C_3   0.092643 0.096288 0.717781 -1.000051
C138  C     C_3   0.128622 0.891236 0.615398 0.129573
C139  C     C_3   0.074433 0.894450 0.657134 -0.359591
C140  C     C_3   0.096296 0.907331 0.717786 -1.000091
C141  C     C_3   0.608761 0.371377 0.884602 0.129551
C142  C     C_3   0.605514 0.425573 0.842876 -0.359483
C143  C     C_3   0.592645 0.403715 0.782221 -1.000081
C144  C     C_3   0.628623 0.608761 0.884602 0.129557
C145  C     C_3   0.574427 0.605516 0.842875 -0.359492
C146  C     C_R   0.782449 0.540091 0.037141 -0.109517
C147  C     C_3   0.596286 0.592643 0.782221 -1.000055
C148  C     C_3   0.391240 0.628621 0.884602 0.129561
C149  C     C_3   0.394486 0.574424 0.842876 -0.359472
C150  C     C_3   0.407356 0.596282 0.782220 -1.000065
C151  C     C_3   0.371378 0.391238 0.884602 0.129552
C152  C     C_3   0.425573 0.394481 0.842875 -0.359485
C153  C     C_3   0.403715 0.407351 0.782220 -1.000052
C154  C     C_3   0.391238 0.371378 0.115398 0.129558
C155  C     C_3   0.394482 0.425573 0.157125 -0.359496
C156  C     C_3   0.407354 0.403714 0.217780 -1.000051
C157  C     C_R   0.540092 0.217551 0.037141 -0.109517
C158  C     C_3   0.371377 0.608761 0.115398 0.129562
C159  C     C_3   0.425572 0.605520 0.157126 -0.359502
C160  C     C_3   0.403712 0.592645 0.217780 -1.000061
C161  C     C_3   0.608762 0.628623 0.115398 0.129558
C162  C     C_3   0.605522 0.574429 0.157127 -0.359511
C163  C     C_3   0.592647 0.596289 0.217780 -1.000059
C164  C     C_3   0.628622 0.391239 0.115398 0.129557
C165  C     C_3   0.574426 0.394483 0.157125 -0.359489
C166  C     C_3   0.596285 0.407356 0.217779 -1.000071
C167  C     C_R   0.186365 1.000000 0.500000 -0.145774
C168  C     C_R   1.000000 0.186365 0.500000 -0.145775
C169  C     C_R   0.813635 0.000000 0.500000 -0.145775
C170  C     C_R   0.000000 0.813635 0.500000 -0.145775
C171  C     C_R   0.686365 0.500000 1.000000 -0.145775
C172  C     C_R   0.619875 0.000000 0.500000 1.059252
C173  C     C_R   0.500000 0.686365 0.000000 -0.145775
C174  C     C_R   0.313635 0.500000 0.000000 -0.145775
C175  C     C_R   0.500000 0.313635 1.000000 -0.145776
C176  C     C_R   0.313872 1.000000 0.500000 -0.084220
C177  C     C_R   1.000000 0.313872 0.500000 -0.084220
C178  C     C_R   0.686128 0.000000 0.500000 -0.084219
C179  C     C_R   0.000000 0.686128 0.500000 -0.084217
C180  C     C_R   0.813872 0.500000 0.000000 -0.084219
C181  C     C_R   0.500000 0.813871 0.000000 -0.084219
C182  C     C_R   0.186128 0.500000 0.000000 -0.084219
C183  C     C_R   1.000000 0.619875 0.500000 1.059248
C184  C     C_R   0.500000 0.186128 1.000000 -0.084219
C185  C     C_R   1.000000 0.120419 0.500000 1.163894
C186  C     C_R   0.879581 0.000000 0.500000 1.163895
C187  C     C_R   1.000000 0.879581 0.500000 1.163895
C188  C     C_R   0.120419 1.000000 0.500000 1.163892
C189  C     C_R   0.500000 0.620419 0.000000 1.163895
C190  C     C_R   0.379581 0.500000 0.000000 1.163895
C191  C     C_R   0.500000 0.379581 1.000000 1.163896
C192  C     C_R   0.620419 0.500000 1.000000 1.163896
C193  C     C_R   0.500000 1.000000 0.390777 0.993238
C194  C     C_R   0.880124 0.500000 0.000000 1.059252
C195  C     C_R   1.000000 0.500000 0.390777 0.993235
C196  C     C_R   0.500000 0.000000 0.609223 0.993237
C197  C     C_R   1.000000 0.500000 0.609223 0.993234
C198  C     C_R   1.000000 0.500000 0.890777 0.993236
C199  C     C_R   0.500000 0.000000 0.890777 0.993236
C200  C     C_R   1.000000 0.500000 0.109223 0.993236
C201  C     C_R   0.500000 0.000000 0.109223 0.993236
C202  C     C_1   0.500000 1.000000 0.330517 -0.158277
C203  C     C_1   1.000000 0.500000 0.330517 -0.158276
C204  C     C_1   0.500000 0.000000 0.669483 -0.158276
C205  C     C_R   0.500000 0.880124 0.000000 1.059253
C206  C     C_1   1.000000 0.500000 0.669483 -0.158276
C207  C     C_1   1.000000 0.500000 0.830517 -0.158276
C208  C     C_1   0.500000 0.000000 0.830517 -0.158276
C209  C     C_1   1.000000 0.500000 0.169483 -0.158276
C210  C     C_1   0.500000 1.000000 0.169483 -0.158277
C211  C     C_1   0.500000 1.000000 0.279660 0.001056
C212  C     C_1   0.000000 0.500000 0.279660 0.001056
C213  C     C_1   0.500000 0.000000 0.720340 0.001057
C214  C     C_1   1.000000 0.500000 0.720340 0.001057
C215  C     C_1   1.000000 0.500000 0.779660 0.001057
C216  C     C_R   0.119875 0.500000 1.000000 1.059252
C217  C     C_1   0.500000 0.000000 0.779660 0.001057
C218  C     C_1   1.000000 0.500000 0.220340 0.001056
C219  C     C_1   0.500000 1.000000 0.220340 0.001056
C220  C     C_R   0.313938 0.924232 0.421190 0.383559
C221  C     C_R   0.075769 0.313937 0.421191 0.383558
C222  C     C_R   0.686063 0.075769 0.421191 0.383557
C223  C     C_R   0.924230 0.686062 0.421192 0.383559
C224  C     C_R   0.686062 0.924231 0.578809 0.383557
C225  C     C_R   0.924231 0.313937 0.578809 0.383558
C226  C     C_R   0.313937 0.075768 0.578810 0.383558
C227  C     C_R   0.500000 0.119875 1.000000 1.059250
C228  C     C_R   0.075771 0.686063 0.578807 0.383556
C229  C     C_R   0.813937 0.424231 0.921191 0.383558
C230  C     C_R   0.575769 0.813937 0.921191 0.383559
C231  C     C_R   0.186063 0.575769 0.921191 0.383557
C232  C     C_R   0.424230 0.186062 0.921192 0.383559
C233  C     C_R   0.186062 0.424231 0.078809 0.383558
C234  C     C_R   0.424231 0.813938 0.078809 0.383558
C235  C     C_R   0.813937 0.575769 0.078809 0.383558
C236  C     C_R   0.575770 0.186063 0.078808 0.383559
C237  C     C_R   0.290139 0.867053 0.405420 0.389824
C238  C     C_R   0.282449 0.959909 0.462858 -0.109516
C239  C     C_R   0.132948 0.290138 0.405422 0.389823
C240  C     C_R   0.709862 0.132948 0.405421 0.389821
C241  C     C_R   0.867050 0.709861 0.405423 0.389821
C242  C     C_R   0.709861 0.867052 0.594579 0.389823
C243  C     C_R   0.867052 0.290139 0.594579 0.389823
C244  C     C_R   0.290138 0.132947 0.594581 0.389824
C245  C     C_R   0.132951 0.709862 0.594576 0.389822
C246  C     C_R   0.790138 0.367051 0.905422 0.389822
C247  C     C_R   0.632948 0.790138 0.905421 0.389822
C248  C     C_R   0.209863 0.632948 0.905420 0.389822
H1    H     H_    0.213013 0.807164 0.416164 0.171540
H2    H     H_    0.692836 0.713013 0.916167 0.171540
H3    H     H_    0.811640 0.217009 0.232255 0.256324
H4    H     H_    0.171163 0.707479 0.797285 0.148561
H5    H     H_    0.246237 0.691540 0.822608 0.116869
H6    H     H_    0.158166 0.796095 0.859553 0.230404
H7    H     H_    0.229238 0.780753 0.895727 0.224697
H8    H     H_    0.287859 0.799694 0.806777 0.272466
H9    H     H_    0.239396 0.864349 0.823273 0.276842
H10   H     H_    0.217040 0.811625 0.767734 0.256321
H11   H     H_    0.707485 0.828842 0.797290 0.148562
H12   H     H_    0.691548 0.753767 0.822612 0.116866
H13   H     H_    0.286988 0.692836 0.916166 0.171543
H14   H     H_    0.796094 0.841841 0.859569 0.230409
H15   H     H_    0.780755 0.770763 0.895732 0.224693
H16   H     H_    0.799708 0.712159 0.806774 0.272467
H17   H     H_    0.864357 0.760622 0.823284 0.276842
H18   H     H_    0.811640 0.782986 0.767744 0.256327
H19   H     H_    0.828842 0.292517 0.797290 0.148564
H20   H     H_    0.753767 0.308453 0.822612 0.116866
H21   H     H_    0.841840 0.203906 0.859568 0.230409
H22   H     H_    0.770759 0.219243 0.895728 0.224691
H23   H     H_    0.712160 0.200293 0.806766 0.272468
H24   H     H_    0.307163 0.286987 0.916169 0.171540
H25   H     H_    0.760624 0.135643 0.823276 0.276841
H26   H     H_    0.782990 0.188364 0.767739 0.256324
H27   H     H_    0.292515 0.171157 0.797292 0.148564
H28   H     H_    0.308451 0.246232 0.822613 0.116865
H29   H     H_    0.203905 0.158159 0.859571 0.230410
H30   H     H_    0.219243 0.229239 0.895732 0.224691
H31   H     H_    0.200290 0.287839 0.806773 0.272467
H32   H     H_    0.135641 0.239375 0.823282 0.276841
H33   H     H_    0.188362 0.217010 0.767743 0.256325
H34   H     H_    0.379389 0.919729 0.364217 0.360810
H35   H     H_    0.286986 0.307163 0.083833 0.171540
H36   H     H_    0.080273 0.379388 0.364218 0.360811
H37   H     H_    0.620612 0.080272 0.364218 0.360811
H38   H     H_    0.919725 0.620611 0.364219 0.360811
H39   H     H_    0.620611 0.919728 0.635782 0.360811
H40   H     H_    0.919727 0.379389 0.635783 0.360811
H41   H     H_    0.379388 0.080270 0.635783 0.360811
H42   H     H_    0.080276 0.620613 0.635780 0.360813
H43   H     H_    0.879388 0.419726 0.864218 0.360811
H44   H     H_    0.580272 0.879388 0.864217 0.360811
H45   H     H_    0.120612 0.580272 0.864218 0.360813
H46   H     H_    0.307163 0.713013 0.083833 0.171537
H47   H     H_    0.419726 0.120611 0.864218 0.360811
H48   H     H_    0.120611 0.419728 0.135782 0.360811
H49   H     H_    0.419727 0.879389 0.135783 0.360810
H50   H     H_    0.879388 0.580272 0.135783 0.360811
H51   H     H_    0.580274 0.120612 0.135782 0.360811
H52   H     H_    0.062480 0.850747 0.388043 0.158159
H53   H     H_    0.136302 0.833766 0.365761 0.110886
H54   H     H_    0.068182 0.957122 0.355950 0.233896
H55   H     H_    0.149529 0.951268 0.343124 0.206946
H56   H     H_    0.131817 0.876142 0.266153 0.271346
H57   H     H_    0.713014 0.692837 0.083833 0.171540
H58   H     H_    0.086263 0.943903 0.253745 0.273869
H59   H     H_    0.050341 0.875363 0.281021 0.270213
H60   H     H_    0.149246 0.062478 0.388042 0.158165
H61   H     H_    0.166243 0.136298 0.365769 0.110883
H62   H     H_    0.042873 0.068204 0.355943 0.233901
H63   H     H_    0.048748 0.149549 0.343118 0.206946
H64   H     H_    0.123894 0.131813 0.266160 0.271339
H65   H     H_    0.056108 0.086300 0.253736 0.273862
H66   H     H_    0.124622 0.050335 0.281019 0.270214
H67   H     H_    0.937524 0.149243 0.388040 0.158170
H68   H     H_    0.692837 0.286988 0.083832 0.171540
H69   H     H_    0.863703 0.166243 0.365768 0.110881
H70   H     H_    0.931792 0.042869 0.355942 0.233901
H71   H     H_    0.850446 0.048749 0.343116 0.206945
H72   H     H_    0.868192 0.123898 0.266160 0.271340
H73   H     H_    0.913693 0.056105 0.253734 0.273866
H74   H     H_    0.949670 0.124612 0.281019 0.270211
H75   H     H_    0.850754 0.937521 0.388041 0.158169
H76   H     H_    0.833757 0.863700 0.365769 0.110885
H77   H     H_    0.957126 0.931796 0.355943 0.233898
H78   H     H_    0.951253 0.850450 0.343120 0.206950
H79   H     H_    0.328842 0.207481 0.702713 0.148563
H80   H     H_    0.876109 0.868184 0.266160 0.271339
H81   H     H_    0.943895 0.913697 0.253737 0.273871
H82   H     H_    0.875380 0.949662 0.281018 0.270209
H83   H     H_    0.937523 0.850757 0.611960 0.158176
H84   H     H_    0.863702 0.833757 0.634231 0.110884
H85   H     H_    0.931791 0.957131 0.644058 0.233903
H86   H     H_    0.850446 0.951251 0.656884 0.206945
H87   H     H_    0.868188 0.876105 0.733841 0.271337
H88   H     H_    0.913697 0.943894 0.746265 0.273870
H89   H     H_    0.949666 0.875383 0.718981 0.270205
H90   H     H_    0.253767 0.191545 0.677391 0.116867
H91   H     H_    0.850754 0.062477 0.611958 0.158167
H92   H     H_    0.833757 0.136298 0.634232 0.110882
H93   H     H_    0.957128 0.068204 0.644057 0.233904
H94   H     H_    0.951252 0.149549 0.656883 0.206943
H95   H     H_    0.876107 0.131812 0.733841 0.271336
H96   H     H_    0.943894 0.086298 0.746264 0.273864
H97   H     H_    0.875378 0.050333 0.718980 0.270206
H98   H     H_    0.062476 0.149242 0.611961 0.158170
H99   H     H_    0.136296 0.166243 0.634232 0.110881
H100  H     H_    0.068209 0.042867 0.644060 0.233909
H101  H     H_    0.341842 0.296091 0.640435 0.230410
H102  H     H_    0.149553 0.048751 0.656887 0.206943
H103  H     H_    0.131808 0.123897 0.733842 0.271341
H104  H     H_    0.086300 0.056108 0.746267 0.273856
H105  H     H_    0.050331 0.124618 0.718980 0.270211
H106  H     H_    0.149225 0.937529 0.611967 0.158193
H107  H     H_    0.166258 0.863712 0.634220 0.110883
H108  H     H_    0.042855 0.931745 0.644073 0.233922
H109  H     H_    0.048778 0.850404 0.656894 0.206955
H110  H     H_    0.123960 0.868200 0.733827 0.271350
H111  H     H_    0.056120 0.913610 0.746285 0.273877
H112  H     H_    0.192837 0.213014 0.416168 0.171540
H113  H     H_    0.270762 0.280754 0.604274 0.224692
H114  H     H_    0.124569 0.949677 0.718990 0.270227
H115  H     H_    0.562478 0.350754 0.888041 0.158167
H116  H     H_    0.636299 0.333759 0.865767 0.110887
H117  H     H_    0.568200 0.457126 0.855944 0.233902
H118  H     H_    0.649545 0.451256 0.843120 0.206950
H119  H     H_    0.631817 0.376119 0.766157 0.271345
H120  H     H_    0.586291 0.443895 0.753738 0.273869
H121  H     H_    0.550341 0.375373 0.781018 0.270214
H122  H     H_    0.649245 0.562478 0.888041 0.158168
H123  H     H_    0.666242 0.636298 0.865768 0.110884
H124  H     H_    0.212161 0.299707 0.693233 0.272467
H125  H     H_    0.542872 0.568204 0.855943 0.233902
H126  H     H_    0.548748 0.649549 0.843117 0.206947
H127  H     H_    0.623890 0.631812 0.766158 0.271341
H128  H     H_    0.556105 0.586296 0.753737 0.273865
H129  H     H_    0.624621 0.550334 0.781020 0.270212
H130  H     H_    0.437523 0.649245 0.888040 0.158165
H131  H     H_    0.363702 0.666240 0.865766 0.110881
H132  H     H_    0.431800 0.542871 0.855944 0.233896
H133  H     H_    0.350454 0.548742 0.843120 0.206945
H134  H     H_    0.368187 0.623885 0.766158 0.271338
H135  H     H_    0.260626 0.364355 0.676724 0.276841
H136  H     H_    0.413703 0.556101 0.753737 0.273867
H137  H     H_    0.449664 0.624618 0.781018 0.270212
H138  H     H_    0.350756 0.437522 0.888040 0.158167
H139  H     H_    0.333758 0.363701 0.865768 0.110885
H140  H     H_    0.457128 0.431795 0.855942 0.233899
H141  H     H_    0.451254 0.350449 0.843120 0.206949
H142  H     H_    0.376110 0.368182 0.766160 0.271339
H143  H     H_    0.443896 0.413694 0.753736 0.273867
H144  H     H_    0.375381 0.449661 0.781017 0.270210
H145  H     H_    0.437522 0.350756 0.111960 0.158169
H146  H     H_    0.282990 0.311634 0.732263 0.256325
H147  H     H_    0.363702 0.333758 0.134232 0.110884
H148  H     H_    0.431794 0.457129 0.144058 0.233904
H149  H     H_    0.350449 0.451252 0.156883 0.206946
H150  H     H_    0.368187 0.376108 0.233841 0.271340
H151  H     H_    0.413699 0.443895 0.246265 0.273865
H152  H     H_    0.449665 0.375381 0.218981 0.270210
H153  H     H_    0.350757 0.562476 0.111960 0.158171
H154  H     H_    0.333756 0.636296 0.134231 0.110884
H155  H     H_    0.457131 0.568211 0.144058 0.233906
H156  H     H_    0.451248 0.649555 0.156885 0.206945
H157  H     H_    0.792517 0.328842 0.702710 0.148565
H158  H     H_    0.376104 0.631810 0.233842 0.271344
H159  H     H_    0.443893 0.586302 0.246265 0.273865
H160  H     H_    0.375382 0.550333 0.218980 0.270212
H161  H     H_    0.562477 0.649242 0.111960 0.158174
H162  H     H_    0.636296 0.666245 0.134230 0.110884
H163  H     H_    0.568213 0.542870 0.144060 0.233906
H164  H     H_    0.649557 0.548754 0.156885 0.206949
H165  H     H_    0.631809 0.623903 0.233840 0.271342
H166  H     H_    0.586310 0.556109 0.246267 0.273867
H167  H     H_    0.550332 0.624614 0.218981 0.270213
H168  H     H_    0.808451 0.253767 0.677388 0.116865
H169  H     H_    0.649244 0.437523 0.111960 0.158170
H170  H     H_    0.666242 0.363702 0.134232 0.110883
H171  H     H_    0.542871 0.431795 0.144057 0.233903
H172  H     H_    0.548747 0.350450 0.156882 0.206947
H173  H     H_    0.623891 0.368189 0.233841 0.271344
H174  H     H_    0.556105 0.413699 0.246264 0.273869
H175  H     H_    0.624617 0.449666 0.218981 0.270213
H176  H     H_    0.703908 0.341843 0.640429 0.230411
H177  H     H_    0.719243 0.270761 0.604271 0.224690
H178  H     H_    0.700288 0.212165 0.693232 0.272468
H179  H     H_    0.635641 0.260631 0.676722 0.276842
H180  H     H_    0.786987 0.192836 0.416167 0.171539
H181  H     H_    0.688363 0.282995 0.732259 0.256327
H182  H     H_    0.671157 0.792518 0.702711 0.148564
H183  H     H_    0.746233 0.808454 0.677389 0.116867
H184  H     H_    0.658158 0.703908 0.640433 0.230410
H185  H     H_    0.729238 0.719244 0.604272 0.224691
H186  H     H_    0.787838 0.700293 0.693232 0.272467
H187  H     H_    0.739373 0.635644 0.676724 0.276841
H188  H     H_    0.717009 0.688365 0.732261 0.256325
H189  H     H_    0.207489 0.671160 0.702706 0.148563
H190  H     H_    0.191554 0.746236 0.677383 0.116869
H191  H     H_    0.807162 0.786986 0.416170 0.171541
H192  H     H_    0.296095 0.658157 0.640421 0.230411
H193  H     H_    0.280760 0.729241 0.604264 0.224684
H194  H     H_    0.299721 0.787836 0.693226 0.272464
H195  H     H_    0.364366 0.739367 0.676714 0.276838
H196  H     H_    0.311644 0.717004 0.732253 0.256324
H197  H     H_    0.671158 0.207479 0.297288 0.148564
H198  H     H_    0.746234 0.191545 0.322610 0.116866
H199  H     H_    0.658159 0.296091 0.359566 0.230410
H200  H     H_    0.729242 0.280757 0.395724 0.224686
H201  H     H_    0.787837 0.299708 0.306760 0.272466
H202  H     H_    0.786986 0.807164 0.583833 0.171540
H203  H     H_    0.739371 0.364356 0.323269 0.276840
H204  H     H_    0.717005 0.311631 0.267733 0.256321
H205  H     H_    0.207483 0.328842 0.297290 0.148563
H206  H     H_    0.191547 0.253766 0.322612 0.116866
H207  H     H_    0.296093 0.341842 0.359568 0.230410
H208  H     H_    0.280757 0.270761 0.395729 0.224691
H209  H     H_    0.299709 0.212161 0.306769 0.272467
H210  H     H_    0.364357 0.260626 0.323277 0.276841
H211  H     H_    0.311636 0.282990 0.267740 0.256325
H212  H     H_    0.328843 0.792520 0.297287 0.148562
H213  H     H_    0.807163 0.213013 0.583833 0.171539
H214  H     H_    0.253768 0.808455 0.322609 0.116863
H215  H     H_    0.341841 0.703908 0.359563 0.230407
H216  H     H_    0.270762 0.719245 0.395725 0.224692
H217  H     H_    0.212160 0.700296 0.306765 0.272469
H218  H     H_    0.260624 0.635645 0.323273 0.276841
H219  H     H_    0.282988 0.688368 0.267735 0.256324
H220  H     H_    0.792517 0.671158 0.297291 0.148563
H221  H     H_    0.808453 0.746233 0.322613 0.116866
H222  H     H_    0.703905 0.658160 0.359568 0.230409
H223  H     H_    0.719242 0.729239 0.395730 0.224692
H224  H     H_    0.213013 0.192835 0.583836 0.171539
H225  H     H_    0.700293 0.787841 0.306771 0.272467
H226  H     H_    0.635643 0.739377 0.323278 0.276842
H227  H     H_    0.688365 0.717013 0.267740 0.256325
H228  H     H_    0.828842 0.707483 0.202711 0.148563
H229  H     H_    0.753766 0.691548 0.177388 0.116867
H230  H     H_    0.841842 0.796093 0.140432 0.230410
H231  H     H_    0.770762 0.780756 0.104271 0.224691
H232  H     H_    0.712161 0.799709 0.193230 0.272467
H233  H     H_    0.760627 0.864358 0.176721 0.276841
H234  H     H_    0.782990 0.811637 0.232260 0.256326
H235  H     H_    0.192839 0.786988 0.583829 0.171537
H236  H     H_    0.292517 0.828845 0.202709 0.148563
H237  H     H_    0.308450 0.753768 0.177388 0.116862
H238  H     H_    0.203909 0.841846 0.140425 0.230411
H239  H     H_    0.219241 0.770759 0.104273 0.224680
H240  H     H_    0.200282 0.712173 0.193241 0.272466
H241  H     H_    0.135637 0.760641 0.176726 0.276837
H242  H     H_    0.188360 0.783010 0.232262 0.256322
H243  H     H_    0.171157 0.292517 0.202710 0.148563
H244  H     H_    0.246232 0.308453 0.177388 0.116866
H245  H     H_    0.158158 0.203907 0.140432 0.230409
H246  H     H_    0.713013 0.307163 0.916167 0.171540
H247  H     H_    0.229237 0.219244 0.104270 0.224692
H248  H     H_    0.287839 0.200292 0.193229 0.272467
H249  H     H_    0.239374 0.135643 0.176721 0.276841
H250  H     H_    0.217010 0.188364 0.232259 0.256325
H251  H     H_    0.707486 0.171158 0.202708 0.148564
H252  H     H_    0.691550 0.246233 0.177387 0.116864
H253  H     H_    0.796095 0.158159 0.140426 0.230410
H254  H     H_    0.780757 0.229240 0.104267 0.224690
H255  H     H_    0.799712 0.287839 0.193228 0.272468
H256  H     H_    0.864360 0.239374 0.176716 0.276841
O1    O     O_R   0.408370 0.051730 0.500010 -0.603866
O2    O     O_R   0.448270 0.908370 0.000010 -0.603864
O3    O     O_R   0.091630 0.448270 0.000010 -0.603865
O4    O     O_R   0.551730 0.091630 0.000010 -0.603865
O5    O     O_R   0.091630 0.551730 0.999990 -0.603866
O6    O     O_R   0.551730 0.908370 0.999990 -0.603866
O7    O     O_R   0.908370 0.448270 0.999990 -0.603865
O8    O     O_R   0.448270 0.091630 0.999990 -0.603865
O9    O     O_R   0.499980 0.051730 0.417240 -0.606009
O10   O     O_R   0.948270 0.499980 0.417240 -0.606009
O11   O     O_R   0.500020 0.948270 0.417240 -0.606009
O12   O     O_R   0.948270 0.408370 0.500010 -0.603865
O13   O     O_R   0.051730 0.500020 0.417240 -0.606010
O14   O     O_R   0.500020 0.051730 0.582760 -0.606009
O15   O     O_R   0.051730 0.499980 0.582760 -0.606009
O16   O     O_R   0.499980 0.948270 0.582760 -0.606009
O17   O     O_R   0.948270 0.500020 0.582760 -0.606009
O18   O     O_R   0.999980 0.551730 0.917240 -0.606010
O19   O     O_R   0.448270 0.999980 0.917240 -0.606008
O20   O     O_R   0.000020 0.448270 0.917240 -0.606009
O21   O     O_R   0.551730 0.000020 0.917240 -0.606009
O22   O     O_R   0.000020 0.551730 0.082760 -0.606009
O23   O     O_R   0.591630 0.948270 0.500010 -0.603866
O24   O     O_R   0.551730 0.999980 0.082760 -0.606009
O25   O     O_R   0.999980 0.448270 0.082760 -0.606009
O26   O     O_R   0.448270 0.000020 0.082760 -0.606009
O27   O     O_R   0.999980 0.091600 0.546760 -0.632196
O28   O     O_R   0.908400 0.999980 0.546760 -0.632197
O29   O     O_R   0.000020 0.908400 0.546760 -0.632192
O30   O     O_R   0.091600 0.000020 0.546760 -0.632191
O31   O     O_R   0.000020 0.091600 0.453240 -0.632200
O32   O     O_R   0.091600 0.999980 0.453240 -0.632203
O33   O     O_R   0.999980 0.908400 0.453240 -0.632202
O34   O     O_R   0.051730 0.591630 0.500010 -0.603864
O35   O     O_R   0.908400 0.000020 0.453240 -0.632200
O36   O     O_R   0.499980 0.591600 0.046760 -0.632198
O37   O     O_R   0.408400 0.499980 0.046760 -0.632197
O38   O     O_R   0.500020 0.408400 0.046760 -0.632198
O39   O     O_R   0.591600 0.500020 0.046760 -0.632197
O40   O     O_R   0.500020 0.591600 0.953240 -0.632200
O41   O     O_R   0.591600 0.499980 0.953240 -0.632200
O42   O     O_R   0.499980 0.408400 0.953240 -0.632199
O43   O     O_R   0.408400 0.500020 0.953240 -0.632200
O44   O     O_3   0.328765 0.175425 0.620693 -0.638221
O45   O     O_R   0.591630 0.051730 0.499990 -0.603865
O46   O     O_3   0.824573 0.328766 0.620691 -0.638221
O47   O     O_3   0.671234 0.824573 0.620691 -0.638221
O48   O     O_3   0.175430 0.671236 0.620687 -0.638222
O49   O     O_3   0.671235 0.175427 0.379309 -0.638220
O50   O     O_3   0.175427 0.328765 0.379310 -0.638221
O51   O     O_3   0.328766 0.824574 0.379308 -0.638221
O52   O     O_3   0.824571 0.671234 0.379311 -0.638220
O53   O     O_3   0.828766 0.675427 0.120691 -0.638221
O54   O     O_3   0.324572 0.828766 0.120689 -0.638220
O55   O     O_3   0.171234 0.324573 0.120691 -0.638221
O56   O     O_R   0.051730 0.408370 0.499990 -0.603865
O57   O     O_3   0.675428 0.171235 0.120689 -0.638221
O58   O     O_3   0.171237 0.675426 0.879306 -0.638221
O59   O     O_3   0.675427 0.828766 0.879309 -0.638221
O60   O     O_3   0.828765 0.324572 0.879310 -0.638221
O61   O     O_3   0.324571 0.171234 0.879311 -0.638220
O62   O     O_3   0.366799 0.946726 0.396134 -0.787371
O63   O     O_3   0.053275 0.366798 0.396135 -0.787370
O64   O     O_3   0.633202 0.053275 0.396135 -0.787370
O65   O     O_3   0.946724 0.633202 0.396135 -0.787370
O66   O     O_3   0.633202 0.946726 0.603865 -0.787370
O67   O     O_R   0.408370 0.948270 0.499990 -0.603865
O68   O     O_3   0.946725 0.366798 0.603865 -0.787370
O69   O     O_3   0.366798 0.053273 0.603866 -0.787370
O70   O     O_3   0.053277 0.633203 0.603864 -0.787369
O71   O     O_3   0.866798 0.446724 0.896135 -0.787370
O72   O     O_3   0.553274 0.866798 0.896135 -0.787370
O73   O     O_3   0.133202 0.553274 0.896135 -0.787371
O74   O     O_3   0.446724 0.133202 0.896135 -0.787370
O75   O     O_3   0.133202 0.446726 0.103865 -0.787370
O76   O     O_3   0.446725 0.866798 0.103865 -0.787370
O77   O     O_3   0.866798 0.553275 0.103865 -0.787370
O78   O     O_R   0.948270 0.591630 0.499990 -0.603866
O79   O     O_3   0.553276 0.133202 0.103865 -0.787370
O80   O     O_3   0.128238 0.890142 0.440230 -0.612388
O81   O     O_3   0.109858 0.128238 0.440231 -0.612386
O82   O     O_3   0.871763 0.109858 0.440230 -0.612386
O83   O     O_3   0.890141 0.871762 0.440232 -0.612386
O84   O     O_3   0.871762 0.890142 0.559770 -0.612385
O85   O     O_3   0.890142 0.128238 0.559769 -0.612387
O86   O     O_3   0.128237 0.109857 0.559771 -0.612386
O87   O     O_3   0.109858 0.871763 0.559769 -0.612388
O88   O     O_3   0.628237 0.390142 0.940231 -0.612386
O89   O     O_R   0.908370 0.551730 0.000010 -0.603865
O90   O     O_3   0.609858 0.628238 0.940231 -0.612385
O91   O     O_3   0.371763 0.609858 0.940231 -0.612386
O92   O     O_3   0.390142 0.371762 0.940231 -0.612386
O93   O     O_3   0.371762 0.390142 0.059769 -0.612386
O94   O     O_3   0.390142 0.628237 0.059770 -0.612387
O95   O     O_3   0.628238 0.609858 0.059769 -0.612386
O96   O     O_3   0.609858 0.371763 0.059769 -0.612386
Zn1   Zn    Zn3+2 0.500000 0.069080 0.500000 1.038148
Zn2   Zn    Zn3+2 1.000000 0.000000 0.437580 0.920950
Zn3   Zn    Zn3+2 0.500000 0.500000 0.062420 0.920957
Zn4   Zn    Zn3+2 0.500000 0.500000 0.937580 0.920952
Zn5   Zn    Zn3+2 0.930920 0.500000 0.500000 1.038148
Zn6   Zn    Zn3+2 0.500000 0.930920 0.500000 1.038148
Zn7   Zn    Zn3+2 0.069080 0.500000 0.500000 1.038148
Zn8   Zn    Zn3+2 1.000000 0.569080 0.000000 1.038147
Zn9   Zn    Zn3+2 0.430920 0.000000 0.000000 1.038150
Zn10  Zn    Zn3+2 0.000000 0.430920 0.000000 1.038148
Zn11  Zn    Zn3+2 0.569080 0.000000 0.000000 1.038148
Zn12  Zn    Zn3+2 1.000000 0.000000 0.562420 0.920967

loop_
_geom_bond_atom_site_label_1
_geom_bond_atom_site_label_2
_ccdc_geom_bond_type
C1    C176  S    
C126  C127  S    
C158  O94   S    
C8    C26   A    
C115  O80   S    
O37   Zn3   S    
C13   C222  A    
C165  H171  S    
C15   C32   A    
C87   H228  S    
C164  H170  S    
C93   H240  S    
C108  H21   S    
C158  H154  S    
C95   H245  S    
C138  H107  S    
C113  C184  A    
C195  C203  S    
C78   H207  S    
C99   H255  S    
C133  H96   S    
C108  C109  S    
C102  H7    S    
C44   C168  A    
C248  O58   S    
C110  C111  S    
C130  H89   S    
C36   C53   A    
C19   C37   A    
C133  H97   S    
C38   C55   A    
C240  O49   S    
C154  H145  S    
C170  C187  S    
C142  H117  S    
C230  O72   S    
C84   H220  S    
C227  O8    A    
C132  H93   S    
C2    C177  A    
C196  C204  S    
C61   O44   S    
C129  H85   S    
O25   Zn10  S    
C152  H140  S    
C97   O57   S    
C160  H160  S    
C64   H157  S    
C38   O92   S    
C206  C214  T    
C35   C178  A    
C151  H139  S    
C197  O15   A    
C156  H151  S    
C97   H252  S    
C103  H8    S    
C127  H81   S    
C220  C238  A    
C197  C206  S    
C247  O59   S    
C9    H112  S    
C59   C171  A    
O22   Zn8   S    
C104  C105  S    
C86   H227  S    
C121  H69   S    
C28   C45   A    
C96   H249  S    
C88   H231  S    
O30   Zn12  S    
C145  C147  S    
C99   H3    S    
C76   H201  S    
O41   Zn4   S    
C235  O77   S    
C144  C145  S    
C64   O46   S    
C87   H229  S    
C16   C245  A    
C77   H205  S    
C2    C221  A    
C56   C174  A    
C81   H214  S    
C104  H11   S    
C246  O60   S    
C75   C76   S    
C16   H235  S    
C124  C182  A    
C136  H100  S    
C137  H103  S    
C148  H130  S    
C39   C56   A    
C116  H54   S    
C105  H15   S    
C106  H16   S    
O31   Zn2   S    
C146  C180  A    
C154  C155  S    
C91   H237  S    
C141  H116  S    
C195  O13   A    
C98   H254  S    
C12   C242  A    
C158  C159  S    
C186  O28   A    
C62   H101  S    
C183  O78   A    
C225  C243  A    
C17   C34   A    
C200  O25   A    
C189  O36   A    
H42   O70   S    
C223  O65   S    
C113  C232  A    
C105  C106  S    
C208  C217  T    
C7    C236  A    
C123  H73   S    
C106  H17   S    
C50   C57   A    
C34   C52   A    
C80   H210  S    
C91   O54   S    
C72   C73   S    
O32   Zn2   S    
C152  H141  S    
C139  C140  S    
C68   C228  A    
C29   O83   S    
C69   H184  S    
C200  C209  S    
C23   C41   A    
O45   Zn1   S    
C100  O58   S    
C127  H80   S    
C54   C174  A    
C21   H35   S    
C72   H193  S    
C109  H23   S    
C120  H65   S    
C13   C45   A    
C96   H248  S    
C145  H126  S    
C223  C241  A    
C73   H195  S    
C171  C192  S    
C241  O52   S    
C69   C70   S    
O42   Zn4   S    
C205  O6    A    
C48   C169  A    
C195  O10   A    
C144  H123  S    
C11   H191  S    
C88   C89   S    
C98   C99   S    
C118  H61   S    
C155  C156  S    
C153  H144  S    
C147  H129  S    
C199  O19   A    
C65   H177  S    
C86   H225  S    
O56   Zn7   S    
C74   H197  S    
C54   C101  A    
O6    Zn11  S    
C92   H238  S    
C14   C31   A    
C128  C129  S    
C64   H168  S    
O23   Zn6   S    
C97   C98   S    
C141  O88   S    
C53   C173  A    
C85   C86   S    
C29   C47   A    
C63   H124  S    
C111  H29   S    
C30   C48   A    
C104  H12   S    
C166  H175  S    
C91   H236  S    
C78   C80   S    
C13   C178  A    
C133  H95   S    
C20   C38   A    
C191  O38   A    
C40   O94   S    
C233  O75   S    
C161  H162  S    
C79   C229  A    
C18   C247  A    
C2    C44   A    
C15   H224  S    
C119  H62   S    
C107  C108  S    
C157  C184  A    
C107  O60   S    
C111  C114  S    
C52   C79   A    
C109  H26   S    
C75   H200  S    
C46   C177  A    
C94   H244  S    
C159  H156  S    
C82   H216  S    
C112  O56   A    
C19   C248  A    
C31   O85   S    
C161  H161  S    
C150  H137  S    
C228  O70   S    
C83   H218  S    
C156  H150  S    
C186  O35   A    
C131  O85   S    
C60   C157  A    
C49   C168  A    
H41   O69   S    
C14   H213  S    
C91   C92   S    
O29   Zn12  S    
C232  O74   S    
H43   O71   S    
C130  H87   S    
C210  C219  T    
C237  O51   S    
C227  O4    A    
C84   O52   S    
O21   Zn11  S    
C183  O34   A    
C143  H121  S    
C216  O5    A    
C155  H148  S    
C90   C181  A    
C94   O55   S    
C55   C175  A    
C135  C234  A    
C147  H127  S    
C40   C58   A    
C62   H113  S    
C188  O30   A    
C117  H58   S    
C194  O89   A    
C114  H31   S    
H39   O66   S    
O67   Zn6   S    
C122  H70   S    
O39   Zn3   S    
C61   H90   S    
C85   H223  S    
C11   C241  A    
C103  H10   S    
C163  H167  S    
C135  C181  A    
O17   Zn5   S    
C140  H111  S    
C129  C130  S    
C24   C223  A    
C172  C178  S    
C146  C235  A    
C125  H76   S    
C198  C207  S    
C134  H98   S    
O20   Zn10  S    
C244  O44   S    
O10   Zn5   S    
C70   H186  S    
C136  C137  S    
H45   O73   S    
C166  H173  S    
C66   H181  S    
C25   H68   S    
C43   C167  A    
C58   C135  A    
O15   Zn7   S    
C68   C179  A    
C201  O26   A    
C5    C234  A    
C61   H79   S    
C236  O79   S    
C108  H22   S    
C71   C72   S    
C162  H163  S    
C71   H190  S    
C78   H208  S    
C172  O23   A    
C167  C188  S    
H34   O62   S    
C117  H56   S    
C144  O90   S    
C82   H215  S    
C46   C225  A    
O36   Zn3   S    
C172  O45   A    
C61   C62   S    
C94   H243  S    
C134  O86   S    
C149  H133  S    
O12   Zn5   S    
C152  C153  S    
C107  H20   S    
C142  H118  S    
C90   C230  A    
C119  H63   S    
C143  H120  S    
C4    O55   S    
C230  C247  A    
C144  H122  S    
C150  H134  S    
C176  C238  A    
C87   C88   S    
C198  O20   A    
C156  H152  S    
C76   H203  S    
C97   H251  S    
C221  O63   S    
C190  O43   A    
C70   H188  S    
C149  H132  S    
C161  C162  S    
C190  O37   A    
C160  H158  S    
C211  C219  S    
C95   H247  S    
C77   C78   S    
C46   C49   A    
C96   H250  S    
C56   C124  A    
C164  C165  S    
C169  C186  S    
C226  O69   S    
C87   O53   S    
C63   H146  S    
O5    Zn8   S    
O35   Zn2   S    
C154  H147  S    
C188  O32   A    
C131  H92   S    
C34   O88   S    
C12   H202  S    
C66   H178  S    
C231  C248  A    
C36   O90   S    
C105  H14   S    
C229  O71   S    
C9    C239  A    
C151  C152  S    
C163  H165  S    
C93   H242  S    
C202  C211  T    
C141  H115  S    
O43   Zn4   S    
C196  O14   A    
C28   O82   S    
C220  O62   S    
C112  O12   A    
C120  H64   S    
C222  O64   S    
C31   C49   A    
C165  H172  S    
C35   C48   A    
O13   Zn7   S    
C89   H233  S    
C164  H169  S    
C106  H18   S    
O78   Zn5   S    
C132  H94   S    
C84   C85   S    
C7    O57   S    
C158  H153  S    
C128  O84   S    
C67   O47   S    
C138  H106  S    
O89   Zn8   S    
C125  O83   S    
C74   O49   S    
C99   H256  S    
C83   H219  S    
C193  C202  S    
C45   C169  A    
C115  H52   S    
C102  H6    S    
C191  O42   A    
C62   C63   S    
C114  H33   S    
C159  C160  S    
O28   Zn12  S    
C145  H125  S    
C89   H232  S    
C207  C215  T    
C73   H194  S    
C161  O95   S    
O16   Zn6   S    
C242  O47   S    
O24   Zn11  S    
O3    Zn10  S    
C243  O46   S    
C129  H86   S    
C121  C122  S    
C160  H159  S    
C174  C190  S    
C154  O93   S    
C124  C233  A    
C155  H149  S    
C221  C239  A    
C198  O18   A    
C81   O51   S    
C125  C126  S    
C153  H143  S    
C127  H82   S    
C1    O1    A    
C220  C237  A    
C23   H57   S    
C58   C173  A    
C67   H182  S    
C100  H5    S    
C22   H46   S    
H38   O65   S    
C136  H102  S    
C194  O7    A    
C9    C27   A    
C162  C163  S    
C86   H226  S    
C148  O91   S    
C10   C28   A    
C205  O2    A    
C12   C30   A    
C123  H72   S    
C74   H198  S    
O1    Zn1   S    
C51   C170  A    
C139  H108  S    
C25   C42   A    
O7    Zn10  S    
C193  O9    A    
O27   Zn12  S    
C157  C236  A    
C140  H110  S    
C33   C51   A    
C57   C226  A    
C77   H206  S    
C150  H136  S    
C7    C25   A    
C199  O21   A    
C239  O50   S    
C64   C65   S    
C149  C150  S    
C3    O61   S    
C137  H104  S    
C224  C242  A    
O40   Zn4   S    
C192  O39   A    
C222  C240  A    
C92   C93   S    
C121  O82   S    
H49   O76   S    
C94   C95   S    
C63   H135  S    
C138  C139  S    
C32   O86   S    
C14   C243  A    
C196  O16   A    
C72   H192  S    
C98   H253  S    
C82   C83   S    
C128  H84   S    
C53   C90   A    
C60   C175  A    
C142  C143  S    
C77   O50   S    
C137  H105  S    
C231  O73   S    
C184  C227  S    
C35   C224  A    
C18   C36   A    
C109  H25   S    
C115  C116  S    
C110  O61   S    
C120  H66   S    
C112  C177  S    
C201  O24   A    
C75   H199  S    
C6    C235  A    
C123  H74   S    
C10   C240  A    
C165  C166  S    
C6    O53   S    
C225  O68   S    
C26   O80   S    
C4    C233  A    
C80   H209  S    
C159  H155  S    
C73   H196  S    
C81   C82   S    
C8    C237  A    
C116  C117  S    
C140  H114  S    
O33   Zn2   S    
C83   H217  S    
C209  C218  T    
C1    O67   A    
C175  C191  S    
H47   O74   S    
C88   H230  S    
C130  H88   S    
C151  O92   S    
H40   O68   S    
O4    Zn11  S    
C84   H221  S    
C126  H77   S    
C79   C180  A    
C118  C119  S    
C199  C208  S    
H51   O79   S    
C226  C244  A    
C5    C22   A    
C117  H59   S    
C151  H138  S    
C132  C133  S    
C118  H60   S    
O11   Zn6   S    
C20   H24   S    
C115  H53   S    
C114  H32   S    
C122  H71   S    
C85   H222  S    
C182  C216  S    
C103  H9    S    
C102  C103  S    
C153  H142  S    
C216  O3    A    
C27   C44   A    
C52   C171  A    
C193  O11   A    
C26   C43   A    
C179  C183  S    
C71   O48   S    
C197  O17   A    
C41   O95   S    
C8    H1    S    
C163  H166  S    
C118  O81   S    
C74   C75   S    
C125  H75   S    
C134  H99   S    
C111  H30   S    
C3    C20   A    
C148  C149  S    
C41   C59   A    
C189  O40   A    
C42   C60   A    
C166  H174  S    
C213  C217  S    
C214  C215  S    
O38   Zn3   S    
C148  H131  S    
C134  C136  S    
C228  C245  A    
C55   C113  A    
C116  H55   S    
H44   O72   S    
O2    Zn9   S    
C204  C213  T    
C128  H83   S    
O26   Zn9   S    
C110  H27   S    
C67   C69   S    
C181  C205  S    
C138  O87   S    
C43   C238  A    
C162  H164  S    
C16   C33   A    
C19   H13   S    
C57   C176  A    
C30   O84   S    
C71   H189  S    
C21   C39   A    
O18   Zn8   S    
C89   H234  S    
C22   C40   A    
C126  H78   S    
C24   C179  A    
C100  C102  S    
C187  O33   A    
C101  C231  A    
C119  C120  S    
C200  O22   A    
C65   H176  S    
C32   C50   A    
C110  H28   S    
C229  C246  A    
O8    Zn9   S    
H37   O64   S    
C107  H19   S    
C203  C212  T    
C80   H211  S    
C39   O93   S    
C10   H180  S    
C143  H119  S    
C201  C210  S    
C47   C170  A    
C180  C194  S    
O34   Zn7   S    
C15   C244  A    
O9    Zn1   S    
C168  C185  S    
C76   H204  S    
C69   H185  S    
C24   C47   A    
C67   H183  S    
C192  O41   A    
C100  H4    S    
H48   O75   S    
C3    C232  A    
C121  H67   S    
O14   Zn1   S    
C37   C54   A    
C5    O54   S    
C33   O87   S    
O19   Zn9   S    
C17   H246  S    
C185  O27   A    
C139  H109  S    
C141  C142  S    
C164  O96   S    
C4    C21   A    
C212  C218  S    
C17   C246  A    
C18   H2    S    
C6    C23   A    
C185  O31   A    
C173  C189  S    
H36   O63   S    
C147  H128  S    
C81   H212  S    
C51   C68   A    
C187  O29   A    
C131  H91   S    
C70   H187  S    
C104  O59   S    
C59   C146  A    
C224  O66   S    
C66   H179  S    
C42   O96   S    
C11   C29   A    
C65   C66   S    
C50   C167  A    
C37   O91   S    
C234  O76   S    
C245  O48   S    
C92   H239  S    
C93   H241  S    
C122  C123  S    
C27   O81   S    
H50   O77   S    
C95   C96   S    
C101  C182  A    
C131  C132  S    
