data_mof_unit_44140.cif
_audit_creation_date              2012-12-11T15:55:47-0500
_audit_creation_method            fapswitch 2.2
_symmetry_space_group_name_H-M    P1
_symmetry_Int_Tables_number       1
_space_group_crystal_system       triclinic
_cell_length_a                    6.930739
_cell_length_b                    14.561461
_cell_length_c                    16.084854
_cell_angle_alpha                 89.963265
_cell_angle_beta                  90.163282
_cell_angle_gamma                 90.104689
_cell_volume                      1623.30094934

loop_
_atom_site_label
_atom_site_type_symbol
_atom_type_description
_atom_site_fract_x
_atom_site_fract_y
_atom_site_fract_z
_atom_type_partial_charge
O1    O     O_R   0.505680 0.583900 0.413320 -0.539202
O2    O     O_R   0.176010 0.594950 0.586080 -0.542742
O3    O     O_R   0.005680 0.416100 0.586680 -0.539150
C1    C     C_R   0.345492 0.617505 0.614528 0.686644
O4    O     O_R   0.175960 0.594930 0.413930 -0.543094
O5    O     O_R   0.005640 0.416080 0.413300 -0.540173
C2    C     C_R   0.344981 0.617195 0.384998 0.689731
O6    O     O_R   0.505720 0.583920 0.586700 -0.541506
O7    O     O_3   0.339190 0.441320 0.500000 -0.374259
V1    V     V_3+5 0.064350 0.510890 0.500000 1.392409
O8    O     O_R   0.675920 0.405050 0.413920 -0.543172
C3    C     C_R   0.844803 0.382763 0.384964 0.687068
O9    O     O_R   0.675960 0.405070 0.586070 -0.546786
C4    C     C_R   0.844993 0.382804 0.614769 0.700132
V2    V     V_3+5 0.564340 0.489110 0.500000 1.382697
O10   O     O_3   0.839370 0.558680 0.500000 -0.367033
C5    C     C_R   0.002928 0.319576 0.743866 0.121648
C6    C     C_R   0.853464 0.316828 0.684994 -0.149479
C7    C     C_R   0.704512 0.252469 0.698294 -0.190186
C8    C     C_R   0.714619 0.188881 0.764327 -0.179618
C9    C     C_R   0.874791 0.187258 0.818663 -0.113278
C10   C     C_R   0.013606 0.256242 0.808752 0.067871
C11   C     C_3   0.227740 0.249353 0.803670 -0.410345
C12   C     C_3   0.217219 0.318365 0.732373 -0.041297
H1    H     H_    0.274634 0.180069 0.783372 0.147806
H2    H     H_    0.300167 0.274904 0.860890 0.178406
H3    H     H_    0.257944 0.287528 0.671689 0.112083
C13   C     C_R   0.047035 0.224917 0.217740 -0.158072
H4    H     H_    0.187870 0.206622 0.194036 0.116379
C14   C     C_R   0.035694 0.288425 0.282941 -0.151463
H5    H     H_    0.168456 0.317230 0.307257 0.118984
C15   C     C_R   0.855945 0.314438 0.316124 -0.047199
C16   C     C_R   0.687863 0.275145 0.282158 -0.158064
H6    H     H_    0.547028 0.293445 0.305858 0.116360
C17   C     C_R   0.699204 0.211635 0.216958 -0.150931
H7    H     H_    0.566443 0.182833 0.192639 0.118975
C18   C     C_R   0.878956 0.185607 0.183788 -0.046986
C19   C     C_R   0.203561 0.747488 0.694920 -0.184965
C20   C     C_R   0.210811 0.815307 0.757185 0.149695
C21   C     C_R   0.374619 0.819403 0.811655 -0.062153
C22   C     C_R   0.528298 0.758237 0.797517 -0.208207
H8    H     H_    0.655438 0.759779 0.836813 0.128927
C23   C     C_R   0.520154 0.693380 0.733446 -0.165484
H9    H     H_    0.641015 0.647294 0.724981 0.125253
C24   C     C_R   0.356617 0.686631 0.682193 -0.061962
C25   C     C_R   0.188044 0.724687 0.282380 -0.157397
H10   H     H_    0.047246 0.706268 0.306223 0.116784
C26   C     C_R   0.199255 0.788220 0.217161 -0.151403
H11   H     H_    0.066498 0.816943 0.192950 0.119058
C27   C     C_R   0.378934 0.814362 0.183841 -0.047692
C28   C     C_R   0.547089 0.775197 0.217637 -0.157509
H12   H     H_    0.687883 0.793620 0.193793 0.116683
C29   C     C_R   0.535878 0.711660 0.282859 -0.150932
H13   H     H_    0.668629 0.682934 0.307074 0.119158
C30   C     C_R   0.356195 0.685521 0.316178 -0.047469
O11   O     O_R   0.229200 0.915950 0.913350 -0.538038
O12   O     O_R   0.559090 0.905000 0.086080 -0.542717
O13   O     O_R   0.729280 0.083880 0.086680 -0.539959
C31   C     C_R   0.390098 0.882694 0.115023 0.690128
O14   O     O_R   0.558920 0.904980 0.913920 -0.546100
O15   O     O_R   0.729110 0.083860 0.913300 -0.540183
C32   C     C_R   0.389042 0.885190 0.882949 0.691109
O16   O     O_R   0.229360 0.915970 0.086730 -0.539860
O17   O     O_3   0.395680 0.058580 0.000030 -0.368529
V3    V     V_3+5 0.670570 0.989070 0.999990 1.388574
O18   O     O_R   0.058820 0.094950 0.913870 -0.538834
C33   C     C_R   0.889454 0.117136 0.885223 0.710210
O19   O     O_R   0.058990 0.094970 0.086020 -0.543399
C34   C     C_R   0.890107 0.117247 0.114978 0.686878
V4    V     V_3+5 0.170560 0.010930 0.999930 1.392772
O20   O     O_3   0.895590 0.941310 0.999960 -0.372272
H14   H     H_    0.584485 0.248425 0.655370 0.129902
H15   H     H_    0.079518 0.744028 0.653849 0.120377
C35   C     C_3   0.046018 0.884076 0.758447 -0.353609
C36   C     C_3   0.112385 0.978432 0.728236 -0.741941
H16   H     H_    0.221506 0.008400 0.770866 0.214946
H17   H     H_    0.175767 0.972848 0.665090 0.219766
H18   H     H_    0.986809 0.025427 0.724893 0.208993
H19   H     H_    0.927361 0.861679 0.716357 0.166986
H20   H     H_    0.977338 0.888241 0.820388 0.199134
H21   H     H_    0.602124 0.137680 0.770074 0.124657
C37   C     C_3   0.321103 0.410534 0.749013 -0.295786
C38   C     C_3   0.229550 0.470990 0.816064 -0.759791
H22   H     H_    0.083520 0.493675 0.796328 0.219303
H23   H     H_    0.219315 0.433638 0.876034 0.226136
H24   H     H_    0.320047 0.533104 0.825632 0.216025
H25   H     H_    0.473327 0.396581 0.766582 0.183416
H26   H     H_    0.324032 0.449762 0.690041 0.188164

loop_
_geom_bond_atom_site_label_1
_geom_bond_atom_site_label_2
_ccdc_geom_bond_type
C18   C34   S    
C22   H8    S    
C4    C6    S    
C7    C8    A    
C12   H3    S    
C2    C30   S    
C1    O6    A    
O18   V4    S    
C29   H13   S    
C27   C31   S    
C13   H4    S    
C17   C18   A    
O5    C3    A    
C14   H5    S    
O12   C31   A    
C37   H25   S    
C21   C32   S    
O14   C32   A    
C6    C7    A    
C11   H2    S    
C12   C37   S    
C19   C24   A    
O9    C4    A    
O8    V2    S    
C17   H7    S    
O19   C34   A    
C25   C30   A    
C11   C12   S    
V4    O20   S    
O1    V2    S    
O17   V4    S    
O7    V1    S    
C26   C27   A    
O18   C33   A    
C35   H20   S    
C8    H21   S    
C9    C33   S    
C22   C23   A    
C7    H14   S    
C5    C6    A    
C1    C24   S    
C29   C30   A    
C25   C26   A    
C5    C12   S    
C35   C36   S    
C28   H12   S    
C20   C21   A    
O4    C2    A    
C27   C28   A    
V3    O20   S    
C28   C29   A    
O2    C1    A    
C36   H16   S    
C36   H17   S    
O15   C33   A    
O13   V3    S    
C38   H22   S    
O16   V4    S    
C38   H24   S    
C16   H6    S    
C23   C24   A    
O3    C4    A    
C26   H11   S    
C38   H23   S    
O14   V3    S    
O6    V2    S    
O11   V4    S    
C35   H19   S    
O9    V2    S    
C23   H9    S    
O11   C32   A    
O2    V1    S    
C25   H10   S    
C21   C22   A    
O1    C2    A    
O12   V3    S    
O5    V1    S    
O8    C3    A    
O13   C34   A    
C31   O16   A    
C5    C10   A    
C15   C16   A    
C13   C14   A    
O7    V2    S    
O4    V1    S    
O3    V1    S    
V1    O10   S    
O17   V3    S    
C14   C15   A    
C19   C20   A    
C13   C18   A    
C37   H26   S    
C16   C17   A    
C20   C35   S    
C36   H18   S    
O15   V3    S    
C11   H1    S    
C8    C9    A    
O19   V4    S    
C37   C38   S    
C10   C11   S    
C9    C10   A    
C3    C15   S    
V2    O10   S    
C19   H15   S    
