data_mof_unit_21993.cif
_audit_creation_date              2012-12-10T18:56:30-0500
_audit_creation_method            fapswitch 2.2
_symmetry_space_group_name_H-M    P1
_symmetry_Int_Tables_number       1
_space_group_crystal_system       triclinic
_cell_length_a                    10.791878
_cell_length_b                    9.790549
_cell_length_c                    19.125098
_cell_angle_alpha                 89.681045
_cell_angle_beta                  90.257336
_cell_angle_gamma                 89.989705
_cell_volume                      2020.67571881

loop_
_atom_site_label
_atom_site_type_symbol
_atom_type_description
_atom_site_fract_x
_atom_site_fract_y
_atom_site_fract_z
_atom_type_partial_charge
C1    C     C_R   0.873758 0.500048 0.497994 -0.433040
C2    C     C_R   0.740675 0.499964 0.499481 1.010878
C3    C     C_R   0.502856 0.500431 0.365484 0.951371
C4    C     C_R   0.501444 0.499559 0.634676 0.944340
C5    C     C_R   0.063460 0.382298 0.478070 0.316466
C6    C     C_R   0.939281 0.625851 0.498313 0.300554
C7    C     C_R   0.940159 0.374760 0.496335 0.299948
C8    C     C_R   0.062816 0.620127 0.517007 0.312772
C9    C     C_R   0.493754 0.376479 0.747140 -0.308496
C10   C     C_R   0.495041 0.619069 0.251874 -0.294382
C11   C     C_R   0.583735 0.391549 0.259463 -0.309712
C12   C     C_R   0.127952 0.500866 0.498363 -0.431434
C13   C     C_R   0.558951 0.613767 0.744715 -0.329170
C14   C     C_R   0.515582 0.369123 0.819377 0.447035
C15   C     C_R   0.521295 0.624961 0.180405 0.443053
C16   C     C_R   0.615586 0.397029 0.188814 0.445593
C17   C     C_R   0.583648 0.609580 0.816685 0.461446
C18   C     C_R   0.557703 0.487809 0.853380 -0.098629
C19   C     C_R   0.576458 0.510465 0.149151 -0.110473
C20   C     C_R   0.522573 0.071351 0.560209 -0.006273
C21   C     C_R   0.476967 0.928617 0.439833 -0.019401
C22   C     C_R   0.477348 0.072633 0.439795 0.029351
C23   C     C_R   0.679575 0.512351 0.962797 -0.137470
C24   C     C_R   0.522953 0.927352 0.560161 0.007930
C25   C     C_R   0.516012 0.497477 0.710247 -0.111469
C26   C     C_R   0.524699 0.502404 0.290813 -0.115668
C27   C     C_3   0.496384 0.127951 0.825758 0.085524
C28   C     C_3   0.366514 0.076178 0.806645 -0.333266
C29   C     C_3   0.372158 0.940885 0.767668 -0.941157
C30   C     C_3   0.507286 0.862101 0.165802 0.094462
C31   C     C_3   0.386576 0.936040 0.183935 -0.342956
C32   C     C_3   0.411216 0.080162 0.210505 -0.931119
C33   C     C_3   0.783249 0.248592 0.184986 0.099591
C34   C     C_R   0.462784 0.474596 0.040244 -0.140070
C35   C     C_3   0.887039 0.340883 0.157321 -0.399425
C36   C     C_3   0.012878 0.299080 0.187328 -0.861805
C37   C     C_3   0.705628 0.810458 0.820379 0.066475
C38   C     C_3   0.828745 0.738473 0.803921 -0.409023
C39   C     C_3   0.923347 0.839220 0.774610 -0.816765
C40   C     C_R   0.684177 0.519977 0.035285 -0.168507
C41   C     C_R   0.457853 0.468720 0.968090 -0.125848
C42   C     C_R   0.575585 0.501115 0.073656 0.228074
C43   C     C_R   0.566094 0.487662 0.929305 0.210994
C44   C     C_R   0.259960 0.500167 0.499662 1.061724
H1    H     H_    0.540656 0.125135 0.608380 0.116406
H2    H     H_    0.378691 0.460188 0.070172 0.138511
H3    H     H_    0.771058 0.542401 0.061233 0.122536
H4    H     H_    0.369673 0.451186 0.942340 0.150680
H5    H     H_    0.260125 0.255770 0.337185 0.363440
H6    H     H_    0.745234 0.845696 0.387368 0.371295
H7    H     H_    0.780190 0.144211 0.617218 0.365399
H8    H     H_    0.277163 0.755983 0.645990 0.370322
H9    H     H_    0.537953 0.053752 0.863207 0.176959
H10   H     H_    0.560035 0.129235 0.780051 0.111371
H11   H     H_    0.311940 0.061757 0.855289 0.233627
H12   H     H_    0.458134 0.874800 0.391752 0.119631
H13   H     H_    0.317054 0.152328 0.773619 0.227854
H14   H     H_    0.426524 0.952463 0.718834 0.242675
H15   H     H_    0.276797 0.907736 0.753859 0.282682
H16   H     H_    0.415242 0.861076 0.801251 0.290276
H17   H     H_    0.555400 0.921761 0.124452 0.181244
H18   H     H_    0.571630 0.860444 0.211654 0.120472
H19   H     H_    0.326736 0.942313 0.136559 0.238621
H20   H     H_    0.335518 0.877926 0.224626 0.223551
H21   H     H_    0.472047 0.076980 0.257487 0.250463
H22   H     H_    0.322188 0.129366 0.224711 0.265748
H23   H     H_    0.458680 0.127461 0.391711 0.118023
H24   H     H_    0.455847 0.142460 0.169030 0.299894
H25   H     H_    0.803430 0.141989 0.169006 0.168383
H26   H     H_    0.783836 0.247645 0.243097 0.152460
H27   H     H_    0.890188 0.334056 0.099374 0.228906
H28   H     H_    0.868315 0.448570 0.171980 0.219179
H29   H     H_    0.013016 0.308996 0.245151 0.306627
H30   H     H_    0.086094 0.366639 0.165692 0.258130
H31   H     H_    0.034695 0.191855 0.173207 0.258645
H32   H     H_    0.726587 0.895524 0.856753 0.169869
H33   H     H_    0.664683 0.860541 0.773522 0.121712
H34   H     H_    0.542074 0.872529 0.608182 0.105045
H35   H     H_    0.866837 0.691491 0.852455 0.223180
H36   H     H_    0.813773 0.656515 0.764873 0.232555
H37   H     H_    0.886571 0.888670 0.726390 0.289236
H38   H     H_    0.010215 0.784261 0.761621 0.288199
H39   H     H_    0.945073 0.919115 0.813809 0.242365
H40   H     H_    0.457227 0.289835 0.719090 0.165456
H41   H     H_    0.447645 0.702880 0.276834 0.161002
H42   H     H_    0.603640 0.300504 0.289868 0.167059
H43   H     H_    0.572216 0.706478 0.714959 0.163131
H44   H     H_    0.763392 0.527143 0.932809 0.132082
N1    N     N_R   0.500000 0.857200 0.500000 -0.068305
N2    N     N_R   0.500000 0.142800 0.500000 -0.067305
O1    O     O_R   0.316770 0.614620 0.500000 -0.568885
O2    O     O_2   0.023669 0.188405 0.380623 -0.257367
O3    O     O_3   0.223105 0.331885 0.363835 -0.598627
O4    O     O_2   0.807649 0.854351 0.522641 -0.246974
O5    O     O_2   0.983219 0.876140 0.442651 -0.157035
O6    O     O_3   0.786040 0.756749 0.396675 -0.569294
O7    O     O_2   0.805083 0.148615 0.470469 -0.235034
O8    O     O_2   0.987485 0.120220 0.545830 -0.161309
O9    O     O_3   0.795411 0.237275 0.598573 -0.579628
O10   O     O_2   0.195433 0.852841 0.527851 -0.215215
O11   O     O_2   0.023583 0.823326 0.609600 -0.247439
O12   O     O_R   0.683230 0.385380 0.500000 -0.552899
O13   O     O_3   0.222047 0.680614 0.631075 -0.589652
O14   O     O_3   0.487750 0.254780 0.860612 -0.647846
O15   O     O_3   0.479783 0.731659 0.137895 -0.638934
O16   O     O_3   0.667094 0.285034 0.155287 -0.654615
O17   O     O_3   0.619988 0.723929 0.855073 -0.646577
O18   O     O_R   0.683230 0.614620 0.500000 -0.559720
O19   O     O_R   0.316770 0.385380 0.500000 -0.565025
O20   O     O_R   0.500030 0.614710 0.398180 -0.636551
O21   O     O_R   0.499970 0.385290 0.601820 -0.634723
O22   O     O_R   0.499970 0.614710 0.601820 -0.639981
O23   O     O_R   0.500030 0.385290 0.398180 -0.634255
O24   O     O_2   0.195605 0.150479 0.462422 -0.212322
S1    S     S_3+6 0.126126 0.256616 0.420872 0.081460
S2    S     S_3+6 0.879397 0.784534 0.465904 0.126224
S3    S     S_3+6 0.882242 0.213967 0.526728 0.123348
S4    S     S_3+6 0.125574 0.750872 0.571584 0.091441
Zn1   Zn    Zn3+2 0.500000 0.653120 0.500000 1.037256
Zn2   Zn    Zn3+2 0.500000 0.346880 0.500000 1.048868

loop_
_geom_bond_atom_site_label_1
_geom_bond_atom_site_label_2
_ccdc_geom_bond_type
C40   H3    S    
H8    O13   S    
C7    S3    S    
C35   C36   S    
C34   C42   A    
C24   N1    A    
O24   S1    D    
C27   H10   S    
C9    C25   A    
C10   H41   S    
C21   N1    A    
C28   H13   S    
C15   C19   A    
O11   S4    D    
C28   C29   S    
C37   O17   S    
C10   C15   A    
C17   O17   S    
C30   C31   S    
C38   H35   S    
C2    O12   A    
C11   H42   S    
C23   C40   A    
C27   O14   S    
C23   C43   A    
C1    C2    S    
O3    S1    S    
C14   C18   A    
N1    Zn1   S    
C34   H2    S    
C20   H1    S    
C19   C42   S    
C16   O16   S    
C32   H24   S    
C44   O19   A    
C10   C26   A    
C40   C42   A    
C4    O22   A    
C35   H27   S    
C21   C22   A    
C5    S1    S    
C41   C43   A    
O18   Zn1   S    
C13   C25   A    
C34   C41   A    
C28   H11   S    
C4    C25   S    
H7    O9    S    
C8    S4    S    
C1    C6    A    
C31   H19   S    
C39   H37   S    
C5    C12   A    
C3    O23   A    
C5    C7    A    
O4    S2    D    
C6    C8    A    
C11   C26   A    
C20   N2    A    
O21   Zn2   S    
N2    Zn2   S    
O22   Zn1   S    
C9    C14   A    
C37   C38   S    
C36   H31   S    
O9    S3    S    
O23   Zn2   S    
C11   C16   A    
C14   O14   S    
C31   C32   S    
C29   H16   S    
O5    S2    D    
C8    C12   A    
C13   H43   S    
C17   C18   A    
C22   N2    A    
C6    S2    S    
C44   O1    A    
C36   H30   S    
C33   H26   S    
C24   H34   S    
C4    O21   A    
C35   H28   S    
C23   H44   S    
C30   H18   S    
C30   O15   S    
O1    Zn1   S    
O13   S4    S    
O10   S4    D    
O12   Zn2   S    
O8    S3    D    
C32   H22   S    
C37   H33   S    
C1    C7    A    
C31   H20   S    
C37   H32   S    
C3    C26   S    
C33   O16   S    
C39   H38   S    
O20   Zn1   S    
C21   H12   S    
C27   H9    S    
C33   H25   S    
C13   C17   A    
C15   O15   S    
C39   H39   S    
C12   C44   S    
C18   C43   S    
H6    O6    S    
C38   C39   S    
C38   H36   S    
C16   C19   A    
C2    O18   A    
C33   C35   S    
C41   H4    S    
O7    S3    D    
O2    S1    D    
C22   H23   S    
C36   H29   S    
C9    H40   S    
C29   H14   S    
C30   H17   S    
C27   C28   S    
C29   H15   S    
O6    S2    S    
C3    O20   A    
H5    O3    S    
C20   C24   A    
O19   Zn2   S    
C32   H21   S    
