data_mof_unit_60603.cif
_audit_creation_date              2012-10-26T18:25:08-0400
_audit_creation_method            fapswitch 2.2
_symmetry_space_group_name_H-M    P1
_symmetry_Int_Tables_number       1
_space_group_crystal_system       triclinic
_cell_length_a                    21.742698
_cell_length_b                    21.727935
_cell_length_c                    21.188804
_cell_angle_alpha                 120.619584
_cell_angle_beta                  120.629653
_cell_angle_gamma                 90.113596
_cell_volume                      6934.96474826

loop_
_atom_site_label
_atom_site_type_symbol
_atom_type_description
_atom_site_fract_x
_atom_site_fract_y
_atom_site_fract_z
_atom_type_partial_charge
Br1   Br    Br    0.405530 0.353694 0.106272 -0.560096
Br2   Br    Br    0.555219 0.679230 0.345021 -0.551675
Br3   Br    Br    0.694186 0.047632 0.929929 -0.546258
Br4   Br    Br    0.439860 0.609758 0.752941 -0.498132
C1    C     C_R   0.084675 0.584538 0.669245 0.550702
C2    C     C_R   0.494020 0.739168 0.766213 -0.070034
C3    C     C_R   0.491755 0.784671 0.737071 -0.125646
C4    C     C_R   0.117876 0.499183 0.498254 0.549672
C5    C     C_R   0.429211 0.761597 0.651407 -0.120517
C6    C     C_R   0.369048 0.692666 0.594454 -0.137694
C7    C     C_R   0.371727 0.645595 0.622141 0.043804
C8    C     C_1   0.136240 0.635652 0.771766 -0.016535
C9    C     C_1   0.178860 0.678085 0.856722 -0.028982
C10   C     C_1   0.229213 0.728419 0.957481 -0.004548
C11   C     C_1   0.271636 0.770889 0.042445 0.003446
C12   C     C_R   0.011482 0.210909 0.250479 -0.093570
C13   C     C_1   0.321972 0.821337 0.143226 -0.027153
C14   C     C_1   0.364391 0.863918 0.228200 -0.027493
C15   C     C_R   0.968900 0.460219 0.715448 -0.065037
C16   C     C_R   0.915197 0.415489 0.330746 0.526759
C17   C     C_R   0.902558 0.450991 0.641406 -0.102046
C18   C     C_R   0.886244 0.515096 0.646582 0.027640
C19   C     C_R   0.936404 0.588477 0.726689 -0.123802
C20   C     C_R   0.002418 0.597745 0.801000 -0.107610
C21   C     C_R   0.019095 0.533719 0.796322 0.176284
C22   C     C_R   0.752249 0.507137 0.568258 -0.165463
C23   C     C_R   0.253835 0.433222 0.441654 -0.149813
C24   C     C_R   0.685861 0.502016 0.498175 -0.027878
C25   C     C_R   0.682900 0.496399 0.427268 -0.000211
C26   C     C_R   0.746447 0.493302 0.425812 0.106997
C27   C     C_R   0.813448 0.498786 0.497324 0.013517
C28   C     C_R   0.880783 0.499369 0.498777 0.557940
C29   C     C_R   0.816195 0.505694 0.568609 -0.056932
C30   C     C_R   0.554585 0.436454 0.277830 -0.045520
C31   C     C_R   0.491731 0.443067 0.216564 0.146461
C32   C     C_R   0.491759 0.515161 0.236497 -0.036627
C33   C     C_R   0.554346 0.580777 0.318084 0.149001
C34   C     C_R   0.313841 0.502687 0.500817 0.014964
C35   C     C_R   0.616716 0.574318 0.379977 -0.063484
C36   C     C_R   0.617133 0.502159 0.360117 0.019474
C37   C     C_1   0.863495 0.364552 0.228202 -0.055631
C38   C     C_1   0.820815 0.322294 0.143232 -0.043118
C39   C     C_1   0.770456 0.272045 0.042454 0.023215
C40   C     C_R   0.082821 0.224301 0.322465 -0.115099
C41   C     C_1   0.728069 0.229603 0.957481 0.030886
C42   C     C_1   0.677834 0.179050 0.856711 -0.024465
C43   C     C_1   0.635533 0.136239 0.771754 -0.037466
C44   C     C_R   0.497138 0.619993 0.499705 0.555776
C45   C     C_R   0.309381 0.570979 0.558828 -0.002654
C46   C     C_R   0.380174 0.502146 0.500253 0.557847
C47   C     C_R   0.501474 0.380220 0.500079 0.568053
C48   C     C_R   0.619849 0.501697 0.499646 0.566584
C49   C     C_R   0.500982 0.119778 0.501881 0.541611
C50   C     C_R   0.415486 0.915327 0.330760 0.542234
C51   C     C_R   0.500751 0.882287 0.501634 0.560156
C52   C     C_R   0.140522 0.295982 0.384383 -0.085696
C53   C     C_R   0.584506 0.084601 0.669234 0.535441
C54   C     C_R   0.280973 0.517543 0.177196 -0.105588
C55   C     C_R   0.345040 0.583600 0.254410 -0.092444
C56   C     C_R   0.243547 0.568463 0.554966 -0.119595
C57   C     C_R   0.366131 0.612605 0.341723 0.047429
C58   C     C_R   0.320750 0.575330 0.349976 -0.058156
C59   C     C_R   0.256788 0.509262 0.272677 -0.099363
C60   C     C_R   0.236981 0.480300 0.186332 -0.097911
C61   C     C_R   0.438458 0.748336 0.426552 -0.113387
C62   C     C_R   0.500617 0.816198 0.502175 0.035965
C63   C     C_R   0.559409 0.820730 0.578047 -0.025703
C64   C     C_R   0.126828 0.355081 0.375181 0.047411
C65   C     C_R   0.555482 0.755900 0.576087 -0.135979
C66   C     C_R   0.494621 0.686752 0.499252 0.009067
C67   C     C_R   0.183748 0.498711 0.496524 0.007103
C68   C     C_R   0.434387 0.682812 0.423638 -0.011125
C69   C     C_R   0.682418 0.922313 0.663713 -0.072199
C70   C     C_R   0.743806 0.989485 0.744044 -0.141542
C71   C     C_R   0.747214 0.026934 0.823027 -0.077360
C72   C     C_R   0.689007 0.997419 0.821728 0.180664
C73   C     C_R   0.627185 0.930654 0.741221 -0.077167
C74   C     C_R   0.623457 0.892872 0.661740 -0.010949
C75   C     C_R   0.533157 0.250576 0.274894 -0.072360
C76   C     C_R   0.055046 0.341227 0.302616 -0.075943
C77   C     C_R   0.502376 0.241071 0.315189 0.198420
C78   C     C_R   0.188776 0.430184 0.439427 -0.029222
C79   C     C_R   0.552495 0.265725 0.406398 0.044832
C80   C     C_R   0.631409 0.300245 0.455270 -0.122769
C81   C     C_R   0.660793 0.309528 0.414264 -0.120062
C82   C     C_R   0.611791 0.284760 0.324292 -0.132121
C83   C     C_R   0.524410 0.194941 0.455861 -0.152008
C84   C     C_R   0.502690 0.188094 0.504620 -0.001077
C85   C     C_R   0.482294 0.245928 0.553806 -0.029248
C86   C     C_R   0.481920 0.308329 0.550550 -0.150005
C87   C     C_R   0.502094 0.313954 0.500342 0.003391
C88   C     C_R   0.997735 0.269191 0.240352 -0.096810
C89   C     C_R   0.434208 0.669816 0.709403 0.210024
C90   C     C_R   0.524182 0.257575 0.453175 -0.040838
C91   C     C_R   0.394194 0.247785 0.597091 -0.084832
C92   C     C_R   0.377988 0.247966 0.653120 -0.104082
C93   C     C_R   0.432196 0.245989 0.725126 -0.090845
C94   C     C_R   0.502800 0.244058 0.741406 -0.091847
C95   C     C_R   0.519217 0.243743 0.685467 -0.058554
C96   C     C_R   0.464739 0.245031 0.612424 0.052983
C97   C     C_3   0.077499 0.507904 0.909028 -0.303244
C98   C     C_3   0.720858 0.406365 0.278585 -0.285565
C99   C     C_3   0.371814 0.234665 0.218290 -0.261470
Cu1   Cu    Cu3+1 0.000010 0.438210 0.500020 0.962513
Cu2   Cu    Cu3+1 0.999990 0.561790 0.499980 0.940799
Cu3   Cu    Cu3+1 0.457530 0.457560 0.415050 0.950853
Cu4   Cu    Cu3+1 0.542470 0.542480 0.584950 0.983839
Cu5   Cu    Cu3+1 0.561810 0.000000 0.500000 0.964791
Cu6   Cu    Cu3+1 0.438190 0.000000 0.500000 0.953174
H1    H     H_    0.966975 0.155275 0.202292 0.130354
H2    H     H_    0.093526 0.179039 0.330055 0.111331
H3    H     H_    0.554103 0.380602 0.262260 0.126596
H4    H     H_    0.443345 0.520117 0.188683 0.156577
H5    H     H_    0.664760 0.625326 0.443422 0.140554
H6    H     H_    0.187474 0.429106 0.126508 0.114639
H7    H     H_    0.265454 0.495222 0.110260 0.125412
H8    H     H_    0.378509 0.611773 0.246160 0.144424
H9    H     H_    0.335570 0.596715 0.416248 0.092294
H10   H     H_    0.222694 0.480475 0.279803 0.109226
H11   H     H_    0.195740 0.305560 0.439610 0.110052
H12   H     H_    0.538271 0.838101 0.781277 0.136221
H13   H     H_    0.392792 0.746696 0.369633 0.116461
H14   H     H_    0.601142 0.759245 0.634427 0.139088
H15   H     H_    0.681096 0.893002 0.603403 0.155545
H16   H     H_    0.789037 0.012217 0.745254 0.117379
H17   H     H_    0.795055 0.078706 0.885134 0.137041
H18   H     H_    0.582221 0.908109 0.740516 0.126282
H19   H     H_    0.634824 0.291746 0.292619 0.112502
H20   H     H_    0.496111 0.230816 0.204704 0.135544
H21   H     H_    0.043851 0.385834 0.293782 0.095410
H22   H     H_    0.670226 0.319983 0.525340 0.112353
H23   H     H_    0.427323 0.797148 0.629157 0.125158
H24   H     H_    0.721674 0.335890 0.452237 0.120310
H25   H     H_    0.541045 0.151102 0.419151 0.139995
H26   H     H_    0.466561 0.353255 0.588071 0.136012
H27   H     H_    0.351696 0.249323 0.541501 0.102819
H28   H     H_    0.323423 0.249721 0.640768 0.117652
H29   H     H_    0.419588 0.246207 0.768485 0.128758
H30   H     H_    0.544866 0.242997 0.797529 0.118070
H31   H     H_    0.574345 0.242760 0.699177 0.094992
H32   H     H_    0.942761 0.258303 0.183904 0.124729
H33   H     H_    0.257970 0.381018 0.397353 0.120688
H34   H     H_    0.320408 0.675901 0.528745 0.101735
H35   H     H_    0.239624 0.620872 0.599192 0.138318
H36   H     H_    0.542407 0.757825 0.833032 0.144736
H37   H     H_    0.126111 0.599019 0.921109 0.252743
H38   H     H_    0.134203 0.519326 0.966910 0.145963
H39   H     H_    0.048891 0.445033 0.857295 0.150128
H40   H     H_    0.043222 0.531639 0.934304 0.142845
H41   H     H_    0.786596 0.522153 0.370066 0.279898
H42   H     H_    0.715879 0.404590 0.222817 0.158888
H43   H     H_    0.664835 0.370687 0.250761 0.153019
H44   H     H_    0.764921 0.382279 0.303143 0.143256
H45   H     H_    0.981385 0.410045 0.709215 0.112012
H46   H     H_    0.403095 0.183351 0.286211 0.255471
H47   H     H_    0.337280 0.254116 0.244384 0.142219
H48   H     H_    0.332552 0.189087 0.143849 0.158730
H49   H     H_    0.403859 0.284171 0.230592 0.172396
H50   H     H_    0.864357 0.393990 0.579754 0.106184
H51   H     H_    0.924392 0.638446 0.731478 0.118873
H52   H     H_    0.040572 0.654901 0.862307 0.107050
H53   H     H_    0.754174 0.511843 0.622774 0.139730
N1    N     N_2   0.087611 0.543646 0.871418 -0.508914
N2    N     N_2   0.741822 0.484480 0.351862 -0.512286
N3    N     N_2   0.422013 0.204202 0.262654 -0.523499
O1    O     O_R   0.061970 0.509790 0.623960 -0.479495
O2    O     O_R   0.447790 0.090160 0.499970 -0.494231
O3    O     O_R   0.490230 0.938030 0.376060 -0.477035
O4    O     O_R   0.061960 0.614160 0.623930 -0.490408
O5    O     O_R   0.385840 0.938030 0.376050 -0.495355
O6    O     O_R   0.552210 0.909840 0.500030 -0.486654
O7    O     O_R   0.447820 0.909840 0.500030 -0.511518
O8    O     O_R   0.614160 0.061970 0.623950 -0.495273
O9    O     O_R   0.509770 0.061970 0.623940 -0.486132
O10   O     O_R   0.090190 0.447820 0.500020 -0.485761
O11   O     O_R   0.090170 0.552190 0.499990 -0.512334
O12   O     O_R   0.535870 0.626050 0.571740 -0.516132
O13   O     O_R   0.938040 0.385840 0.376070 -0.486509
O14   O     O_R   0.938030 0.490210 0.376040 -0.494047
O15   O     O_R   0.909830 0.447810 0.500010 -0.507923
O16   O     O_R   0.909810 0.552180 0.499980 -0.512546
O17   O     O_R   0.464140 0.554340 0.428270 -0.491723
O18   O     O_R   0.373960 0.464160 0.428260 -0.528525
O19   O     O_R   0.445680 0.535880 0.571730 -0.470720
O20   O     O_R   0.464130 0.373990 0.428260 -0.505845
O21   O     O_R   0.535860 0.445700 0.571730 -0.500963
O22   O     O_R   0.554320 0.464170 0.428270 -0.502819
O23   O     O_R   0.626040 0.535880 0.571740 -0.512737
O24   O     O_R   0.552180 0.090160 0.499970 -0.512746

loop_
_geom_bond_atom_site_label_1
_geom_bond_atom_site_label_2
_ccdc_geom_bond_type
C64   C76   A    
C83   C84   A    
C97   H39   S    
C30   H3    S    
C37   C38   T    
C50   O5    A    
C46   O18   A    
C26   N2    S    
C16   C37   S    
C4    O10   A    
C12   H1    S    
C34   C45   A    
C81   C82   A    
C8    C9    T    
Cu4   O21   S    
C58   C59   A    
C45   C56   A    
Cu2   O4    S    
C79   C80   A    
C30   C36   A    
C24   C25   A    
C15   C17   A    
C3    H12   S    
Cu3   O22   S    
C26   C27   A    
C94   C95   A    
C70   H16   S    
Cu3   Cu4   S    
C65   H14   S    
C23   C34   A    
C75   H20   S    
C83   C90   A    
C23   H33   S    
Cu5   Cu6   S    
C3    C5    A    
C30   C31   A    
C69   C70   A    
C44   O12   A    
Cu6   O2    S    
C47   C87   S    
C49   O2    A    
Cu1   O13   S    
C91   C92   A    
Cu2   O11   S    
C69   C74   A    
C27   C29   A    
C48   O22   A    
C16   O14   A    
C5    C6    A    
C17   H50   S    
C73   H18   S    
Cu6   O7    S    
C98   H42   S    
C67   C78   A    
C69   H15   S    
C62   C63   A    
Cu5   O3    S    
C55   H8    S    
C60   H6    S    
C9    C10   S    
C92   C93   A    
C54   H7    S    
C52   H11   S    
C83   H25   S    
C65   C66   A    
C63   C74   S    
Cu2   O14   S    
C32   H4    S    
C51   O6    A    
Cu1   Cu2   S    
C77   C79   A    
C61   H13   S    
C93   C94   A    
Cu1   O10   S    
C72   C73   A    
C54   C60   A    
H46   N3    S    
C35   H5    S    
C55   C57   A    
C76   H21   S    
C70   C71   A    
C85   C96   S    
C82   H19   S    
C28   O16   A    
C97   N1    S    
C80   C81   A    
C1    C8    S    
C50   O3    A    
C35   C36   A    
C75   C77   A    
C2    H36   S    
Cu6   O9    S    
C99   H48   S    
C16   O13   A    
C56   C67   A    
C54   C55   A    
C73   C74   A    
C79   C90   S    
Cu4   O23   S    
C22   H53   S    
Br4   C89   S    
C63   C65   A    
C31   C32   A    
C76   C88   A    
C71   C72   A    
Cu3   O17   S    
C25   C26   A    
C7    C45   S    
C43   C53   S    
C59   H10   S    
C40   C52   A    
C22   C29   A    
C27   C28   S    
C10   C11   T    
C19   C20   A    
C2    C89   A    
C19   H51   S    
C13   C14   T    
Cu5   O24   S    
C1    O1    A    
C20   C21   A    
C88   H32   S    
C39   C41   T    
C98   H44   S    
C20   H52   S    
C53   O8    A    
C57   C68   S    
C12   C88   A    
C95   H31   S    
C38   C39   S    
Cu5   O8    S    
C93   H29   S    
C92   H28   S    
C51   C62   S    
Cu6   O5    S    
Br1   C31   S    
C51   O7    A    
C5    H23   S    
C11   C13   S    
C18   C29   S    
C12   C40   A    
C42   C43   T    
C32   C33   A    
C4    C67   S    
C77   N3    S    
C91   C96   A    
C23   C78   A    
C46   O19   A    
Cu3   O20   S    
C44   C66   S    
C59   C60   A    
C66   C68   A    
C4    O11   A    
C99   H49   S    
C99   N3    S    
C2    C3    A    
C34   C46   S    
C61   C68   A    
H41   N2    S    
H37   N1    S    
C94   H30   S    
C80   H22   S    
C22   C24   A    
Br3   C72   S    
C95   C96   A    
Cu4   O19   S    
C71   H17   S    
C64   C78   S    
C33   C35   A    
C47   O21   A    
C52   C64   A    
C56   H35   S    
C87   C90   A    
C44   O17   A    
C86   H26   S    
C24   C48   S    
Br2   C33   S    
C97   H38   S    
C86   C87   A    
Cu1   O15   S    
C21   N1    S    
C25   C36   S    
C97   H40   S    
C91   H27   S    
C49   C84   S    
C6    H34   S    
C57   C58   A    
C15   C21   A    
Cu3   O18   S    
C58   H9    S    
C6    C7    A    
C14   C50   S    
Cu1   O1    S    
C53   O9    A    
C40   H2    S    
C41   C42   S    
C99   H47   S    
C84   C85   A    
C98   N2    S    
C61   C62   A    
Cu5   O6    S    
C98   H43   S    
C15   H45   S    
C1    O4    A    
C18   C19   A    
C28   O15   A    
C7    C89   A    
C48   O23   A    
Cu2   O16   S    
C85   C86   A    
C17   C18   A    
C49   O24   A    
C75   C82   A    
Cu4   O12   S    
C47   O20   A    
C81   H24   S    
