data_mof_unit_64477.cif
_audit_creation_date              2012-12-10T18:10:55-0500
_audit_creation_method            fapswitch 2.2
_symmetry_space_group_name_H-M    P1
_symmetry_Int_Tables_number       1
_space_group_crystal_system       triclinic
_cell_length_a                    21.610051
_cell_length_b                    21.610044
_cell_length_c                    35.556443
_cell_angle_alpha                 90.000482
_cell_angle_beta                  90.00096
_cell_angle_gamma                 89.999859
_cell_volume                      16604.6509778

loop_
_atom_site_label
_atom_site_type_symbol
_atom_type_description
_atom_site_fract_x
_atom_site_fract_y
_atom_site_fract_z
_atom_type_partial_charge
C1    C     C_R   0.500000 0.879622 0.000000 0.932904
C2    C     C_1   0.000004 0.499998 0.733188 -0.075749
C3    C     C_R   0.943793 0.500124 0.634599 -0.204537
C4    C     C_R   0.499889 0.056208 0.365401 -0.204535
C5    C     C_R   0.056207 0.500117 0.365401 -0.204535
C6    C     C_R   0.500114 0.943790 0.365401 -0.204537
C7    C     C_R   0.943789 0.499884 0.365401 -0.204536
C8    C     C_R   0.999834 0.443793 0.134599 -0.204542
C9    C     C_R   0.556211 0.999882 0.134599 -0.204535
C10   C     C_R   0.000163 0.556208 0.134599 -0.204539
C11   C     C_R   0.443793 0.000117 0.134599 -0.204540
C12   C     C_R   0.999872 0.556207 0.865401 -0.204537
C13   C     C_1   0.500004 0.999998 0.266812 -0.075749
C14   C     C_R   0.556206 0.000127 0.865401 -0.204537
C15   C     C_R   0.000131 0.443790 0.865401 -0.204538
C16   C     C_R   0.443790 0.999875 0.865401 -0.204538
C17   C     C_R   0.499999 0.000001 0.614726 -0.036016
C18   C     C_R   0.000001 0.499999 0.614726 -0.036014
C19   C     C_R   0.500001 0.999999 0.385273 -0.036016
C20   C     C_R   0.999998 0.500000 0.385273 -0.036017
C21   C     C_R   0.999999 0.500001 0.114726 -0.036014
C22   C     C_R   0.500001 0.999999 0.114726 -0.036014
C23   C     C_R   0.000001 0.499999 0.885274 -0.036017
C24   C     C_1   0.999996 0.500002 0.266812 -0.075748
C25   C     C_R   0.499998 0.000001 0.885274 -0.036017
C26   C     C_R   0.499997 0.000002 0.693185 0.163811
C27   C     C_R   0.000003 0.499998 0.693185 0.163811
C28   C     C_R   0.500003 0.999998 0.306815 0.163810
C29   C     C_R   0.999997 0.500002 0.306815 0.163810
C30   C     C_R   0.999997 0.500002 0.193185 0.163808
C31   C     C_R   0.500003 0.999998 0.193185 0.163812
C32   C     C_R   0.000003 0.499998 0.806815 0.163810
C33   C     C_R   0.499997 0.000002 0.806815 0.163809
C34   C     C_3   0.615442 0.689875 0.061492 0.128483
C35   C     C_1   0.999996 0.500002 0.233188 -0.075750
C36   C     C_3   0.667724 0.646593 0.072836 -0.774909
C37   C     C_3   0.310140 0.615414 0.061505 0.128490
C38   C     C_3   0.353409 0.667706 0.072850 -0.774863
C39   C     C_3   0.384458 0.310034 0.061464 0.128599
C40   C     C_3   0.332270 0.353423 0.072818 -0.774968
C41   C     C_3   0.689868 0.384584 0.061505 0.128483
C42   C     C_3   0.646597 0.332294 0.072850 -0.774829
C43   C     C_3   0.615435 0.310137 0.938512 0.128479
C44   C     C_3   0.667735 0.353402 0.927174 -0.774846
C45   C     C_3   0.310137 0.384593 0.938489 0.128492
C46   C     C_1   0.500004 0.999998 0.233188 -0.075749
C47   C     C_3   0.353405 0.332301 0.927143 -0.774857
C48   C     C_3   0.384569 0.689861 0.938507 0.128484
C49   C     C_3   0.332273 0.646593 0.927166 -0.774865
C50   C     C_3   0.689875 0.615429 0.938500 0.128495
C51   C     C_3   0.646584 0.667699 0.927151 -0.774938
C52   C     C_3   0.115454 0.189894 0.561493 0.128500
C53   C     C_3   0.167710 0.146587 0.572843 -0.774986
C54   C     C_3   0.810141 0.115423 0.561497 0.128498
C55   C     C_3   0.853408 0.167721 0.572838 -0.774792
C56   C     C_3   0.884560 0.810119 0.561494 0.128505
C57   C     C_1   0.000004 0.499998 0.766812 -0.075750
C58   C     C_3   0.832289 0.853412 0.572841 -0.774906
C59   C     C_3   0.189863 0.884578 0.561499 0.128485
C60   C     C_3   0.146596 0.832284 0.572841 -0.774862
C61   C     C_3   0.115412 0.810147 0.438500 0.128465
C62   C     C_3   0.167715 0.853403 0.427158 -0.774884
C63   C     C_3   0.810112 0.884553 0.438505 0.128506
C64   C     C_3   0.853412 0.832289 0.427158 -0.774937
C65   C     C_3   0.884575 0.189863 0.438502 0.128487
C66   C     C_3   0.832282 0.146593 0.427159 -0.774861
C67   C     C_3   0.189858 0.115419 0.438501 0.128479
C68   C     C_1   0.499996 0.000002 0.766812 -0.075750
C69   C     C_3   0.146592 0.167715 0.427159 -0.774867
C70   C     C_R   0.552685 0.717168 0.012672 0.401541
C71   C     C_R   0.282832 0.552682 0.012677 0.401507
C72   C     C_R   0.447313 0.282836 0.012666 0.401596
C73   C     C_R   0.120377 0.500000 1.000000 0.932900
C74   C     C_R   0.717169 0.447319 0.012678 0.401513
C75   C     C_R   0.552688 0.282831 0.987332 0.401455
C76   C     C_R   0.282831 0.447320 0.987320 0.401530
C77   C     C_R   0.447314 0.717168 0.987329 0.401516
C78   C     C_R   0.717167 0.552682 0.987324 0.401545
C79   C     C_R   0.052684 0.217167 0.512674 0.401552
C80   C     C_R   0.782832 0.052685 0.512672 0.401506
C81   C     C_R   0.947317 0.782833 0.512673 0.401553
C82   C     C_R   0.217168 0.947317 0.512675 0.401520
C83   C     C_R   0.052684 0.782831 0.487326 0.401500
C84   C     C_R   0.500000 0.120378 1.000000 0.932903
C85   C     C_R   0.782832 0.947316 0.487326 0.401549
C86   C     C_R   0.947316 0.217168 0.487326 0.401505
C87   C     C_R   0.217168 0.052684 0.487327 0.401537
C88   C     C_R   0.379895 0.500000 1.000000 1.047843
C89   C     C_R   0.500004 0.379895 1.000000 1.047865
C90   C     C_R   0.620105 0.500000 0.000000 1.047804
C91   C     C_R   0.500000 0.620104 0.000000 1.047819
C92   C     C_R   0.879895 0.000001 0.500000 1.047827
C93   C     C_R   0.000001 0.879895 0.500000 1.047824
C94   C     C_R   0.120105 0.000000 0.500000 1.047812
C95   C     C_R   0.879622 0.500000 0.000000 0.932901
C96   C     C_R   0.999999 0.120105 0.500000 1.047822
C97   C     C_R   0.553094 0.781301 0.011478 -0.302101
C98   C     C_R   0.218699 0.553090 0.011483 -0.302065
C99   C     C_R   0.446903 0.218701 0.011471 -0.302237
C100  C     C_R   0.781302 0.446910 0.011483 -0.302073
C101  C     C_R   0.553096 0.218698 0.988527 -0.302055
C102  C     C_R   0.218698 0.446911 0.988514 -0.302165
C103  C     C_R   0.446906 0.781301 0.988523 -0.302063
C104  C     C_R   0.781301 0.553091 0.988518 -0.302107
C105  C     C_R   0.053093 0.281301 0.511480 -0.302118
C106  C     C_R   0.000000 0.379622 0.500000 0.932900
C107  C     C_R   0.718699 0.053093 0.511479 -0.302061
C108  C     C_R   0.946908 0.718699 0.511479 -0.302125
C109  C     C_R   0.281301 0.946908 0.511481 -0.302053
C110  C     C_R   0.053092 0.718698 0.488520 -0.302046
C111  C     C_R   0.718699 0.946907 0.488520 -0.302126
C112  C     C_R   0.946907 0.281301 0.488520 -0.302067
C113  C     C_R   0.281301 0.053092 0.488520 -0.302093
C114  C     C_R   0.499999 0.000000 0.926492 0.864959
C115  C     C_R   0.000000 0.500000 0.926492 0.864958
C116  C     C_R   0.500000 1.000000 0.073508 0.864963
C117  C     C_R   0.620378 1.000000 0.500000 0.932901
C118  C     C_R   1.000000 0.500000 0.073508 0.864958
C119  C     C_R   1.000000 0.500000 0.426492 0.864956
C120  C     C_R   0.500000 1.000000 0.426492 0.864957
C121  C     C_R   0.000000 0.500000 0.573508 0.864960
C122  C     C_R   0.500000 0.000000 0.573508 0.864958
C123  C     C_R   0.500000 0.685866 0.000000 -0.247035
C124  C     C_R   0.314133 0.500000 0.999999 -0.246987
C125  C     C_R   0.500002 0.314134 0.999999 -0.246958
C126  C     C_R   0.685867 0.500000 0.000001 -0.247046
C127  C     C_R   1.000000 0.185866 0.500000 -0.247047
C128  C     C_R   1.000000 0.620378 0.500000 0.932902
C129  C     C_R   0.814134 0.000000 0.499999 -0.247032
C130  C     C_R   0.000000 0.814133 0.499999 -0.247040
C131  C     C_R   0.185867 0.000001 0.500001 -0.247052
C132  C     C_R   0.500000 0.813129 0.000000 -0.146163
C133  C     C_R   0.186870 0.500000 0.999999 -0.146140
C134  C     C_R   0.500000 0.186871 0.999999 -0.146104
C135  C     C_R   0.813130 0.500000 0.000000 -0.146150
C136  C     C_R   0.000000 0.313129 0.500000 -0.146148
C137  C     C_R   0.686870 1.000000 0.499999 -0.146151
C138  C     C_R   1.000000 0.686870 0.500000 -0.146158
C139  C     C_R   0.379622 0.000000 0.500000 0.932903
C140  C     C_R   0.313130 0.000000 0.500000 -0.146169
C141  C     C_R   0.499880 0.943871 0.673740 -0.170343
C142  C     C_R   0.056133 0.499873 0.673740 -0.170343
C143  C     C_R   0.500114 0.056132 0.673740 -0.170343
C144  C     C_R   0.943872 0.500124 0.673740 -0.170343
C145  C     C_R   0.499889 0.056129 0.326260 -0.170342
C146  C     C_R   0.056128 0.500119 0.326260 -0.170342
C147  C     C_R   0.500116 0.943868 0.326260 -0.170342
C148  C     C_R   0.943867 0.499884 0.326259 -0.170342
C149  C     C_R   0.999831 0.443872 0.173740 -0.170342
C150  C     C_1   0.499996 0.000002 0.733188 -0.075749
C151  C     C_R   0.556133 0.999880 0.173740 -0.170341
C152  C     C_R   0.000164 0.556130 0.173740 -0.170341
C153  C     C_R   0.443872 0.000117 0.173740 -0.170343
C154  C     C_R   0.999872 0.556129 0.826260 -0.170342
C155  C     C_R   0.556127 0.000129 0.826260 -0.170342
C156  C     C_R   0.000134 0.443869 0.826260 -0.170343
C157  C     C_R   0.443867 0.999874 0.826260 -0.170341
C158  C     C_R   0.499882 0.943792 0.634599 -0.204536
C159  C     C_R   0.056211 0.499875 0.634599 -0.204537
C160  C     C_R   0.500114 0.056210 0.634599 -0.204536
H1    H     H_    0.499787 0.900287 0.688816 0.132257
H2    H     H_    0.599718 0.999786 0.188817 0.132257
H3    H     H_    0.870857 0.762060 0.569038 0.123266
H4    H     H_    0.789415 0.841375 0.557237 0.265234
H5    H     H_    0.823326 0.849171 0.603481 0.183465
H6    H     H_    0.845091 0.902029 0.566409 0.259655
H7    H     H_    0.176533 0.926719 0.577700 0.129672
H8    H     H_    0.237926 0.870909 0.569059 0.123251
H9    H     H_    0.158673 0.789410 0.557247 0.265217
H10   H     H_    0.150819 0.823337 0.603484 0.183460
H11   H     H_    0.097976 0.845051 0.566392 0.259657
H12   H     H_    0.073271 0.823497 0.422305 0.129695
H13   H     H_    0.000295 0.599714 0.188816 0.132258
H14   H     H_    0.129063 0.762084 0.430931 0.123252
H15   H     H_    0.210589 0.841304 0.442745 0.265208
H16   H     H_    0.176652 0.849191 0.396514 0.183460
H17   H     H_    0.154966 0.902023 0.433616 0.259666
H18   H     H_    0.823393 0.926695 0.422291 0.129633
H19   H     H_    0.762055 0.870841 0.430965 0.123276
H20   H     H_    0.841389 0.789416 0.442766 0.265251
H21   H     H_    0.849163 0.823317 0.396519 0.183471
H22   H     H_    0.902027 0.845102 0.433583 0.259651
H23   H     H_    0.926716 0.176534 0.422300 0.129669
H24   H     H_    0.400288 0.000211 0.188816 0.132256
H25   H     H_    0.870905 0.237925 0.430942 0.123252
H26   H     H_    0.789409 0.158669 0.442752 0.265216
H27   H     H_    0.823334 0.150817 0.396516 0.183459
H28   H     H_    0.845052 0.097974 0.433606 0.259659
H29   H     H_    0.176522 0.073278 0.422302 0.129678
H30   H     H_    0.237920 0.129084 0.430939 0.123249
H31   H     H_    0.158675 0.210589 0.442750 0.265207
H32   H     H_    0.150811 0.176659 0.396516 0.183459
H33   H     H_    0.097972 0.154952 0.433610 0.259661
H34   H     H_    0.999768 0.599712 0.811184 0.132258
H35   H     H_    0.599710 0.000230 0.811184 0.132258
H36   H     H_    0.000238 0.400284 0.811183 0.132258
H37   H     H_    0.400283 0.999773 0.811183 0.132258
H38   H     H_    0.499786 0.899845 0.619962 0.156203
H39   H     H_    0.100157 0.499771 0.619962 0.156202
H40   H     H_    0.500212 0.100156 0.619962 0.156203
H41   H     H_    0.099718 0.499773 0.688817 0.132257
H42   H     H_    0.899846 0.500228 0.619962 0.156203
H43   H     H_    0.499794 0.100155 0.380038 0.156204
H44   H     H_    0.100154 0.500214 0.380038 0.156204
H45   H     H_    0.500208 0.899844 0.380038 0.156203
H46   H     H_    0.899843 0.499787 0.380038 0.156203
H47   H     H_    0.999697 0.399848 0.119961 0.156202
H48   H     H_    0.600157 0.999784 0.119962 0.156202
H49   H     H_    0.000300 0.600154 0.119962 0.156203
H50   H     H_    0.399846 0.000215 0.119962 0.156200
H51   H     H_    0.999763 0.600154 0.880038 0.156203
H52   H     H_    0.500207 0.099716 0.688817 0.132258
H53   H     H_    0.600152 0.000232 0.880038 0.156204
H54   H     H_    0.000239 0.399845 0.880038 0.156203
H55   H     H_    0.399844 0.999769 0.880038 0.156203
H56   H     H_    0.594523 0.806004 0.019778 0.173860
H57   H     H_    0.193996 0.594517 0.019789 0.173862
H58   H     H_    0.405471 0.193996 0.019763 0.173791
H59   H     H_    0.806005 0.405483 0.019787 0.173861
H60   H     H_    0.594527 0.193995 0.980230 0.173873
H61   H     H_    0.193995 0.405484 0.980209 0.173865
H62   H     H_    0.405477 0.806004 0.980222 0.173868
H63   H     H_    0.900288 0.500224 0.688816 0.132257
H64   H     H_    0.806003 0.594518 0.980214 0.173853
H65   H     H_    0.094521 0.306004 0.519781 0.173843
H66   H     H_    0.693997 0.094522 0.519780 0.173869
H67   H     H_    0.905480 0.693997 0.519780 0.173852
H68   H     H_    0.306004 0.905480 0.519782 0.173867
H69   H     H_    0.094520 0.693995 0.480217 0.173875
H70   H     H_    0.693996 0.905478 0.480219 0.173849
H71   H     H_    0.905479 0.306004 0.480218 0.173866
H72   H     H_    0.306003 0.094520 0.480218 0.173870
H73   H     H_    0.573303 0.676568 0.077701 0.129657
H74   H     H_    0.499799 0.099713 0.311184 0.132258
H75   H     H_    0.629131 0.737935 0.069042 0.123267
H76   H     H_    0.710594 0.658645 0.057234 0.265235
H77   H     H_    0.676687 0.650829 0.103476 0.183469
H78   H     H_    0.654935 0.597976 0.066400 0.259653
H79   H     H_    0.323471 0.573270 0.077703 0.129671
H80   H     H_    0.262078 0.629081 0.069067 0.123247
H81   H     H_    0.341330 0.710582 0.057259 0.265211
H82   H     H_    0.349188 0.676649 0.103494 0.183458
H83   H     H_    0.402029 0.654940 0.066400 0.259661
H84   H     H_    0.426596 0.323167 0.077729 0.129493
H85   H     H_    0.099712 0.500212 0.311184 0.132258
H86   H     H_    0.370615 0.261987 0.068938 0.123320
H87   H     H_    0.289402 0.341551 0.057160 0.265330
H88   H     H_    0.323220 0.349098 0.103445 0.183480
H89   H     H_    0.345214 0.402030 0.066461 0.259609
H90   H     H_    0.676544 0.426727 0.077706 0.129666
H91   H     H_    0.737931 0.370911 0.069063 0.123249
H92   H     H_    0.658668 0.289419 0.057257 0.265212
H93   H     H_    0.650823 0.323349 0.103493 0.183457
H94   H     H_    0.597977 0.345066 0.066404 0.259671
H95   H     H_    0.573298 0.323472 0.922309 0.129671
H96   H     H_    0.500207 0.900283 0.311183 0.132257
H97   H     H_    0.629101 0.262074 0.930951 0.123252
H98   H     H_    0.710604 0.341320 0.942770 0.265217
H99   H     H_    0.676686 0.349179 0.896532 0.183456
H100  H     H_    0.654969 0.402022 0.933622 0.259651
H101  H     H_    0.323468 0.426739 0.922293 0.129672
H102  H     H_    0.262073 0.370927 0.930927 0.123242
H103  H     H_    0.341326 0.289423 0.942732 0.265193
H104  H     H_    0.349182 0.323362 0.896499 0.183457
H105  H     H_    0.402026 0.345067 0.933593 0.259665
H106  H     H_    0.426708 0.676531 0.922304 0.129670
H107  H     H_    0.900282 0.499791 0.311183 0.132257
H108  H     H_    0.370899 0.737924 0.930947 0.123251
H109  H     H_    0.289402 0.658670 0.942762 0.265218
H110  H     H_    0.323322 0.650816 0.896524 0.183459
H111  H     H_    0.345042 0.597973 0.933613 0.259648
H112  H     H_    0.676580 0.573285 0.922292 0.129650
H113  H     H_    0.737933 0.629127 0.930952 0.123271
H114  H     H_    0.658621 0.710574 0.942752 0.265246
H115  H     H_    0.650823 0.676660 0.896510 0.183470
H116  H     H_    0.597969 0.654899 0.933583 0.259659
H117  H     H_    0.073313 0.176627 0.577711 0.129629
H118  H     H_    0.999699 0.400289 0.188816 0.132258
H119  H     H_    0.129176 0.237949 0.569028 0.123291
H120  H     H_    0.210581 0.158596 0.557232 0.265270
H121  H     H_    0.176689 0.150842 0.603480 0.183478
H122  H     H_    0.154886 0.097975 0.566424 0.259655
H123  H     H_    0.823477 0.073281 0.577698 0.129662
H124  H     H_    0.762077 0.129089 0.569060 0.123235
H125  H     H_    0.841326 0.210595 0.557244 0.265204
H126  H     H_    0.849187 0.176668 0.603481 0.183449
H127  H     H_    0.902031 0.154955 0.566388 0.259648
H128  H     H_    0.926702 0.823410 0.577706 0.129639
O1    O     O_R   0.448380 0.908480 0.999900 -0.627132
O2    O     O_R   0.591520 0.948380 0.499900 -0.627131
O3    O     O_R   0.051620 0.591520 0.499900 -0.627131
O4    O     O_R   0.408480 0.051620 0.499900 -0.627131
O5    O     O_R   0.948380 0.591520 0.500100 -0.627132
O6    O     O_R   0.591520 0.051620 0.500100 -0.627133
O7    O     O_R   0.051620 0.408480 0.500100 -0.627131
O8    O     O_R   0.408480 0.948380 0.500100 -0.627131
O9    O     O_R   0.448380 0.000100 0.944450 -0.626944
O10   O     O_R   0.999900 0.448380 0.944450 -0.626943
O11   O     O_R   0.551620 0.999900 0.944450 -0.626942
O12   O     O_R   0.091520 0.448380 0.999900 -0.627130
O13   O     O_R   0.000100 0.551620 0.944450 -0.626943
O14   O     O_R   0.448380 0.999900 0.055550 -0.626947
O15   O     O_R   0.999900 0.551620 0.055550 -0.626944
O16   O     O_R   0.551620 0.000100 0.055550 -0.626943
O17   O     O_R   0.000100 0.448380 0.055550 -0.626945
O18   O     O_R   0.948380 0.500100 0.444450 -0.626943
O19   O     O_R   0.499900 0.948380 0.444450 -0.626943
O20   O     O_R   0.051620 0.499900 0.444450 -0.626942
O21   O     O_R   0.500100 0.051620 0.444450 -0.626942
O22   O     O_R   0.948380 0.499900 0.555550 -0.626944
O23   O     O_R   0.551620 0.091520 0.999900 -0.627138
O24   O     O_R   0.499900 0.051620 0.555550 -0.626943
O25   O     O_R   0.051620 0.500100 0.555550 -0.626944
O26   O     O_R   0.500100 0.948380 0.555550 -0.626943
O27   O     O_R   0.408370 0.500100 0.031180 -0.639175
O28   O     O_R   0.499900 0.408370 0.031180 -0.639058
O29   O     O_R   0.591630 0.499900 0.031180 -0.639169
O30   O     O_R   0.500100 0.591630 0.031180 -0.639160
O31   O     O_R   0.408370 0.499900 0.968820 -0.639172
O32   O     O_R   0.499900 0.591630 0.968820 -0.639174
O33   O     O_R   0.591630 0.500100 0.968820 -0.639153
O34   O     O_R   0.908480 0.551620 0.999900 -0.627129
O35   O     O_R   0.500100 0.408370 0.968820 -0.639203
O36   O     O_R   0.908370 0.000100 0.531180 -0.639181
O37   O     O_R   0.999900 0.908370 0.531180 -0.639143
O38   O     O_R   0.091630 0.999900 0.531180 -0.639164
O39   O     O_R   0.000100 0.091630 0.531180 -0.639134
O40   O     O_R   0.908370 0.999900 0.468820 -0.639138
O41   O     O_R   0.999900 0.091630 0.468820 -0.639173
O42   O     O_R   0.091630 0.000100 0.468820 -0.639172
O43   O     O_R   0.000100 0.908370 0.468820 -0.639183
O44   O     O_3   0.605419 0.684539 0.022408 -0.565402
O45   O     O_R   0.448380 0.091520 0.000100 -0.627136
O46   O     O_3   0.315459 0.605413 0.022417 -0.565403
O47   O     O_3   0.394581 0.315475 0.022395 -0.565414
O48   O     O_3   0.684542 0.394587 0.022418 -0.565399
O49   O     O_3   0.605424 0.315456 0.977599 -0.565407
O50   O     O_3   0.315458 0.394589 0.977578 -0.565412
O51   O     O_3   0.394580 0.684541 0.977593 -0.565403
O52   O     O_3   0.684539 0.605413 0.977584 -0.565397
O53   O     O_3   0.105415 0.184537 0.522412 -0.565398
O54   O     O_3   0.815458 0.105418 0.522410 -0.565402
O55   O     O_3   0.894585 0.815462 0.522411 -0.565402
O56   O     O_R   0.091520 0.551620 0.000100 -0.627133
O57   O     O_3   0.184542 0.894584 0.522412 -0.565398
O58   O     O_3   0.105417 0.815456 0.477588 -0.565399
O59   O     O_3   0.815462 0.894584 0.477589 -0.565401
O60   O     O_3   0.894582 0.184542 0.477588 -0.565402
O61   O     O_3   0.184541 0.105417 0.477589 -0.565400
O62   O     O_R   0.551620 0.908480 0.000100 -0.627131
O63   O     O_R   0.908480 0.448380 0.000100 -0.627133
O64   O     O_R   0.948380 0.408480 0.499900 -0.627132
Zn1   Zn    Zn3+2 0.431030 0.000000 0.000000 0.936936
Zn2   Zn    Zn3+2 0.500000 0.500000 0.958310 0.944570
Zn3   Zn    Zn3+2 0.000000 0.000000 0.541690 0.944589
Zn4   Zn    Zn3+2 0.000000 0.000000 0.458310 0.944576
Zn5   Zn    Zn3+2 1.000000 0.431030 0.000000 0.936946
Zn6   Zn    Zn3+2 0.568970 0.000000 0.000000 0.936949
Zn7   Zn    Zn3+2 1.000000 0.568970 0.000000 0.936951
Zn8   Zn    Zn3+2 0.931030 0.500000 0.500000 0.936948
Zn9   Zn    Zn3+2 0.500000 0.931030 0.500000 0.936949
Zn10  Zn    Zn3+2 0.068970 0.500000 0.500000 0.936950
Zn11  Zn    Zn3+2 0.500000 0.068970 0.500000 0.936952
Zn12  Zn    Zn3+2 0.500000 0.500000 0.041690 0.944617

loop_
_geom_bond_atom_site_label_1
_geom_bond_atom_site_label_2
_ccdc_geom_bond_type
O18   Zn8   S    
C104  C135  A    
C66   H28   S    
C117  O2    A    
C120  O21   A    
C58   H4    S    
C69   H31   S    
C5    H44   S    
C53   H122  S    
C89   C125  S    
C80   C107  A    
C28   C145  A    
C51   H116  S    
C119  O18   A    
C6    C19   A    
C37   H79   S    
C42   H94   S    
C107  H66   S    
C16   C25   A    
C58   H5    S    
C6    H45   S    
C18   C159  A    
C85   C129  A    
C92   O40   A    
C128  O3    A    
C100  H59   S    
C121  O22   A    
C94   O38   A    
C88   O31   A    
C103  C132  A    
O28   Zn12  S    
C100  C135  A    
C16   C157  A    
C81   C108  A    
C59   C60   S    
C145  H74   S    
C54   H124  S    
C32   C57   S    
C7    H46   S    
C87   O61   S    
C45   C47   S    
C10   C21   A    
C122  O26   A    
C89   O35   A    
C142  H41   S    
C110  C138  A    
C29   C146  A    
C30   C149  A    
C74   C100  A    
C55   H126  S    
C14   H53   S    
C16   H55   S    
C43   C44   S    
O24   Zn11  S    
C37   C38   S    
C91   O32   A    
O21   Zn11  S    
C45   O50   S    
C12   C23   A    
C116  O14   A    
C41   H91   S    
C41   O48   S    
C69   H33   S    
C85   O59   S    
C1    O1    A    
C32   C154  A    
C49   H111  S    
C52   O53   S    
C19   C120  S    
C66   H26   S    
C114  O11   A    
C77   C103  A    
C77   O51   S    
C93   C130  S    
O56   Zn7   S    
C59   H7    S    
C111  C137  A    
C113  H72   S    
O40   Zn4   S    
C36   H77   S    
C79   C127  A    
C9    C151  A    
C28   C147  A    
C51   H114  S    
O2    Zn9   S    
C12   C154  A    
C1    O62   A    
C139  C140  S    
C72   C125  A    
C48   O51   S    
C74   O48   S    
C25   C114  S    
C62   H15   S    
C158  H38   S    
C92   C129  S    
C87   C113  A    
C44   H98   S    
C17   C122  S    
C75   C101  A    
C3    H42   S    
C75   O49   S    
C82   C131  A    
C52   H117  S    
C39   O47   S    
C53   H120  S    
C65   O60   S    
C88   C124  S    
C106  O7    A    
C29   C148  A    
C2    C57   T    
C143  C160  A    
C5    C20   A    
C38   H83   S    
C146  H85   S    
C81   O55   S    
C112  H71   S    
C60   H9    S    
C148  H107  S    
O31   Zn2   S    
C70   O44   S    
C139  O8    A    
C91   O30   A    
O30   Zn12  S    
C116  O16   A    
C87   C131  A    
C17   C160  A    
O29   Zn12  S    
C128  C138  S    
O13   Zn7   S    
C32   C156  A    
C30   C152  A    
C97   H56   S    
C114  O9    A    
C99   H58   S    
C105  H65   S    
C157  H37   S    
C64   H22   S    
C47   H105  S    
C22   C116  S    
O20   Zn10  S    
C91   C123  S    
O4    Zn11  S    
C112  C136  A    
C34   H75   S    
C64   H20   S    
C76   C102  A    
C78   C104  A    
C76   C124  A    
C82   C109  A    
C78   O52   S    
C39   C40   S    
C4    H43   S    
O42   Zn4   S    
O39   Zn3   S    
C84   O45   A    
C88   O27   A    
C99   C134  A    
C8    H47   S    
C44   H100  S    
C39   H86   S    
C31   C151  A    
C45   H101  S    
C153  H24   S    
C55   H127  S    
C83   C110  A    
C56   H128  S    
C52   H119  S    
C152  H13   S    
O64   Zn8   S    
C26   C143  A    
C40   H87   S    
C52   C53   S    
C54   H123  S    
C38   H81   S    
C54   C55   S    
C80   C129  A    
C60   H11   S    
O34   Zn7   S    
C61   H14   S    
C12   H51   S    
C73   C133  S    
C90   O29   A    
O5    Zn8   S    
C33   C155  A    
C53   H121  S    
C143  H52   S    
C47   H104  S    
C36   H76   S    
O27   Zn12  S    
C51   H115  S    
C96   C127  S    
C102  C133  A    
O3    Zn10  S    
C6    C147  A    
C4    C145  A    
O43   Zn4   S    
C120  O19   A    
C56   C58   S    
C118  O15   A    
C34   C36   S    
C61   C62   S    
C58   H6    S    
C68   C150  T    
C11   C153  A    
C63   C64   S    
O8    Zn9   S    
C56   O55   S    
C34   H73   S    
C104  H64   S    
C84   O23   A    
C33   C68   S    
C72   C99   A    
O7    Zn10  S    
C41   C42   S    
C142  C159  A    
C62   H17   S    
C67   H30   S    
C98   C133  A    
C84   C134  S    
C63   H18   S    
C109  C140  A    
C156  H36   S    
C39   H84   S    
C11   H50   S    
C118  O17   A    
C55   H125  S    
O6    Zn11  S    
C83   O58   S    
C24   C29   S    
C144  H63   S    
C10   C152  A    
C95   O63   A    
C41   H90   S    
C13   C28   S    
C2    C27   S    
C26   C141  A    
C70   C97   A    
C49   H110  S    
C159  H39   S    
O25   Zn10  S    
C42   H92   S    
C96   O41   A    
C66   H27   S    
C69   H32   S    
C139  O4    A    
C109  H68   S    
C33   C157  A    
C95   O34   A    
C36   H78   S    
C128  O5    A    
C26   C150  S    
C37   H80   S    
C42   H93   S    
C71   O46   S    
C106  O64   A    
C75   C125  A    
C107  C137  A    
C21   C118  S    
C77   C123  A    
C110  H69   S    
C56   H3    S    
C48   H106  S    
C151  H2    S    
C62   H16   S    
C122  O24   A    
C27   C144  A    
C90   O33   A    
C48   C49   S    
C72   O47   S    
O9    Zn1   S    
C78   C126  A    
C59   O57   S    
C80   O54   S    
C86   C127  A    
C3    C144  A    
C97   C132  A    
C85   C111  A    
C9    H48   S    
O12   Zn5   S    
C108  H67   S    
C94   C131  S    
C117  O6    A    
C60   H10   S    
C8    C149  A    
C108  C138  A    
C101  H60   S    
C81   C130  A    
C43   O49   S    
C50   H113  S    
O1    Zn1   S    
C14   C25   A    
O36   Zn3   S    
C155  H35   S    
C18   C121  S    
C141  C158  A    
O62   Zn6   S    
C7    C20   A    
C98   H57   S    
C76   O50   S    
C20   C119  S    
C59   H8    S    
C102  H61   S    
C92   O36   A    
O41   Zn4   S    
C73   O56   A    
C141  H1    S    
C94   O42   A    
C14   C155  A    
C1    C132  S    
C160  H40   S    
C101  C134  A    
O23   Zn6   S    
C30   C35   S    
C115  O10   A    
O22   Zn8   S    
O33   Zn2   S    
C103  H62   S    
O17   Zn5   S    
C13   C46   T    
C93   O43   A    
C9    C22   A    
C48   H108  S    
C121  O25   A    
C147  H96   S    
C79   O53   S    
C27   C142  A    
C63   H19   S    
C61   O58   S    
C79   C105  A    
C3    C18   A    
C31   C153  A    
O35   Zn2   S    
C4    C19   A    
C70   C123  A    
C96   O39   A    
O45   Zn1   S    
C37   O46   S    
O32   Zn2   S    
C73   O12   A    
C15   H54   S    
C40   H88   S    
C50   C51   S    
C90   C126  S    
C38   H82   S    
C71   C98   A    
C65   H25   S    
C24   C35   T    
O15   Zn7   S    
C119  O20   A    
C71   C124  A    
C83   C130  A    
C63   O59   S    
C67   O61   S    
C47   H103  S    
C31   C46   S    
C34   O44   S    
C67   C69   S    
C86   C112  A    
C10   H49   S    
O19   Zn9   S    
O16   Zn6   S    
C95   C135  S    
C8    C21   A    
C113  C140  A    
C50   O52   S    
C115  O13   A    
C61   H12   S    
C149  H118  S    
C17   C158  A    
C15   C156  A    
C82   O57   S    
C105  C136  A    
C64   H21   S    
O14   Zn1   S    
C50   H112  S    
O10   Zn5   S    
O37   Zn3   S    
C43   H97   S    
O38   Zn3   S    
C7    C148  A    
C65   H23   S    
C43   H95   S    
C5    C146  A    
C117  C137  S    
C93   O37   A    
C67   H29   S    
C11   C22   A    
O26   Zn9   S    
O11   Zn6   S    
C44   H99   S    
C40   H89   S    
C45   H102  S    
C74   C126  A    
C15   C23   A    
C89   O28   A    
C23   C115  S    
C154  H34   S    
C65   C66   S    
C54   O54   S    
C111  H70   S    
C86   O60   S    
O63   Zn5   S    
C106  C136  S    
C49   H109  S    
