data_mof_unit_12820.cif
_audit_creation_date              2012-12-10T17:15:40-0500
_audit_creation_method            fapswitch 2.2
_symmetry_space_group_name_H-M    P1
_symmetry_Int_Tables_number       1
_space_group_crystal_system       triclinic
_cell_length_a                    17.204049
_cell_length_b                    12.967284
_cell_length_c                    11.862102
_cell_angle_alpha                 99.590439
_cell_angle_beta                  89.305226
_cell_angle_gamma                 94.732467
_cell_volume                      2600.4292972

loop_
_atom_site_label
_atom_site_type_symbol
_atom_type_description
_atom_site_fract_x
_atom_site_fract_y
_atom_site_fract_z
_atom_type_partial_charge
C1    C     C_R   0.499958 0.299560 0.478400 0.816219
C2    C     C_R   0.502227 0.700657 0.520946 0.806414
C3    C     C_R   0.508050 0.814630 0.531166 -0.068710
C4    C     C_R   0.500641 0.185900 0.464289 -0.056150
C5    C     C_R   0.461066 0.013615 0.358647 -0.187139
C6    C     C_R   0.555170 0.986336 0.630908 -0.225215
C7    C     C_R   0.466325 0.122104 0.367538 -0.164485
C8    C     C_R   0.544154 0.878339 0.626443 -0.160779
C9    C     C_R   0.534183 0.140471 0.548755 -0.252112
C10   C     C_R   0.480971 0.859963 0.441573 -0.266441
C11   C     C_R   0.527412 0.031921 0.542074 0.163190
C12   C     C_R   0.489842 0.968139 0.446765 0.168948
C13   C     C_R   0.410801 0.419796 0.037848 0.163706
C14   C     C_R   0.564862 0.615546 0.969760 0.160658
C15   C     C_R   0.425136 0.418945 0.154305 0.410502
C16   C     C_R   0.563205 0.597619 0.849190 0.417923
C17   C     C_R   0.534930 0.542689 0.151549 0.100639
C18   C     C_R   0.466034 0.456037 0.848768 0.100392
C19   C     C_R   0.521785 0.545641 0.032260 -0.128908
C20   C     C_R   0.464880 0.474049 0.972170 -0.126599
C21   C     C_R   0.350645 0.500672 0.515275 0.811207
C22   C     C_R   0.648903 0.500674 0.484786 0.796621
C23   C     C_R   0.265347 0.497484 0.522887 -0.063886
C24   C     C_R   0.733259 0.510984 0.476968 -0.011798
C25   C     C_R   0.220570 0.465800 0.423479 -0.137116
C26   C     C_R   0.774562 0.598056 0.541022 -0.168828
C27   C     C_R   0.140063 0.459214 0.428953 -0.115334
C28   C     C_R   0.855161 0.609610 0.535461 -0.137129
C29   C     C_R   0.102367 0.486977 0.533348 0.128896
C30   C     C_R   0.895263 0.534402 0.465252 0.132290
C31   C     C_R   0.146336 0.519258 0.634931 0.052013
C32   C     C_R   0.854062 0.448100 0.396174 0.049305
C33   C     C_R   0.227974 0.524662 0.628193 -0.257561
C34   C     C_R   0.772595 0.436763 0.403745 -0.235501
C35   C     C_2   0.017056 0.481579 0.531761 0.156662
C36   C     C_2   0.980204 0.543855 0.473224 0.098605
Cu1   Cu    Cu3+1 0.505800 0.507690 0.615350 0.986537
Cu2   Cu    Cu3+1 0.494200 0.492310 0.384650 0.982437
H1    H     H_    0.247415 0.445801 0.340842 0.206366
H2    H     H_    0.744484 0.658106 0.593950 0.184974
H3    H     H_    0.739817 0.370960 0.352138 0.137882
H4    H     H_    0.262196 0.552353 0.704942 0.159349
H5    H     H_    0.886521 0.676182 0.587829 0.163981
H6    H     H_    0.106753 0.433537 0.350908 0.166282
H7    H     H_    0.452392 0.811151 0.368117 0.164107
H8    H     H_    0.563398 0.189670 0.621326 0.156524
H9    H     H_    0.564997 0.844979 0.696671 0.210998
H10   H     H_    0.441874 0.155793 0.299952 0.205090
H11   H     H_    0.432984 0.965570 0.284412 0.161396
H12   H     H_    0.583953 0.034274 0.704618 0.150553
N1    N     N_R   0.514530 0.519260 0.788680 -0.243866
N2    N     N_R   0.485470 0.480740 0.211320 -0.244510
O1    O     O_R   0.504120 0.354440 0.581590 -0.588164
O2    O     O_R   0.495880 0.645560 0.418410 -0.604595
O3    O     O_R   0.494320 0.341440 0.386760 -0.553431
O4    O     O_R   0.505680 0.658560 0.613240 -0.546346
O5    O     O_R   0.391870 0.507230 0.608700 -0.603965
O6    O     O_R   0.608130 0.492770 0.391300 -0.589425
O7    O     O_R   0.382070 0.494240 0.413880 -0.545071
O8    O     O_R   0.617930 0.505760 0.586120 -0.540765
Br1   Br    Br    0.636461 0.681869 0.772708 -0.495108
Br2   Br    Br    0.362084 0.319573 0.227202 -0.493047
Br3   Br    Br    0.306823 0.369167 0.983322 -0.538814
Br4   Br    Br    0.610552 0.751314 0.042635 -0.500234
Br5   Br    Br    0.034494 0.656658 0.409141 -0.585746
Br6   Br    Br    0.961394 0.379880 0.610839 -0.519465
C37   C     C_R   0.109330 0.548222 0.748226 0.106933
C38   C     C_R   0.055133 0.624798 0.765707 -0.105857
C39   C     C_R   0.020563 0.650944 0.872880 -0.103516
C40   C     C_R   0.040434 0.601960 0.963697 -0.101284
C41   C     C_R   0.095131 0.526985 0.947591 -0.099199
C42   C     C_R   0.129462 0.500100 0.840421 -0.101501
H13   H     H_    0.039991 0.664717 0.696822 0.151738
H14   H     H_    0.978596 0.709556 0.885642 0.145620
H15   H     H_    0.013728 0.622410 0.046653 0.146291
H16   H     H_    0.110988 0.489689 0.018150 0.153508
H17   H     H_    0.171288 0.441204 0.829016 0.161400
C43   C     C_R   0.894567 0.369666 0.316343 0.100428
C44   C     C_R   0.945634 0.401567 0.232982 -0.180827
C45   C     C_R   0.983816 0.327315 0.158030 -0.119986
C46   C     C_R   0.971073 0.220809 0.165259 -0.081988
C47   C     C_R   0.919790 0.188301 0.247097 -0.117853
C48   C     C_R   0.881399 0.262278 0.322150 -0.097425
H18   H     H_    0.955351 0.483665 0.225343 0.158439
H19   H     H_    0.023110 0.352261 0.094096 0.146111
H20   H     H_    0.000720 0.163444 0.107183 0.146230
H21   H     H_    0.909814 0.105749 0.252438 0.145898
H22   H     H_    0.842137 0.236021 0.385571 0.150345
C49   C     C_R   0.431376 0.352506 0.789901 0.205370
C50   C     C_R   0.359654 0.341234 0.731846 -0.041410
C51   C     C_R   0.325046 0.241826 0.686748 -0.139464
C52   C     C_R   0.359376 0.152192 0.704989 -0.068101
C53   C     C_R   0.428215 0.162133 0.768355 -0.109916
C54   C     C_R   0.465060 0.261466 0.808310 -0.162287
H23   H     H_    0.326701 0.407968 0.731326 0.141837
H24   H     H_    0.269740 0.234369 0.642390 0.148829
H25   H     H_    0.331657 0.075137 0.672614 0.142743
H26   H     H_    0.453250 0.092783 0.786179 0.145471
H27   H     H_    0.518585 0.267616 0.857020 0.122195
C55   C     C_R   0.613319 0.581617 0.199120 0.195890
C56   C     C_R   0.626807 0.677961 0.273264 -0.035026
C57   C     C_R   0.702513 0.715387 0.309451 -0.147451
C58   C     C_R   0.765643 0.658365 0.269885 -0.086543
C59   C     C_R   0.753099 0.563362 0.194939 -0.109997
C60   C     C_R   0.677366 0.524689 0.160360 -0.133389
H28   H     H_    0.580096 0.728077 0.295610 0.152860
H29   H     H_    0.712406 0.790038 0.365681 0.144175
H30   H     H_    0.824298 0.687884 0.297014 0.156116
H31   H     H_    0.802063 0.519385 0.164038 0.138361
H32   H     H_    0.668627 0.451145 0.101741 0.121808

loop_
_geom_bond_atom_site_label_1
_geom_bond_atom_site_label_2
_ccdc_geom_bond_type
C60   H32   S    
C53   C54   A    
C27   C29   A    
C35   C36   D    
C16   N1    A    
C46   C47   A    
C50   H23   S    
C31   C37   S    
C55   C60   A    
Cu1   Cu2   S    
C33   H4    S    
C24   C26   A    
C21   O7    A    
C22   O8    A    
C44   H18   S    
Cu1   N1    S    
Cu2   N2    S    
C47   H21   S    
C37   C42   A    
C49   C54   A    
C1    O1    A    
C52   C53   A    
C42   H17   S    
C51   H24   S    
Cu2   O6    S    
Cu1   O4    S    
C43   C48   A    
Cu2   O3    S    
C19   C20   A    
C38   C39   A    
C23   C33   A    
Cu2   O2    S    
C18   N1    A    
C31   C33   A    
C40   C41   A    
C18   C20   A    
C46   H20   S    
Cu1   O1    S    
C48   H22   S    
C9    H8    S    
C5    H11   S    
C57   C58   A    
C34   H3    S    
C4    C7    A    
C27   H6    S    
C17   N2    A    
C59   C60   A    
C52   H25   S    
C37   C38   A    
C56   C57   A    
C39   H14   S    
C5    C12   A    
C3    C8    A    
C2    O2    A    
C6    C11   A    
C5    C7    A    
C43   C44   A    
C6    C8    A    
C35   Br6   S    
C38   H13   S    
C24   C34   A    
Cu2   O7    S    
C32   C34   A    
C21   O5    A    
C45   H19   S    
C13   Br3   S    
C14   Br4   S    
C10   H7    S    
C57   H29   S    
C15   N2    A    
C6    H12   S    
C9    C11   A    
C58   H30   S    
C10   C12   A    
C13   C15   A    
C14   C16   A    
C16   Br1   S    
C49   C50   A    
C51   C52   A    
C56   H28   S    
C13   C20   A    
C36   Br5   S    
C18   C49   S    
C14   C19   A    
C45   C46   A    
C22   O6    A    
C11   C12   A    
C25   C27   A    
C29   C35   S    
C28   H5    S    
C26   C28   A    
C30   C36   S    
C1    C4    S    
C7    H10   S    
C21   C23   S    
C2    C3    S    
C1    O3    A    
C8    H9    S    
C41   C42   A    
C29   C31   A    
C3    C10   A    
C2    O4    A    
C25   H1    S    
C30   C32   A    
C26   H2    S    
C50   C51   A    
C41   H16   S    
C54   H27   S    
C28   C30   A    
C55   C56   A    
C17   C19   A    
C15   Br2   S    
C22   C24   S    
C23   C25   A    
C39   C40   A    
C17   C55   S    
Cu1   O8    S    
C32   C43   S    
C44   C45   A    
C40   H15   S    
C47   C48   A    
C58   C59   A    
C59   H31   S    
C4    C9    A    
C53   H26   S    
Cu1   O5    S    
