data_mof_unit_65897.cif
_audit_creation_date              2012-12-10T21:32:06-0500
_audit_creation_method            fapswitch 2.2
_symmetry_space_group_name_H-M    P1
_symmetry_Int_Tables_number       1
_space_group_crystal_system       triclinic
_cell_length_a                    15.452095
_cell_length_b                    16.223202
_cell_length_c                    16.578361
_cell_angle_alpha                 93.538055
_cell_angle_beta                  90.127517
_cell_angle_gamma                 111.826569
_cell_volume                      3849.20788781

loop_
_atom_site_label
_atom_site_type_symbol
_atom_type_description
_atom_site_fract_x
_atom_site_fract_y
_atom_site_fract_z
_atom_type_partial_charge
Br1   Br    Br    0.358670 0.640751 0.355294 -0.469157
Br2   Br    Br    0.641316 0.359239 0.644735 -0.475069
Br3   Br    Br    0.756601 0.435256 0.381902 -0.476903
Br4   Br    Br    0.241623 0.565139 0.615600 -0.474318
Br5   Br    Br    0.783213 0.776272 0.499733 -0.560785
Br6   Br    Br    0.216858 0.223660 0.500115 -0.554272
Br7   Br    Br    0.362162 0.366515 0.930044 -0.518303
Br8   Br    Br    0.689507 0.674002 0.102143 -0.518150
C1    C     C_R   0.504957 0.490078 0.346944 0.931983
C2    C     C_R   0.440339 0.450097 0.784184 0.029904
C3    C     C_R   0.606125 0.567349 0.146646 0.221695
C4    C     C_R   0.445740 0.458993 0.868795 0.222977
C5    C     C_R   0.565801 0.487577 0.097715 0.227384
C6    C     C_R   0.510887 0.536823 0.908302 0.215510
C7    C     C_R   0.518175 0.406902 0.133445 0.093029
C8    C     C_R   0.562873 0.609209 0.863862 0.058611
C9    C     C_R   0.498723 0.408907 0.215249 -0.223574
C10   C     C_R   0.555292 0.600808 0.780137 -0.212689
C11   C     C_R   0.534784 0.779247 0.549981 0.186633
C12   C     C_R   0.498452 0.511320 0.653121 0.935786
C13   C     C_R   0.465332 0.220814 0.449931 0.184124
C14   C     C_R   0.523812 0.862821 0.553768 0.038291
C15   C     C_R   0.476370 0.137268 0.446098 0.038931
C16   C     C_R   0.325765 0.443948 0.506032 0.954615
C17   C     C_R   0.674187 0.556031 0.493811 0.946564
C18   C     C_R   0.475993 0.882817 0.489778 0.229232
C19   C     C_R   0.524136 0.117238 0.510107 0.229069
C20   C     C_R   0.429920 0.815015 0.431083 -0.352733
C21   C     C_R   0.570142 0.185001 0.568856 -0.352329
C22   C     C_R   0.434807 0.730625 0.433128 0.389737
C23   C     C_R   0.893891 0.397016 0.502154 -0.146708
C24   C     C_R   0.565205 0.269375 0.566863 0.391174
C25   C     C_R   0.223502 0.407471 0.515681 -0.203275
C26   C     C_R   0.776246 0.592394 0.483139 -0.203797
C27   C     C_R   0.068456 0.290075 0.503304 0.055412
C28   C     C_R   0.931421 0.709618 0.494067 0.056994
C29   C     C_R   0.166377 0.315914 0.504791 0.200182
C30   C     C_R   0.833539 0.683913 0.493753 0.196901
C31   C     C_R   0.181269 0.469014 0.534085 0.173524
C32   C     C_R   0.818099 0.530806 0.463599 0.174214
C33   C     C_R   0.086976 0.446846 0.513464 -0.006163
C34   C     C_R   0.105723 0.602366 0.493643 -0.145811
C35   C     C_R   0.912609 0.552757 0.483169 -0.005576
C36   C     C_R   0.028826 0.355632 0.505380 0.078173
C37   C     C_R   0.970917 0.643948 0.491192 0.077925
C38   C     C_R   0.048740 0.512561 0.501975 0.101606
C39   C     C_R   0.950828 0.486906 0.494107 0.101641
C40   C     C_R   0.932000 0.331951 0.503201 -0.147947
C41   C     C_R   0.067721 0.667503 0.492719 -0.147470
C42   C     C_R   0.528007 0.489698 0.261902 -0.091825
C43   C     C_R   0.497439 0.520653 0.740435 -0.088690
C44   C     C_R   0.586500 0.568632 0.228953 0.031786
H1    H     H_    0.884980 0.263138 0.503945 0.184882
H2    H     H_    0.344053 0.182403 0.385824 0.206619
H3    H     H_    0.611341 0.711520 0.590526 0.262286
H4    H     H_    0.656173 0.817652 0.613923 0.206385
H5    H     H_    0.500667 0.063396 0.352840 0.208766
H6    H     H_    0.417782 0.100065 0.330230 0.204667
H7    H     H_    0.499688 0.936780 0.647045 0.208508
H8    H     H_    0.582645 0.900157 0.669551 0.205670
H9    H     H_    0.022719 0.167152 0.546262 0.240209
H10   H     H_    0.023963 0.167939 0.443719 0.237396
H11   H     H_    0.976581 0.832582 0.451228 0.240841
H12   H     H_    0.114796 0.736284 0.491861 0.184942
H13   H     H_    0.976868 0.831716 0.553770 0.237186
H14   H     H_    0.391405 0.316560 0.759381 0.241843
H15   H     H_    0.308678 0.362203 0.759272 0.239020
H16   H     H_    0.606992 0.698142 0.257147 0.242851
H17   H     H_    0.699795 0.669890 0.278175 0.239474
H18   H     H_    0.512245 0.328171 0.029591 0.237566
H19   H     H_    0.413049 0.300341 0.082205 0.237829
H20   H     H_    0.591668 0.713527 0.946425 0.237102
H21   H     H_    0.679877 0.676205 0.930452 0.253216
H22   H     H_    0.388308 0.827428 0.384117 0.203349
H23   H     H_    0.611741 0.172572 0.615823 0.203011
H24   H     H_    0.819234 0.375730 0.507575 0.203698
H25   H     H_    0.180367 0.623511 0.488109 0.204015
H26   H     H_    0.458515 0.347285 0.241949 0.188714
H27   H     H_    0.598005 0.655583 0.745898 0.184428
H28   H     H_    0.388725 0.288504 0.409369 0.265470
N1    N     N_2   0.560642 0.488936 0.012967 -0.137667
N2    N     N_3   0.557253 0.925827 0.622853 -0.418092
N3    N     N_3   0.008816 0.197650 0.496762 -0.442905
N4    N     N_3   0.991191 0.802006 0.500359 -0.442876
N5    N     N_3   0.376383 0.370799 0.742099 -0.400481
N6    N     N_3   0.627192 0.649091 0.279811 -0.387127
N7    N     N_3   0.485662 0.322428 0.087734 -0.416181
N8    N     N_3   0.626949 0.690348 0.902337 -0.415028
N9    N     N_2   0.524702 0.541980 0.992521 -0.120608
N10   N     N_R   0.489120 0.713640 0.490430 -0.122151
N11   N     N_R   0.510880 0.286360 0.509570 -0.121989
N12   N     N_2   0.466470 0.967111 0.485108 -0.125337
N13   N     N_2   0.533673 0.032949 0.514749 -0.125543
N14   N     N_3   0.407825 0.236353 0.389234 -0.440013
N15   N     N_3   0.592362 0.763753 0.610630 -0.437092
N16   N     N_3   0.443057 0.074329 0.376953 -0.417923
O1    O     O_R   0.503890 0.423710 0.387290 -0.627112
O2    O     O_R   0.496110 0.576290 0.612710 -0.625190
O3    O     O_R   0.496910 0.560910 0.381140 -0.554408
O4    O     O_R   0.503090 0.439090 0.618860 -0.556894
O5    O     O_R   0.373240 0.392210 0.504830 -0.605089
O6    O     O_R   0.626760 0.607790 0.495170 -0.607395
O7    O     O_R   0.366260 0.529410 0.498680 -0.551678
O8    O     O_R   0.633740 0.470590 0.501320 -0.552703
Zn1   Zn    Zn3+2 0.504660 0.408390 0.504100 1.021928
Zn2   Zn    Zn3+2 0.495340 0.591610 0.495900 1.021550

loop_
_geom_bond_atom_site_label_1
_geom_bond_atom_site_label_2
_ccdc_geom_bond_type
H4    N15   S    
H10   N3    S    
C2    N5    S    
C19   C21   A    
H16   N6    S    
N11   Zn1   S    
H7    N2    S    
C22   N10   A    
C20   H22   S    
H14   N5    S    
C31   C33   A    
O4    Zn1   S    
C25   C31   A    
C26   C32   A    
C14   N2    S    
Br1   C22   S    
C27   C29   A    
C21   C24   A    
C17   O6    A    
C24   N11   A    
C13   N14   S    
H18   N7    S    
C18   N12   S    
C5    N1    S    
C15   N16   S    
Br2   C24   S    
C16   O5    A    
C34   C38   A    
C6    N9    S    
H6    N16   S    
C9    H26   S    
C3    C44   A    
H8    N2    S    
C32   C35   A    
C10   H27   S    
H5    N16   S    
C42   C44   A    
C33   C38   A    
C15   C19   A    
C17   C26   S    
O1    Zn1   S    
C1    O3    A    
C41   H12   S    
C23   C39   A    
Br5   C30   S    
C40   H1    S    
C2    C43   A    
O8    Zn1   S    
H20   N8    S    
C10   C43   A    
C13   C15   A    
O5    Zn1   S    
Br7   C4    S    
H15   N5    S    
C11   C14   A    
N10   Zn2   S    
H3    N15   S    
H9    N3    S    
C27   N3    S    
H13   N4    S    
C25   C29   A    
H21   N8    S    
C12   O4    A    
Br4   C31   S    
C37   C41   A    
Br6   C29   S    
C28   C37   A    
C27   C36   A    
C35   C37   A    
C2    C4    A    
H19   N7    S    
C4    C6    A    
Br3   C32   S    
C23   C40   A    
C5    C7    A    
C33   C36   A    
C6    C8    A    
C19   N13   S    
H28   N14   S    
C11   N15   S    
C7    N7    S    
C13   N11   A    
C7    C9    A    
O3    Zn2   S    
C38   C39   A    
C1    O1    A    
C26   C30   A    
C1    C42   S    
C9    C42   A    
C17   O8    A    
C21   H23   S    
C12   C43   S    
C18   C20   A    
C16   C25   S    
O2    Zn2   S    
H11   N4    S    
C16   O7    A    
C44   N6    S    
N1    N9    D    
C20   C22   A    
C11   N10   A    
C3    C5    A    
C23   H24   S    
C28   N4    S    
Br8   C3    S    
C28   C30   A    
N12   N13   D    
O6    Zn2   S    
O7    Zn2   S    
H2    N14   S    
C34   C41   A    
C12   O2    A    
C34   H25   S    
C8    C10   A    
C14   C18   A    
C8    N8    S    
C35   C39   A    
H17   N6    S    
C36   C40   A    
