data_mof_unit_55418.cif
_audit_creation_date              2012-12-11T15:54:37-0500
_audit_creation_method            fapswitch 2.2
_symmetry_space_group_name_H-M    P1
_symmetry_Int_Tables_number       1
_space_group_crystal_system       triclinic
_cell_length_a                    6.928174
_cell_length_b                    14.55792
_cell_length_c                    16.037852
_cell_angle_alpha                 89.942557
_cell_angle_beta                  89.819076
_cell_angle_gamma                 90.172833
_cell_volume                      1617.55833826

loop_
_atom_site_label
_atom_site_type_symbol
_atom_type_description
_atom_site_fract_x
_atom_site_fract_y
_atom_site_fract_z
_atom_type_partial_charge
O1    O     O_R   0.638180 0.333920 0.163320 -0.537971
O2    O     O_R   0.361820 0.666080 0.836680 -0.540778
O3    O     O_R   0.308470 0.344960 0.336080 -0.545748
O4    O     O_R   0.691530 0.655040 0.663920 -0.546100
O5    O     O_R   0.138140 0.166110 0.336680 -0.533751
O6    O     O_R   0.861860 0.833890 0.663320 -0.534208
C1    C     C_R   0.477499 0.367168 0.365062 0.692018
C2    C     C_R   0.522505 0.632868 0.634907 0.691583
O7    O     O_R   0.308460 0.344950 0.163930 -0.544629
O8    O     O_R   0.691540 0.655050 0.836070 -0.540168
O9    O     O_R   0.138140 0.166100 0.163310 -0.538605
O10   O     O_R   0.861860 0.833900 0.836690 -0.540332
C3    C     C_R   0.477640 0.364623 0.133105 0.685755
C4    C     C_R   0.522562 0.636323 0.867499 0.684885
O11   O     O_R   0.638180 0.333930 0.336700 -0.539478
O12   O     O_R   0.361820 0.666070 0.663300 -0.539723
O13   O     O_3   0.471670 0.191340 0.250000 -0.364553
O14   O     O_3   0.528330 0.808660 0.750000 -0.365946
V1    V     V_3+5 0.196830 0.260900 0.250000 1.390072
V2    V     V_3+5 0.803170 0.739100 0.750000 1.402660
O15   O     O_R   0.808420 0.155070 0.163920 -0.548020
O16   O     O_R   0.191580 0.844930 0.836080 -0.549355
C5    C     C_R   0.977598 0.132151 0.135509 0.683303
C6    C     C_R   0.022423 0.867166 0.865052 0.672497
O17   O     O_R   0.808420 0.155080 0.336070 -0.536794
O18   O     O_R   0.191580 0.844920 0.663930 -0.537142
C7    C     C_R   0.977033 0.133134 0.364690 0.703063
C8    C     C_R   0.022993 0.866735 0.635185 0.701867
V3    V     V_3+5 0.696830 0.239130 0.250000 1.400894
V4    V     V_3+5 0.303170 0.760870 0.750000 1.404482
O19   O     O_3   0.971850 0.308690 0.250010 -0.374710
O20   O     O_3   0.028150 0.691310 0.749990 -0.370011
H1    H     H_    0.789611 0.827259 0.263986 0.112468
H2    H     H_    0.211035 0.172584 0.735689 0.113239
C9    C     C_R   0.096120 0.186200 0.530622 -0.138000
C10   C     C_R   0.904070 0.813630 0.469136 -0.139012
C11   C     C_R   0.154857 0.214011 0.609698 -0.123975
C12   C     C_R   0.845542 0.785821 0.390016 -0.122358
C13   C     C_R   0.166707 0.150490 0.674194 -0.122060
C14   C     C_R   0.833863 0.849338 0.325501 -0.122113
C15   C     C_R   0.120318 0.058621 0.660067 -0.132599
C16   C     C_R   0.880213 0.941205 0.339660 -0.134338
C17   C     C_R   0.062020 0.028049 0.580207 0.068851
C18   C     C_R   0.938247 0.971773 0.419565 0.069101
C19   C     C_R   0.049337 0.093208 0.514106 0.069198
C20   C     C_R   0.950831 0.906615 0.485678 0.069153
C21   C     C_R   0.012883 0.934719 0.566026 -0.185978
C22   C     C_R   0.987209 0.065112 0.433787 -0.186013
H3    H     H_    0.086451 0.238670 0.483019 0.103711
H4    H     H_    0.913593 0.761176 0.516761 0.102919
H5    H     H_    0.190132 0.285407 0.621079 0.116664
H6    H     H_    0.810261 0.714430 0.378617 0.115897
H7    H     H_    0.129454 0.012251 0.712635 0.103127
H8    H     H_    0.871214 0.987586 0.287093 0.102379
C23   C     C_R   0.176794 0.982002 0.961477 -0.175785
C24   C     C_R   0.822689 0.017065 0.039270 -0.168469
H9    H     H_    0.315568 0.969846 0.932314 0.118888
H10   H     H_    0.683732 0.029627 0.068130 0.117933
C25   C     C_R   0.166267 0.044519 0.027582 -0.162292
C26   C     C_R   0.833637 0.953780 0.973738 -0.151856
H11   H     H_    0.297263 0.079100 0.046933 0.122200
H12   H     H_    0.702715 0.919056 0.954472 0.116919
C27   C     C_R   0.988925 0.063214 0.067167 -0.047179
C28   C     C_R   0.010938 0.935336 0.933988 -0.036541
C29   C     C_R   0.320091 0.471676 0.469998 -0.165637
C30   C     C_R   0.679919 0.528442 0.529900 -0.164902
H13   H     H_    0.179028 0.450636 0.448150 0.113367
H14   H     H_    0.820982 0.549486 0.551745 0.113211
C31   C     C_R   0.331272 0.535389 0.535137 -0.152783
C32   C     C_R   0.668738 0.464728 0.464761 -0.153266
H15   H     H_    0.198229 0.561714 0.561284 0.116466
H16   H     H_    0.801780 0.438407 0.438610 0.116552
C33   C     C_R   0.511342 0.564574 0.566059 -0.045095
C34   C     C_R   0.488667 0.435518 0.433861 -0.045700
C35   C     C_R   0.376832 0.512139 0.068615 -0.199142
C36   C     C_R   0.622113 0.489439 0.932251 -0.199082
H17   H     H_    0.282302 0.521301 0.121913 0.118233
H18   H     H_    0.714054 0.479192 0.878199 0.125315
C37   C     C_R   0.392024 0.582863 0.008812 0.095408
C38   C     C_R   0.614836 0.421118 0.994242 0.089700
C39   C     C_R   0.511264 0.569540 0.937598 -0.092142
C40   C     C_R   0.489362 0.432304 0.063635 -0.093902
C41   C     C_3   0.289413 0.672861 0.026677 -0.367654
C42   C     C_3   0.366880 0.717494 0.106867 -0.331360
C43   C     C_3   0.287926 0.814298 0.118778 -0.753353
H19   H     H_    0.346287 0.860177 0.069513 0.228375
H20   H     H_    0.127664 0.814062 0.116309 0.234983
H21   H     H_    0.334011 0.841434 0.180293 0.219014
H22   H     H_    0.325181 0.675545 0.161986 0.194948
H23   H     H_    0.527163 0.721367 0.104154 0.195290
H24   H     H_    0.307902 0.722977 0.975337 0.184320
H25   H     H_    0.132055 0.659427 0.033375 0.167132
C44   C     C_3   0.736703 0.336316 0.980350 -0.378633
C45   C     C_3   0.950466 0.356116 0.998992 -0.269636
C46   C     C_3   0.082439 0.287723 0.954992 -0.771438
H26   H     H_    0.035040 0.216453 0.967944 0.231092
H27   H     H_    0.079168 0.299414 0.886556 0.221892
H28   H     H_    0.233007 0.296580 0.977080 0.212749
H29   H     H_    0.991832 0.426330 0.978003 0.195026
H30   H     H_    0.974311 0.352168 0.067355 0.214224
H31   H     H_    0.686251 0.277152 0.018343 0.162639
H32   H     H_    0.719618 0.314489 0.914286 0.174658

loop_
_geom_bond_atom_site_label_1
_geom_bond_atom_site_label_2
_ccdc_geom_bond_type
C7    C22   S    
C30   H14   S    
C8    C21   S    
C44   C45   S    
C23   C25   A    
O13   V3    S    
C46   H26   S    
O4    C2    A    
V1    O19   S    
C46   H28   S    
C13   C15   A    
C43   H19   S    
C41   H25   S    
O9    V1    S    
C42   H23   S    
C45   H29   S    
C9    C11   A    
C36   H18   S    
O3    C1    A    
C11   H5    S    
C19   C22   A    
C12   H6    S    
O12   V4    S    
C26   H12   S    
C31   H15   S    
O7    C3    A    
O5    C7    A    
O7    V1    S    
O6    C8    A    
O8    V2    S    
C29   H13   S    
C9    H3    S    
C31   C33   A    
O14   V4    S    
V4    O20   S    
C5    C27   S    
C6    C28   S    
C15   C17   A    
C16   C18   A    
C18   C20   A    
O11   V3    S    
C1    C34   S    
C43   H20   S    
O17   V3    S    
C11   C13   A    
C25   H11   S    
H1    C14   S    
H2    C13   S    
C42   C43   S    
C38   C40   A    
O8    C4    A    
C44   H31   S    
C37   C39   A    
C1    O11   A    
C30   C33   A    
O15   V3    S    
C3    C40   S    
C29   C34   A    
C24   C26   A    
O4    V2    S    
C36   C39   A    
C32   C34   A    
C17   C19   A    
C41   C42   S    
C45   H30   S    
C23   C28   A    
O10   V2    S    
O1    V3    S    
C24   C27   A    
O3    V1    S    
C35   H17   S    
C15   H7    S    
O18   V4    S    
C23   H9    S    
O16   C6    A    
O1    C3    A    
C42   H22   S    
C10   C12   A    
C9    C19   A    
C10   H4    S    
V2    O20   S    
C43   H21   S    
C20   C21   A    
O16   V4    S    
O18   C8    A    
C36   C38   A    
C14   C16   A    
C44   H32   S    
C46   H27   S    
C35   C40   A    
O5    V1    S    
O17   C7    A    
C41   H24   S    
O10   C6    A    
C25   C27   A    
O2    V4    S    
C26   C28   A    
O15   C5    A    
V3    O19   S    
C16   H8    S    
C12   C14   A    
C10   C20   A    
C30   C32   A    
C35   C37   A    
O6    V2    S    
C29   C31   A    
O9    C5    A    
C2    C33   S    
O13   V1    S    
C24   H10   S    
O14   V2    S    
C45   C46   S    
O2    C4    A    
C37   C41   S    
C2    O12   A    
C32   H16   S    
C4    C39   S    
C38   C44   S    
C17   C21   A    
C18   C22   A    
