data_mof_unit_47975.cif
_audit_creation_date              2012-12-10T18:21:25-0500
_audit_creation_method            fapswitch 2.2
_symmetry_space_group_name_H-M    P1
_symmetry_Int_Tables_number       1
_space_group_crystal_system       triclinic
_cell_length_a                    15.013253
_cell_length_b                    14.000128
_cell_length_c                    10.632485
_cell_angle_alpha                 90.013243
_cell_angle_beta                  89.946297
_cell_angle_gamma                 89.939425
_cell_volume                      2234.81276409

loop_
_atom_site_label
_atom_site_type_symbol
_atom_type_description
_atom_site_fract_x
_atom_site_fract_y
_atom_site_fract_z
_atom_type_partial_charge
C1    C     C_R   0.326479 0.500018 0.500964 0.891775
C2    C     C_R   0.045616 0.324037 0.529073 -0.006921
C3    C     C_R   0.092909 0.411111 0.518902 0.058774
C4    C     C_R   0.499946 0.499792 0.257438 0.835365
C5    C     C_R   0.046404 0.498800 0.508869 0.045730
C6    C     C_R   0.092558 0.586459 0.499542 0.130823
C7    C     C_R   0.046203 0.672978 0.490454 -0.225887
C8    C     C_R   0.953798 0.673093 0.489202 -0.223103
C9    C     C_R   0.185463 0.413027 0.515479 -0.265572
C10   C     C_R   0.230642 0.499847 0.504731 -0.084535
C11   C     C_R   0.184556 0.586269 0.498135 -0.264962
C12   C     C_3   0.584395 0.550479 0.927732 -0.396486
C13   C     C_R   0.545470 0.798040 0.408425 -0.069526
C14   C     C_R   0.545335 0.201832 0.408288 -0.069848
C15   C     C_R   0.454603 0.798182 0.591623 -0.070657
C16   C     C_R   0.454839 0.201960 0.591854 -0.060989
C17   C     C_R   0.453684 0.898867 0.594019 0.018100
C18   C     C_R   0.453966 0.101292 0.594252 0.024564
C19   C     C_R   0.673548 0.499940 0.499970 0.892350
C20   C     C_R   0.499956 0.949387 0.499943 0.085539
C21   C     C_R   0.499978 0.050629 0.499952 0.082662
C22   C     C_R   0.546344 0.898718 0.405990 0.015846
C23   C     C_R   0.815340 0.586316 0.494265 -0.266627
C24   C     C_R   0.546269 0.101154 0.405907 0.016139
C25   C     C_R   0.408162 0.949990 0.688027 -0.228191
C26   C     C_R   0.408663 0.050332 0.688428 -0.207522
C27   C     C_R   0.592287 0.050048 0.312368 -0.211152
C28   C     C_R   0.592355 0.949686 0.312439 -0.212275
C29   C     C_R   0.499944 0.499804 0.742551 0.834455
C30   C     C_3   0.415671 0.551179 0.072290 -0.397626
C31   C     C_3   0.499645 0.394670 0.071368 -0.392839
C32   C     C_3   0.415684 0.551226 0.927918 -0.407623
C33   C     C_3   0.499558 0.394676 0.928550 -0.393685
C34   C     C_R   0.769389 0.499727 0.501472 -0.083327
C35   C     C_3   0.584379 0.550518 0.072089 -0.407733
C36   C     C_3   0.499905 0.499073 0.121162 0.183369
C37   C     C_3   0.499895 0.499087 0.878822 0.183679
C38   C     C_R   0.090680 0.230840 0.546108 0.123929
C39   C     C_R   0.087407 0.161453 0.450854 -0.157907
C40   C     C_R   0.129805 0.073330 0.467516 -0.143152
C41   C     C_R   0.174826 0.053704 0.579642 -0.092949
C42   C     C_R   0.177364 0.122117 0.675381 -0.141328
C43   C     C_R   0.135650 0.210528 0.658759 -0.171643
C44   C     C_R   0.814962 0.412926 0.511284 -0.255070
C45   C     C_R   0.907089 0.412049 0.514249 0.097597
C46   C     C_R   0.953701 0.499132 0.506966 0.060522
C47   C     C_R   0.907446 0.586683 0.496851 0.124822
C48   C     C_R   0.952806 0.325483 0.525139 -0.273697
H1    H     H_    0.414052 0.626220 0.106921 0.179503
H2    H     H_    0.419499 0.242258 0.663117 0.127961
H3    H     H_    0.372433 0.912422 0.761432 0.137183
H4    H     H_    0.373857 0.088087 0.762560 0.132304
H5    H     H_    0.628267 0.087667 0.239248 0.138037
H6    H     H_    0.628389 0.911958 0.239373 0.138239
H7    H     H_    0.354581 0.514944 0.107582 0.158254
H8    H     H_    0.439632 0.355908 0.105878 0.178480
H9    H     H_    0.354583 0.515049 0.892693 0.156469
H10   H     H_    0.439459 0.356002 0.894281 0.168719
H11   H     H_    0.414116 0.626288 0.893384 0.173578
H12   H     H_    0.559529 0.355465 0.105580 0.169951
H13   H     H_    0.559354 0.355387 0.894041 0.178563
H14   H     H_    0.586330 0.625566 0.106672 0.173527
H15   H     H_    0.645297 0.513846 0.107286 0.157362
H16   H     H_    0.586410 0.625505 0.893147 0.180217
H17   H     H_    0.645291 0.513733 0.892418 0.158896
H18   H     H_    0.779623 0.653446 0.486402 0.162337
H19   H     H_    0.778885 0.345980 0.517261 0.163560
H20   H     H_    0.916187 0.258912 0.532261 0.152807
H21   H     H_    0.052600 0.175901 0.363700 0.128340
H22   H     H_    0.127596 0.020174 0.393629 0.125992
H23   H     H_    0.222900 0.347013 0.519806 0.180147
H24   H     H_    0.207425 0.985404 0.592530 0.128744
H25   H     H_    0.211325 0.106564 0.762711 0.120228
H26   H     H_    0.138064 0.263025 0.733546 0.129554
H27   H     H_    0.220121 0.653428 0.490340 0.160284
H28   H     H_    0.081419 0.740339 0.483622 0.142559
H29   H     H_    0.918626 0.740502 0.481632 0.146019
H30   H     H_    0.580952 0.757716 0.337334 0.128649
H31   H     H_    0.580689 0.242051 0.337075 0.128833
H32   H     H_    0.419201 0.757971 0.662798 0.129118
N1    N     N_R   0.500070 0.750030 0.500050 -0.101359
N2    N     N_R   0.500070 0.249970 0.500050 -0.102245
O1    O     O_R   0.367860 0.580280 0.500020 -0.624251
O2    O     O_R   0.367860 0.419720 0.500020 -0.623062
O3    O     O_R   0.500000 0.580270 0.314790 -0.631247
O4    O     O_R   0.500000 0.419730 0.314790 -0.632201
O5    O     O_R   0.632160 0.580270 0.499960 -0.623113
O6    O     O_R   0.632160 0.419730 0.499960 -0.624872
O7    O     O_R   0.500030 0.580270 0.685200 -0.630399
O8    O     O_R   0.500030 0.419730 0.685200 -0.634031
Zn1   Zn    Zn3+2 0.500020 0.607200 0.499990 0.934183
Zn2   Zn    Zn3+2 0.500020 0.392800 0.499990 0.934974

loop_
_geom_bond_atom_site_label_1
_geom_bond_atom_site_label_2
_ccdc_geom_bond_type
C4    C36   S    
C33   H10   S    
O5    Zn1   S    
C18   C21   A    
C41   C42   A    
C35   C36   S    
C18   C26   A    
C24   C27   A    
C29   O7    A    
O3    Zn1   S    
C7    C8    A    
C15   N1    A    
C45   C46   A    
C1    O2    A    
C40   H22   S    
C23   H18   S    
C16   H2    S    
C19   O5    A    
C38   C39   A    
C12   H16   S    
C4    O4    A    
C13   N1    A    
C17   C20   A    
N2    Zn2   S    
C14   C24   A    
C12   C37   S    
C46   C47   A    
O6    Zn2   S    
C31   C33   S    
C31   H8    S    
O7    Zn1   S    
C9    C10   A    
C43   H26   S    
C22   C28   A    
C32   H9    S    
C29   O8    A    
C23   C47   A    
C34   C44   A    
C19   O6    A    
C39   C40   A    
C28   H6    S    
C4    O3    A    
C2    C48   A    
C25   C26   A    
C14   H31   S    
C33   C37   S    
C31   H12   S    
C25   H3    S    
C3    C9    A    
C26   H4    S    
C2    C38   S    
O8    Zn2   S    
C15   H32   S    
C23   C34   A    
C16   N2    A    
C39   H21   S    
C32   C37   S    
C48   H20   S    
C12   C35   S    
C6    C7    A    
C5    C46   A    
C41   H24   S    
C16   C18   A    
C40   C41   A    
C30   H1    S    
C20   C22   A    
C8    H29   S    
C42   C43   A    
C14   N2    A    
O4    Zn2   S    
C6    C11   A    
C44   C45   A    
C12   H17   S    
C45   C48   A    
C15   C17   A    
C13   H30   S    
C42   H25   S    
C1    C10   S    
C9    H23   S    
C3    C5    A    
C19   C34   S    
C27   H5    S    
C7    H28   S    
C1    O1    A    
O1    Zn1   S    
C30   H7    S    
C30   C36   S    
C17   C25   A    
C2    C3    A    
C8    C47   A    
C38   C43   A    
C11   H27   S    
C30   C32   S    
C5    C6    A    
C13   C22   A    
C35   H14   S    
C10   C11   A    
N1    Zn1   S    
C20   C21   A    
C33   H13   S    
C21   C24   A    
C29   C37   S    
C27   C28   A    
C31   C36   S    
C44   H19   S    
C35   H15   S    
O2    Zn2   S    
C32   H11   S    
