data_mof_unit_43177.cif
_audit_creation_date              2012-10-26T19:18:45-0400
_audit_creation_method            fapswitch 2.2
_symmetry_space_group_name_H-M    P1
_symmetry_Int_Tables_number       1
_space_group_crystal_system       triclinic
_cell_length_a                    9.74112
_cell_length_b                    10.930762
_cell_length_c                    15.62834
_cell_angle_alpha                 89.425926
_cell_angle_beta                  73.390462
_cell_angle_gamma                 89.940492
_cell_volume                      1594.55592012

loop_
_atom_site_label
_atom_site_type_symbol
_atom_type_description
_atom_site_fract_x
_atom_site_fract_y
_atom_site_fract_z
_atom_type_partial_charge
C1    C     C_R   0.999558 0.265491 0.501183 0.562894
C2    C     C_R   0.218472 0.534054 0.040801 0.011483
C3    C     C_R   0.315454 0.483785 0.084316 0.020620
C4    C     C_R   0.916134 0.497457 0.671690 0.553340
C5    C     C_R   0.070739 0.540383 0.089630 0.024969
C6    C     C_R   0.030421 0.522177 0.182431 -0.113847
C7    C     C_R   0.277554 0.484586 0.178951 -0.007229
C8    C     C_2   0.886106 0.933059 0.502866 -0.143434
C9    C     C_2   0.004785 0.866613 0.494563 -0.104092
C10   C     C_2   0.887876 0.067113 0.498967 -0.150162
C11   C     C_2   0.999811 0.133390 0.505872 -0.105573
C12   C     C_R   0.654405 0.457510 0.897813 0.049517
C13   C     C_2   0.401693 0.435269 0.554624 0.196515
C14   C     C_2   0.548917 0.454674 0.564481 0.045754
C15   C     C_R   0.000557 0.734505 0.498907 0.560958
C16   C     C_R   0.084384 0.499733 0.327682 0.535205
C17   C     C_R   0.865407 0.474843 0.768155 0.004215
C18   C     C_R   0.132269 0.501238 0.228496 -0.049276
C19   C     C_R   0.877872 0.351759 0.894777 -0.141911
C20   C     C_R   0.943662 0.401144 0.810700 -0.137252
C21   C     C_R   0.724275 0.506863 0.813146 -0.114265
C22   C     C_2   0.954887 0.551995 0.045470 0.283376
C23   C     C_R   0.733940 0.377935 0.938060 0.061777
C24   C     C_2   0.407624 0.614246 0.467075 0.379975
C25   C     C_2   0.393432 0.486728 0.223723 0.240690
C26   C     C_2   0.200337 0.664543 0.907239 0.209134
C27   C     C_R   0.508314 0.483683 0.943520 0.032599
C28   C     C_R   0.451265 0.441114 0.032215 0.062657
C29   C     C_R   0.528181 0.352235 0.065786 -0.079745
C30   C     C_R   0.668187 0.322954 0.020210 -0.088060
C31   C     C_R   0.417718 0.551280 0.904570 -0.138403
C32   C     C_R   0.275176 0.576644 0.951271 -0.004811
Cu1   Cu    Cu3+1 0.138640 0.500020 0.499980 1.010069
Cu2   Cu    Cu3+1 0.861360 0.499980 0.500020 0.983034
H1    H     H_    0.725452 0.257490 0.049697 0.120335
H2    H     H_    0.052703 0.375991 0.777233 0.163749
H3    H     H_    0.670887 0.568112 0.778805 0.122643
H4    H     H_    0.479833 0.303422 0.127594 0.098591
H5    H     H_    0.454611 0.585930 0.837111 0.101153
H6    H     H_    0.976639 0.535095 0.974845 0.116958
H7    H     H_    0.409966 0.642055 0.399875 0.133097
H8    H     H_    0.396513 0.418662 0.274156 0.112353
H9    H     H_    0.218396 0.661541 0.835441 0.119243
H10   H     H_    0.783426 0.888354 0.511416 0.181011
H11   H     H_    0.109650 0.907702 0.482549 0.120379
H12   H     H_    0.792353 0.111958 0.491445 0.166716
H13   H     H_    0.094300 0.092184 0.517047 0.131446
H14   H     H_    0.570295 0.423770 0.625549 0.148740
H15   H     H_    0.636847 0.506675 0.438853 0.216729
H16   H     H_    0.918181 0.527983 0.219571 0.187750
H17   H     H_    0.939018 0.291572 0.925526 0.122242
I1    I     I_    0.293378 0.285792 0.631616 -0.383836
N1    N     N_2   0.346430 0.498660 0.500980 -0.257771
N2    N     N_2   0.652550 0.498630 0.501000 -0.332013
O1    O     O_R   0.117050 0.321960 0.499980 -0.476312
O2    O     O_2   0.446572 0.686588 0.514634 -0.506615
O3    O     O_2   0.488382 0.563533 0.202520 -0.454673
O4    O     O_2   0.125648 0.745820 0.949534 -0.463385
O5    O     O_R   0.882890 0.321920 0.500020 -0.500240
O6    O     O_R   0.052910 0.500040 0.629810 -0.475187
O7    O     O_R   0.818750 0.499990 0.629840 -0.510715
O8    O     O_R   0.117110 0.678080 0.499980 -0.493781
O9    O     O_R   0.882950 0.678040 0.500020 -0.475540
O10   O     O_R   0.181250 0.500010 0.370160 -0.530889
O11   O     O_R   0.947090 0.499960 0.370190 -0.503235
O12   O     O_2   0.832772 0.578859 0.087809 -0.449663

loop_
_geom_bond_atom_site_label_1
_geom_bond_atom_site_label_2
_ccdc_geom_bond_type
C25   H8    S    
Cu1   O1    S    
C19   C23   A    
C26   C32   S    
C29   C30   A    
C24   O2    D    
C13   I1    S    
C11   H13   S    
C31   C32   A    
C1    C11   S    
C7    C18   A    
C22   H6    S    
C4    O6    A    
C2    C3    A    
C1    O1    A    
C13   C14   S    
C6    H16   S    
C9    H11   S    
C24   H7    S    
C26   O4    D    
C12   C23   A    
C8    H10   S    
Cu2   O5    S    
C29   H4    S    
C25   O3    D    
C30   H1    S    
Cu1   O10   S    
C4    C17   S    
C4    O7    A    
Cu2   O11   S    
C2    C32   A    
C28   C29   A    
C14   N2    D    
C15   O8    A    
C31   H5    S    
C26   H9    S    
Cu1   Cu2   S    
Cu1   O6    S    
C13   N1    D    
C1    O5    A    
Cu1   N1    S    
C5    C6    A    
C6    C18   A    
C2    C5    A    
C3    C28   A    
C10   C11   D    
C12   C27   A    
C27   C31   A    
H15   N2    S    
C20   H2    S    
C23   C30   A    
C19   H17   S    
C10   H12   S    
C17   C20   A    
C21   H3    S    
C16   C18   S    
Cu2   O7    S    
C27   C28   A    
C14   H14   S    
Cu2   N2    S    
C22   O12   D    
Cu2   O9    S    
C15   O9    A    
C16   O11   A    
C16   O10   A    
C3    C7    A    
C24   N1    S    
C9    C15   S    
Cu1   O8    S    
C12   C21   A    
C8    C10   S    
C17   C21   A    
C5    C22   S    
C19   C20   A    
C8    C9    D    
C7    C25   S    
