data_mof_unit_54674.cif
_audit_creation_date              2012-10-26T20:20:44-0400
_audit_creation_method            fapswitch 2.2
_symmetry_space_group_name_H-M    P1
_symmetry_Int_Tables_number       1
_space_group_crystal_system       triclinic
_cell_length_a                    8.735479
_cell_length_b                    10.834511
_cell_length_c                    9.523952
_cell_angle_alpha                 90.010683
_cell_angle_beta                  97.935304
_cell_angle_gamma                 90.151192
_cell_volume                      892.756601203

loop_
_atom_site_label
_atom_site_type_symbol
_atom_type_description
_atom_site_fract_x
_atom_site_fract_y
_atom_site_fract_z
_atom_type_partial_charge
C1    C     C_R   0.499891 0.262084 0.499943 0.550924
C2    C     C_R   0.499199 0.063884 0.627478 -0.139529
C3    C     C_R   0.500125 0.871776 0.500042 0.020278
C4    C     C_R   0.499874 0.128224 0.499958 0.020278
C5    C     C_R   0.400363 0.426166 0.061731 0.010890
C6    C     C_R   0.599637 0.573834 0.938269 0.010891
C7    C     C_R   0.400390 0.426205 0.912944 0.009555
C8    C     C_R   0.599610 0.573795 0.087056 0.009555
C9    C     C_R   0.500110 0.737916 0.500057 0.550924
C10   C     C_R   0.203746 0.499969 0.463723 0.552022
C11   C     C_R   0.796254 0.500031 0.536277 0.552021
C12   C     C_2   0.037918 0.500055 0.443747 -0.154641
C13   C     C_2   0.962082 0.499945 0.556253 -0.154641
C14   C     C_R   0.500637 0.063814 0.372475 -0.139476
C15   C     C_R   0.499363 0.936185 0.627525 -0.139476
C16   C     C_R   0.500801 0.936116 0.372522 -0.139529
Cu1   Cu    Cu3+1 0.500000 0.500020 0.640660 0.937444
Cu2   Cu    Cu3+1 0.500000 0.499980 0.359340 0.937444
H1    H     H_    0.501146 0.111804 0.272767 0.128108
H2    H     H_    0.679293 0.633053 0.153223 0.107259
H3    H     H_    0.498854 0.888196 0.727233 0.128108
H4    H     H_    0.320694 0.366864 0.107643 0.108614
H5    H     H_    0.679306 0.633136 0.892357 0.108614
H6    H     H_    0.977989 0.500251 0.335807 0.125573
H7    H     H_    0.022011 0.499749 0.664193 0.125573
H8    H     H_    0.501467 0.888071 0.272849 0.128009
H9    H     H_    0.498533 0.111929 0.727151 0.128009
H10   H     H_    0.320707 0.366947 0.846777 0.107259
N1    N     N_R   0.500040 0.500030 0.852080 -0.225613
N2    N     N_R   0.499960 0.499970 0.147920 -0.225613
O1    O     O_R   0.499990 0.319660 0.618740 -0.508447
O2    O     O_R   0.500010 0.680340 0.381260 -0.508447
O3    O     O_R   0.499990 0.319630 0.381170 -0.508476
O4    O     O_R   0.500010 0.680370 0.618830 -0.508476
O5    O     O_R   0.274840 0.500010 0.591370 -0.501748
O6    O     O_R   0.725160 0.499990 0.408630 -0.501748
O7    O     O_R   0.274830 0.499980 0.353800 -0.500746
O8    O     O_R   0.725170 0.500020 0.646200 -0.500746

loop_
_geom_bond_atom_site_label_1
_geom_bond_atom_site_label_2
_ccdc_geom_bond_type
C11   O8    A    
C2    C4    A    
C2    H9    S    
Cu2   N2    S    
Cu1   N1    S    
C12   H6    S    
C15   H3    S    
C1    C4    S    
C8    N2    A    
Cu1   Cu2   S    
C1    O3    A    
C16   H8    S    
C2    C15   A    
C11   C13   S    
C13   H7    S    
C8    H2    S    
C10   C12   S    
C10   O7    A    
C7    N1    A    
C6    H5    S    
C11   O6    A    
C3    C9    S    
Cu2   O7    S    
Cu1   O8    S    
C4    C14   A    
C9    O4    A    
Cu1   O1    S    
C10   O5    A    
C14   C16   A    
Cu2   O2    S    
Cu2   O3    S    
C5    H4    S    
C1    O1    A    
C6    N1    A    
C3    C15   A    
C12   C13   D    
C5    N2    A    
Cu1   O4    S    
C5    C7    A    
C6    C8    A    
Cu1   O5    S    
C9    O2    A    
Cu2   O6    S    
C14   H1    S    
C3    C16   A    
C7    H10   S    
