data_mof_unit_22914.cif
_audit_creation_date              2013-03-05T16:06:48-0500
_audit_creation_method            fapswitch 2.2
_symmetry_space_group_name_H-M    P1
_symmetry_Int_Tables_number       1
_space_group_crystal_system       triclinic
_cell_length_a                    6.94768
_cell_length_b                    14.519708
_cell_length_c                    16.201466
_cell_angle_alpha                 90.469636
_cell_angle_beta                  89.945153
_cell_angle_gamma                 90.038144
_cell_volume                      1634.32009694

loop_
_atom_site_label
_atom_site_type_symbol
_atom_site_description
_atom_site_fract_x
_atom_site_fract_y
_atom_site_fract_z
_atom_type_partial_charge
O1    O     O_R   0.505830 0.583360 0.413880 -0.594830
O2    O     O_R   0.175830 0.595460 0.585520 -0.570294
O3    O     O_R   0.005520 0.416640 0.586120 -0.599071
C1    C     C_R   0.344595 0.617846 0.614109 1.071736
O4    O     O_R   0.176120 0.594390 0.414490 -0.584816
O5    O     O_R   0.005810 0.415570 0.413870 -0.559352
C2    C     C_R   0.344896 0.616063 0.385770 1.079614
O6    O     O_R   0.505540 0.584430 0.586130 -0.609317
O7    O     O_3   0.339200 0.441330 0.500000 -0.265702
V1    V     V_3+5 0.064350 0.510880 0.500000 1.287931
O8    O     O_R   0.676100 0.404540 0.414480 -0.602706
C3    C     C_R   0.845320 0.381804 0.386399 1.115897
O9    O     O_R   0.675810 0.405610 0.585510 -0.610396
C4    C     C_R   0.844564 0.385651 0.614979 0.997043
V2    V     V_3+5 0.564340 0.489120 0.500000 1.252325
O10   O     O_3   0.839360 0.558670 0.500000 -0.257352
C5    C     C_2   0.728845 0.215510 0.790853 -0.212601
C6    C     C_2   0.887993 0.166714 0.811368 0.084314
H1    H     H_    0.602578 0.211727 0.830242 0.185381
C7    C     C_2   0.711086 0.275691 0.717167 0.021307
C8    C     C_2   0.859716 0.324049 0.686531 -0.392762
H2    H     H_    0.568444 0.284314 0.691001 0.167987
H3    H     H_    0.999431 0.320722 0.716164 0.183292
C9    C     C_R   0.746191 0.254852 0.185258 -0.019644
C10   C     C_R   0.883985 0.184458 0.184337 -0.478972
C11   C     C_R   0.023048 0.185453 0.247969 0.659930
C12   C     C_R   0.010949 0.249682 0.313727 0.649705
C13   C     C_R   0.859098 0.314321 0.317700 -0.491443
C14   C     C_R   0.733907 0.317842 0.250243 0.044988
C15   C     C_3   0.518703 0.320769 0.246551 0.084198
C16   C     C_3   0.532519 0.252514 0.173834 0.075128
H4    H     H_    0.449767 0.291854 0.302515 0.143006
H5    H     H_    0.468451 0.183961 0.186617 0.150122
C17   C     C_R   0.490825 0.675197 0.746884 0.079502
C18   C     C_R   0.352173 0.683760 0.684598 -0.491954
C19   C     C_R   0.213350 0.754063 0.694548 0.629553
C20   C     C_R   0.224974 0.817382 0.761039 0.626051
C21   C     C_R   0.375875 0.812244 0.819503 -0.490288
C22   C     C_R   0.502647 0.737680 0.812293 0.094296
C23   C     C_3   0.717235 0.734965 0.812417 -0.367474
C24   C     C_3   0.704251 0.666290 0.741177 -0.372214
H6    H     H_    0.775649 0.704466 0.869882 0.192376
H7    H     H_    0.781761 0.801915 0.794624 0.253739
H8    H     H_    0.754422 0.596146 0.757715 0.168917
H9    H     H_    0.761675 0.693118 0.682084 0.262589
C25   C     C_R   0.499370 0.751354 0.315137 -0.001044
C26   C     C_R   0.352603 0.685327 0.319046 -0.281223
C27   C     C_R   0.208282 0.688797 0.258010 -0.193716
H10   H     H_    0.091380 0.639500 0.258787 0.159017
C28   C     C_R   0.221328 0.751024 0.191674 0.789863
C29   C     C_R   0.377043 0.813296 0.185746 -0.431196
C30   C     C_R   0.510400 0.814222 0.250585 -0.043665
C31   C     C_3   0.724298 0.807716 0.247344 0.524449
C32   C     C_3   0.712324 0.739316 0.317768 0.560963
H11   H     H_    0.777077 0.778161 0.188260 0.056247
H12   H     H_    0.760026 0.668437 0.301434 -0.025516
O11   O     O_R   0.229930 0.912420 0.917160 -0.564622
O12   O     O_R   0.559420 0.902500 0.088780 -0.608525
O13   O     O_R   0.729660 0.081330 0.089380 -0.612142
C33   C     C_R   0.390218 0.879936 0.116862 1.067339
O14   O     O_R   0.559650 0.901420 0.917750 -0.611474
O15   O     O_R   0.729880 0.080250 0.917130 -0.608806
C34   C     C_R   0.390603 0.880231 0.888218 1.081591
O16   O     O_R   0.229700 0.913500 0.089410 -0.548936
O17   O     O_3   0.396250 0.055540 0.003280 -0.260651
V3    V     V_3+5 0.671130 0.986010 0.003260 1.268312
O18   O     O_R   0.059600 0.091310 0.917720 -0.544434
C35   C     C_R   0.891622 0.110707 0.887596 0.925606
O19   O     O_R   0.059370 0.092380 0.088750 -0.550987
C36   C     C_R   0.890718 0.114505 0.117383 1.135774
V4    V     V_3+5 0.171120 0.007820 0.003230 1.344928
O20   O     O_3   0.896130 0.938240 0.003240 -0.267613
F1    F     F_    0.075245 0.766332 0.636503 -0.627720
F2    F     F_    0.096916 0.887915 0.764356 -0.643544
F3    F     F_    0.090676 0.744950 0.129722 -0.709511
F4    F     F_    0.810655 0.890126 0.269872 -0.583459
N1    N     N_R   0.048507 0.158681 0.755394 0.255513
O21   O     O_R   0.224088 0.164570 0.782769 -0.390380
O22   O     O_R   0.019794 0.133988 0.678979 -0.288502
F5    F     F_    0.789168 0.773120 0.390787 -0.570391
F6    F     F_    0.161656 0.119699 0.250252 -0.650120
F7    F     F_    0.139528 0.244039 0.376515 -0.645172
N2    N     N_R   0.442442 0.411445 0.224763 0.278758
O23   O     O_R   0.258650 0.421000 0.212303 -0.378044
O24   O     O_R   0.552085 0.484211 0.225555 -0.388968
N3    N     N_R   0.473554 0.290408 0.094185 0.276496
O25   O     O_R   0.322562 0.257217 0.057053 -0.360124
O26   O     O_R   0.570881 0.356258 0.059390 -0.324111

loop_
_geom_bond_atom_site_label_1
_geom_bond_atom_site_label_2
_geom_bond_distance
_ccdc_geom_bond_type
C20   F2    1.357765 S    
C18   C19   1.412991 A    
C1    O6    1.298998 A    
C31   C32   1.520973 S    
C13   C14   1.398709 A    
C11   C12   1.412610 A    
C20   C21   1.416009 A    
C3    C13   1.479900 S    
C4    C8    1.473869 S    
C19   C20   1.412825 A    
O13   V3    1.999080 S    
O5    C3    1.295529 A    
C15   C16   1.536260 S    
N3    O26   1.302477 A    
O12   C33   1.302759 A    
V2    O10   2.160598 S    
C25   C30   1.395817 A    
C5    C7    1.490469 S    
O14   C34   1.304289 A    
C17   C18   1.402088 A    
O16   V4    2.005951 S    
C15   N2    1.465483 S    
O19   V4    2.000333 S    
C9    C14   1.391541 A    
O8    V2    2.000536 S    
C17   C22   1.391813 A    
O12   V3    2.004146 S    
C23   H7    1.110319 S    
V3    O20   1.710618 S    
C26   C27   1.410181 A    
C16   H5    1.111043 S    
O1    V2    2.004370 S    
O7    V1    2.160744 S    
N1    O21   1.300920 A    
C23   H6    1.111447 S    
C1    C18   1.484941 S    
C16   N3    1.465856 S    
O9    C4    1.300141 A    
C17   C24   1.491246 S    
O14   V3    2.000154 S    
O11   C34   1.296356 A    
C32   F5    1.384489 S    
C31   H11   1.108041 S    
C32   H12   1.111232 S    
O15   V3    2.003911 S    
C29   C30   1.401346 A    
C9    C10   1.400876 A    
C22   C23   1.491443 S    
O4    C2    1.300533 A    
N3    O25   1.300166 A    
C28   C29   1.413180 A    
C10   C11   1.413557 A    
O17   V4    1.710304 S    
O18   C35   1.297423 A    
C2    C26   1.483433 S    
O2    C1    1.301185 A    
C14   C15   1.497062 S    
N2    O23   1.300660 A    
C25   C32   1.490631 S    
C5    C6    1.356713 D    
N1    O22   1.301605 A    
O11   V4    1.999550 S    
O3    C4    1.293595 A    
C23   C24   1.521780 S    
N2    O24   1.302093 A    
C7    H2    1.085985 S    
C11   F6    1.357244 S    
O9    V2    2.005038 S    
C24   H8    1.111623 S    
C31   F4    1.384660 S    
O2    V1    2.000175 S    
C30   C31   1.490003 S    
C21   C34   1.485402 S    
C25   C26   1.400870 A    
C27   H10   1.082361 S    
O1    C2    1.299339 A    
C12   F7    1.357480 S    
O5    V1    1.999109 S    
O8    C3    1.302010 A    
C29   C33   1.485780 S    
O6    V2    1.999306 S    
O15   C35   1.299645 A    
C33   O16   1.297790 A    
C8    H3    1.084631 S    
O7    V2    1.710782 S    
C9    C16   1.496521 S    
O4    V1    2.004195 S    
O3    V1    2.003908 S    
V1    O10   1.710673 S    
C28   F3    1.356233 S    
C15   H4    1.110367 S    
C21   C22   1.400186 A    
C6    N1    1.440888 S    
C27   C28   1.412530 A    
C5    H1    1.085961 S    
O18   V4    2.004996 S    
O19   C36   1.299380 A    
C19   F1    1.357009 S    
O13   C36   1.298710 A    
V4    O20   2.160618 S    
C7    C8    1.345168 D    
O17   V3    2.160791 S    
C12   C13   1.413593 A    
C24   H9    1.110256 S    
C10   C36   1.480689 S    
C6    C35   1.484491 S    
