data_mof_unit_49005.cif
_audit_creation_date              2012-12-11T15:43:18-0500
_audit_creation_method            fapswitch 2.2
_symmetry_space_group_name_H-M    P1
_symmetry_Int_Tables_number       1
_space_group_crystal_system       triclinic
_cell_length_a                    19.027015
_cell_length_b                    10.969763
_cell_length_c                    18.751177
_cell_angle_alpha                 89.92814
_cell_angle_beta                  89.854089
_cell_angle_gamma                 89.703752
_cell_volume                      3913.71224173

loop_
_atom_site_label
_atom_site_type_symbol
_atom_type_description
_atom_site_fract_x
_atom_site_fract_y
_atom_site_fract_z
_atom_type_partial_charge
C1    C     C_R   0.711587 0.329767 0.138608 0.566458
C2    C     C_R   0.269452 0.377070 0.853698 0.545959
C3    C     C_R   0.211567 0.829721 0.138602 0.565338
C4    C     C_R   0.769485 0.876972 0.853740 0.550021
C5    C     C_R   0.486316 0.396846 0.932984 -0.083867
C6    C     C_R   0.467606 0.374138 0.079698 -0.097846
C7    C     C_R   0.985527 0.897061 0.933245 -0.085180
C8    C     C_R   0.967361 0.873936 0.079970 -0.097866
C9    C     C_R   0.970187 0.999401 0.974599 -0.135145
C10   C     C_R   0.959351 0.987301 0.047522 -0.128216
C11   C     C_R   0.470973 0.499361 0.974209 -0.135322
C12   C     C_R   0.459846 0.487465 0.047120 -0.128384
C13   C     C_R   0.745598 0.924307 0.921568 0.015364
C14   C     C_R   0.221867 0.844804 0.062013 0.014046
C15   C     C_R   0.245554 0.424507 0.921505 0.013139
C16   C     C_R   0.721944 0.345028 0.062073 0.013688
C17   C     C_R   0.697066 0.859809 0.963461 0.002503
C18   C     C_R   0.287209 0.825525 0.029747 0.005924
C19   C     C_R   0.196954 0.360141 0.963386 0.002902
C20   C     C_R   0.787305 0.325815 0.029829 0.005671
C21   C     C_R   0.695125 0.875032 0.036672 0.009652
C22   C     C_R   0.297643 0.851966 0.958423 0.002245
C23   C     C_R   0.195038 0.375303 0.036605 0.009049
C24   C     C_R   0.797745 0.352326 0.958521 0.003305
C25   C     C_R   0.785060 0.027785 0.027012 -0.139463
C26   C     C_R   0.174740 0.900313 0.945931 -0.160291
C27   C     C_R   0.285171 0.527704 0.026999 -0.139367
C28   C     C_R   0.674844 0.400803 0.946068 -0.158198
C29   C     C_R   0.784298 0.017601 0.953399 -0.141902
C30   C     C_R   0.164483 0.874278 0.018249 -0.153116
C31   C     C_R   0.284355 0.517648 0.953372 -0.143622
C32   C     C_R   0.664576 0.374661 0.018347 -0.153136
C33   C     C_3   0.684191 0.725744 0.969838 -0.245079
C34   C     C_3   0.358006 0.871469 0.050312 -0.267202
C35   C     C_3   0.183907 0.226119 0.969724 -0.244503
C36   C     C_3   0.858071 0.371884 0.050419 -0.266978
C37   C     C_3   0.681168 0.743244 0.049938 -0.276230
C38   C     C_3   0.369434 0.901112 0.972113 -0.257287
C39   C     C_3   0.180910 0.243562 0.049830 -0.275902
C40   C     C_3   0.869503 0.401601 0.972234 -0.257563
C41   C     C_R   0.744050 0.950160 0.069817 0.022686
C42   C     C_R   0.242966 0.899205 0.916867 0.006072
C43   C     C_R   0.244051 0.450214 0.069786 0.020740
C44   C     C_R   0.743053 0.399548 0.916982 0.007896
C45   C     C_R   0.532192 0.154806 0.146347 0.535355
C46   C     C_R   0.469168 0.156477 0.852697 0.529826
C47   C     C_R   0.032223 0.654798 0.146344 0.529746
C48   C     C_R   0.968952 0.656471 0.852834 0.530740
C49   C     C_R   0.504443 0.163465 0.579834 0.033208
C50   C     C_R   0.542817 0.157700 0.435786 0.006130
C51   C     C_R   0.996613 0.671983 0.575987 0.025163
C52   C     C_R   0.010506 0.660887 0.427354 0.014870
C53   C     C_R   0.539619 0.061513 0.551474 0.025989
C54   C     C_R   0.556895 0.058316 0.479930 0.019035
C55   C     C_R   0.036577 0.579850 0.544804 0.016427
C56   C     C_R   0.040949 0.573958 0.471898 0.024130
C57   C     C_R   0.514739 0.263395 0.466109 -0.190937
C58   C     C_R   0.494956 0.266588 0.537132 -0.160312
C59   C     C_R   0.977360 0.761302 0.458245 -0.176798
C60   C     C_R   0.971266 0.768011 0.532486 -0.157338
C61   C     C_3   0.519656 0.929528 0.552112 -0.271783
C62   C     C_3   0.532427 0.929843 0.472692 -0.265623
C63   C     C_3   0.033209 0.443895 0.551388 -0.277933
C64   C     C_3   0.032081 0.439911 0.470783 -0.259044
C65   C     C_R   0.761068 0.896829 0.570215 0.006815
C66   C     C_R   0.247433 0.929438 0.420967 0.011160
C67   C     C_R   0.250993 0.421395 0.578296 0.023138
C68   C     C_R   0.753152 0.444156 0.416710 0.008301
C69   C     C_R   0.815262 0.953159 0.533234 0.006768
C70   C     C_R   0.191253 0.950072 0.466586 -0.001855
C71   C     C_R   0.278229 0.530255 0.552170 -0.016593
C72   C     C_R   0.702812 0.513707 0.453482 0.004333
C73   C     C_R   0.817349 0.959482 0.460516 0.011249
C74   C     C_R   0.199140 0.992408 0.533831 0.010052
C75   C     C_R   0.267990 0.565835 0.482792 -0.014017
C76   C     C_R   0.710537 0.539785 0.524861 0.014081
C77   C     C_R   0.712441 0.837005 0.455612 -0.153624
C78   C     C_R   0.324134 0.000577 0.515683 -0.180456
C79   C     C_R   0.208469 0.375501 0.460236 -0.167833
C80   C     C_R   0.826790 0.453058 0.522560 -0.163586
C81   C     C_R   0.711714 0.830656 0.530375 -0.156757
C82   C     C_R   0.314725 0.964261 0.443905 -0.179220
C83   C     C_R   0.213951 0.345148 0.531953 -0.175867
C84   C     C_R   0.817763 0.420929 0.450387 -0.173806
C85   C     C_3   0.849203 0.072479 0.544962 -0.273309
C86   C     C_3   0.127462 0.877857 0.483844 -0.249328
C87   C     C_3   0.349666 0.585862 0.557269 -0.265103
C88   C     C_3   0.627021 0.483520 0.463391 -0.261510
C89   C     C_R   0.740182 0.974748 0.145500 0.537650
C90   C     C_R   0.257922 0.966973 0.851683 0.548125
C91   C     C_R   0.240180 0.474772 0.145488 0.542788
C92   C     C_R   0.757961 0.467107 0.851737 0.545675
C93   C     C_3   0.853045 0.083028 0.463703 -0.117772
C94   C     C_3   0.131674 0.933583 0.558054 -0.118554
C95   C     C_3   0.337804 0.631197 0.481669 -0.129558
C96   C     C_3   0.635202 0.510180 0.541734 -0.126910
C97   C     C_R   0.760129 0.914394 0.421215 0.007100
C98   C     C_R   0.266184 0.003064 0.562928 0.003302
C99   C     C_R   0.235202 0.486639 0.435093 0.021504
C100  C     C_R   0.770993 0.505974 0.561571 0.013230
C101  C     C_R   0.730576 0.381871 0.351422 0.541805
C102  C     C_R   0.271311 0.376324 0.647042 0.533774
C103  C     C_R   0.230253 0.880764 0.351452 0.547272
C104  C     C_R   0.771774 0.874536 0.645708 0.531279
C105  C     C_R   0.562179 0.152463 0.361047 0.561962
C106  C     C_R   0.467508 0.156193 0.646702 0.540307
C107  C     C_R   0.031659 0.656725 0.353286 0.536058
C108  C     C_R   0.967286 0.657659 0.646440 0.548411
C109  C     C_R   0.742917 0.969539 0.353245 0.534429
C110  C     C_R   0.272787 0.025366 0.638936 0.566426
C111  C     C_R   0.228348 0.519868 0.361336 0.563463
C112  C     C_R   0.773126 0.524325 0.638817 0.573670
C113  C     C_R   0.500433 0.170262 0.923552 -0.008431
C114  C     C_R   0.508056 0.160132 0.072498 -0.004595
C115  C     C_R   0.000267 0.670457 0.923626 -0.011943
C116  C     C_R   0.008133 0.660152 0.072510 -0.003455
C117  C     C_R   0.491375 0.279404 0.964291 0.028295
C118  C     C_R   0.488152 0.270799 0.039586 0.006818
C119  C     C_R   0.991002 0.779532 0.964429 0.026842
C120  C     C_R   0.987971 0.770772 0.039721 0.007364
C121  C     C_R   0.523849 0.057507 0.030433 -0.150552
C122  C     C_R   0.520532 0.062780 0.957470 -0.166695
C123  C     C_R   0.024174 0.557736 0.030371 -0.149998
C124  C     C_R   0.020742 0.563102 0.957426 -0.167831
Cr1   Cr    Cr6+3 0.772010 0.169670 0.250090 0.990776
Cr2   Cr    Cr6+3 0.227990 0.169670 0.749910 0.992573
Cr3   Cr    Cr6+3 0.272010 0.669670 0.250090 1.007232
Cr4   Cr    Cr6+3 0.727990 0.669670 0.749910 0.989534
Cr5   Cr    Cr6+3 0.615000 0.323260 0.249260 0.979342
Cr6   Cr    Cr6+3 0.385000 0.323260 0.750740 0.976373
Cr7   Cr    Cr6+3 0.115000 0.823260 0.249260 0.976015
Cr8   Cr    Cr6+3 0.885000 0.823260 0.750740 0.981383
Cr9   Cr    Cr6+3 0.616710 0.010760 0.250840 0.995391
Cr10  Cr    Cr6+3 0.383290 0.010760 0.749160 0.997415
Cr11  Cr    Cr6+3 0.116710 0.510760 0.250840 1.003059
Cr12  Cr    Cr6+3 0.883290 0.510760 0.749160 1.001894
H1    H     H_    0.540705 0.971739 0.053632 0.150627
H2    H     H_    0.530024 0.979669 0.927659 0.135825
H3    H     H_    0.041292 0.472069 0.053502 0.151150
H4    H     H_    0.030424 0.480131 0.927542 0.136191
H5    H     H_    0.508873 0.344388 0.435278 0.140483
H6    H     H_    0.469506 0.347807 0.557492 0.129004
H7    H     H_    0.955719 0.832254 0.425293 0.134052
H8    H     H_    0.942171 0.843313 0.555234 0.149781
H9    H     H_    0.984885 0.407340 0.575843 0.148386
H10   H     H_    0.077285 0.395159 0.445486 0.159638
H11   H     H_    0.464390 0.909634 0.566264 0.151977
H12   H     H_    0.573299 0.865004 0.455775 0.135870
H13   H     H_    0.558485 0.873411 0.581945 0.128933
H14   H     H_    0.483214 0.925034 0.441412 0.136587
H15   H     H_    0.082052 0.405585 0.574738 0.144695
H16   H     H_    0.980382 0.412919 0.448618 0.144533
H17   H     H_    0.673449 0.788630 0.425042 0.122198
H18   H     H_    0.375594 0.025436 0.534221 0.125676
H19   H     H_    0.185497 0.310163 0.424052 0.128650
H20   H     H_    0.874504 0.427171 0.549213 0.131179
H21   H     H_    0.672462 0.775926 0.556795 0.124613
H22   H     H_    0.359144 0.959886 0.407929 0.117693
H23   H     H_    0.194305 0.257734 0.549663 0.129781
H24   H     H_    0.858469 0.369629 0.423208 0.125929
H25   H     H_    0.899499 0.058781 0.573750 0.137656
H26   H     H_    0.137992 0.778169 0.481602 0.131414
H27   H     H_    0.392262 0.516839 0.562157 0.144046
H28   H     H_    0.620043 0.386630 0.450826 0.154369
H29   H     H_    0.813146 0.140501 0.569595 0.123682
H30   H     H_    0.081762 0.910085 0.452833 0.173789
H31   H     H_    0.351610 0.660709 0.597105 0.126492
H32   H     H_    0.591594 0.548340 0.435125 0.134020
H33   H     H_    0.819103 0.157764 0.443109 0.153017
H34   H     H_    0.090079 0.004001 0.566234 0.114294
H35   H     H_    0.329426 0.731197 0.480895 0.127045
H36   H     H_    0.604958 0.592526 0.558240 0.103320
H37   H     H_    0.497874 0.412682 0.877366 0.122896
H38   H     H_    0.457671 0.368480 0.136406 0.127460
H39   H     H_    0.996675 0.913325 0.877622 0.123266
H40   H     H_    0.957602 0.868174 0.136710 0.127931
H41   H     H_    0.966267 0.088392 0.949846 0.097897
H42   H     H_    0.945913 0.066386 0.079305 0.105326
H43   H     H_    0.467323 0.588320 0.949379 0.097373
H44   H     H_    0.446426 0.566676 0.078807 0.104590
H45   H     H_    0.819686 0.094266 0.050386 0.143703
H46   H     H_    0.130696 0.933243 0.914901 0.129014
H47   H     H_    0.319903 0.593997 0.050396 0.143270
H48   H     H_    0.630825 0.433898 0.915070 0.129301
H49   H     H_    0.820207 0.073192 0.922568 0.139085
H50   H     H_    0.112846 0.886175 0.041128 0.153352
H51   H     H_    0.320320 0.573153 0.922554 0.138137
H52   H     H_    0.612946 0.386591 0.041235 0.152887
H53   H     H_    0.229819 0.170246 0.952646 0.162570
H54   H     H_    0.893088 0.297798 0.070098 0.128106
H55   H     H_    0.730181 0.670051 0.952773 0.162061
H56   H     H_    0.392983 0.797333 0.070003 0.127087
H57   H     H_    0.632963 0.698572 0.946498 0.137392
H58   H     H_    0.355303 0.953741 0.084846 0.151563
H59   H     H_    0.132642 0.199167 0.946379 0.137456
H60   H     H_    0.855310 0.454129 0.084972 0.151625
H61   H     H_    0.627919 0.728002 0.072699 0.139620
H62   H     H_    0.372899 0.000660 0.961508 0.159654
H63   H     H_    0.127643 0.228510 0.072589 0.140008
H64   H     H_    0.872912 0.501163 0.961651 0.159131
H65   H     H_    0.724748 0.696687 0.078761 0.144321
H66   H     H_    0.411212 0.844490 0.946855 0.133642
H67   H     H_    0.224431 0.196812 0.078638 0.144886
H68   H     H_    0.911323 0.345074 0.946975 0.134132
O1    O     O_R   0.787520 0.042810 0.170440 -0.540650
O2    O     O_R   0.212480 0.042810 0.829560 -0.529690
O3    O     O_R   0.287520 0.542810 0.170440 -0.533867
O4    O     O_R   0.712480 0.542810 0.829560 -0.532417
O5    O     O_R   0.556610 0.252880 0.323980 -0.524076
O6    O     O_R   0.443390 0.252880 0.676020 -0.514428
O7    O     O_R   0.056610 0.752880 0.323980 -0.510940
O8    O     O_R   0.943390 0.752880 0.676020 -0.520406
O9    O     O_R   0.545950 0.051210 0.330860 -0.517326
O10   O     O_R   0.454050 0.051210 0.669140 -0.536567
O11   O     O_R   0.045950 0.551210 0.330860 -0.518595
O12   O     O_R   0.954050 0.551210 0.669140 -0.532926
O13   O     O_R   0.681390 0.959480 0.325510 -0.511164
O14   O     O_R   0.318610 0.959480 0.674490 -0.502434
O15   O     O_R   0.181390 0.459480 0.325510 -0.511831
O16   O     O_R   0.818610 0.459480 0.674490 -0.505671
O17   O     O_3   0.667900 0.167900 0.250060 -0.276510
O18   O     O_3   0.332100 0.167900 0.749940 -0.261172
O19   O     O_3   0.167900 0.667900 0.250060 -0.282536
O20   O     O_3   0.832100 0.667900 0.749940 -0.261640
O21   O     O_R   0.765640 0.292100 0.175020 -0.498826
O22   O     O_R   0.234360 0.292100 0.824980 -0.501814
O23   O     O_R   0.265640 0.792100 0.175020 -0.502001
O24   O     O_R   0.734360 0.792100 0.824980 -0.502565
O25   O     O_R   0.670190 0.408840 0.168540 -0.520691
O26   O     O_R   0.329810 0.408840 0.831460 -0.521015
O27   O     O_R   0.170190 0.908840 0.168540 -0.522783
O28   O     O_R   0.829810 0.908840 0.831460 -0.518715
O29   O     O_R   0.556620 0.251410 0.175160 -0.526486
O30   O     O_R   0.443380 0.251410 0.824840 -0.513633
O31   O     O_R   0.056620 0.751410 0.175160 -0.527714
O32   O     O_R   0.943380 0.751410 0.824840 -0.514594
O33   O     O_R   0.545960 0.049620 0.170320 -0.520135
O34   O     O_R   0.454040 0.049620 0.829680 -0.523246
O35   O     O_R   0.045960 0.549620 0.170320 -0.520803
O36   O     O_R   0.954040 0.549620 0.829680 -0.521170
O37   O     O_R   0.681390 0.958010 0.176690 -0.496898
O38   O     O_R   0.318610 0.958010 0.823310 -0.491278
O39   O     O_R   0.181390 0.458010 0.176690 -0.493546
O40   O     O_R   0.818610 0.458010 0.823310 -0.491120
O41   O     O_R   0.787510 0.044390 0.330970 -0.540520
O42   O     O_R   0.212490 0.044390 0.669030 -0.515267
O43   O     O_R   0.287510 0.544390 0.330970 -0.494163
O44   O     O_R   0.712490 0.544390 0.669030 -0.514155
O45   O     O_R   0.765630 0.293570 0.323840 -0.502896
O46   O     O_R   0.234370 0.293570 0.676160 -0.525292
O47   O     O_R   0.265630 0.793570 0.323840 -0.510403
O48   O     O_R   0.734370 0.793570 0.676160 -0.525180
O49   O     O_R   0.670190 0.410420 0.329080 -0.522388
O50   O     O_R   0.329810 0.410420 0.670920 -0.530944
O51   O     O_R   0.170190 0.910420 0.329080 -0.522664
O52   O     O_R   0.829810 0.910420 0.670920 -0.522224
C125  C     C_R   0.927660 0.087252 0.433355 0.033061
C126  C     C_R   0.943129 0.042066 0.364581 -0.099508
C127  C     C_R   0.009744 0.057154 0.334319 -0.106494
C128  C     C_R   0.062566 0.114863 0.372713 -0.090441
C129  C     C_R   0.049180 0.154941 0.441863 -0.142679
C130  C     C_R   0.981837 0.146078 0.470926 -0.120751
H69   H     H_    0.905204 0.991456 0.334420 0.143638
H70   H     H_    0.020652 0.022358 0.281407 0.116053
H71   H     H_    0.114309 0.126123 0.349676 0.139240
H72   H     H_    0.090968 0.193813 0.473154 0.100583
H73   H     H_    0.972647 0.186701 0.522606 0.097365
C131  C     C_R   0.137666 0.845778 0.620367 0.064082
C132  C     C_R   0.191133 0.757499 0.623698 -0.071355
C133  C     C_R   0.201358 0.688812 0.685784 -0.103017
C134  C     C_R   0.158166 0.707379 0.745055 -0.103989
C135  C     C_R   0.104966 0.795183 0.742436 -0.080574
C136  C     C_R   0.094372 0.863560 0.680406 -0.044775
H74   H     H_    0.226906 0.747446 0.579477 0.113673
H75   H     H_    0.244000 0.623684 0.688902 0.126056
H76   H     H_    0.166734 0.655383 0.793404 0.108667
H77   H     H_    0.072902 0.812088 0.788971 0.101986
H78   H     H_    0.053791 0.933150 0.680069 0.089627
C137  C     C_R   0.391089 0.588424 0.426551 0.062100
C138  C     C_R   0.397753 0.464751 0.407687 -0.079588
C139  C     C_R   0.430924 0.432226 0.343611 -0.084292
C140  C     C_R   0.465424 0.520080 0.302812 -0.082885
C141  C     C_R   0.463807 0.641855 0.324090 -0.119844
C142  C     C_R   0.425618 0.676060 0.384661 -0.075745
H79   H     H_    0.371839 0.394756 0.438686 0.119047
H80   H     H_    0.430527 0.338204 0.326333 0.135295
H81   H     H_    0.492732 0.493990 0.254435 0.109638
H82   H     H_    0.489721 0.710497 0.292082 0.098977
H83   H     H_    0.420107 0.771515 0.396829 0.084954
C143  C     C_R   0.626418 0.401233 0.591734 0.069329
C144  C     C_R   0.664871 0.291923 0.582154 -0.076533
C145  C     C_R   0.667164 0.204220 0.636301 -0.108899
C146  C     C_R   0.631307 0.223931 0.700338 -0.096736
C147  C     C_R   0.591554 0.330058 0.709712 -0.066828
C148  C     C_R   0.587603 0.416847 0.655160 -0.043195
H84   H     H_    0.695252 0.276436 0.534117 0.101512
H85   H     H_    0.697245 0.121329 0.628903 0.107590
H86   H     H_    0.633783 0.156488 0.742454 0.109637
H87   H     H_    0.563780 0.345221 0.759347 0.104062
H88   H     H_    0.557851 0.499831 0.664229 0.079472

loop_
_geom_bond_atom_site_label_1
_geom_bond_atom_site_label_2
_ccdc_geom_bond_type
Cr2   O42   S    
C144  C145  A    
C73   C93   S    
Cr4   O20   S    
C75   C95   S    
C140  C141  A    
C111  O15   A    
C64   H16   S    
C4    O28   A    
C79   C99   A    
C16   C20   A    
C96   C143  S    
Cr7   O51   S    
C134  C135  A    
C22   C38   S    
C23   C43   A    
Cr11  O39   S    
Cr3   O3    S    
C138  H79   S    
C87   H31   S    
C113  C122  A    
C135  C136  A    
C88   H32   S    
C70   C74   A    
C44   C92   S    
C34   H58   S    
C71   C87   S    
C59   C60   A    
Cr10  O34   S    
C43   C91   S    
C145  H85   S    
Cr2   O22   S    
C47   O31   A    
C25   C29   A    
C47   C116  S    
C27   C31   A    
C7    C119  A    
C28   C32   A    
C105  O9    A    
C68   C101  S    
C25   C41   A    
Cr12  O40   S    
C6    H38   S    
Cr7   O31   S    
C28   C44   A    
C17   C21   A    
C10   H42   S    
C101  O49   A    
C66   C82   A    
C78   C82   A    
C68   C72   A    
Cr8   O32   S    
C40   H64   S    
C93   C125  S    
Cr6   O50   S    
Cr12  O36   S    
C11   H43   S    
Cr5   O5    S    
C9    H41   S    
C2    O22   A    
C139  H80   S    
C62   H14   S    
C64   H10   S    
C141  H82   S    
C50   C57   A    
C66   C103  S    
C49   C106  S    
C76   C100  A    
Cr11  O19   S    
C136  H78   S    
C33   H55   S    
C103  O47   A    
C34   H56   S    
C85   H29   S    
C129  H72   S    
C19   C35   S    
C76   C96   S    
C66   C70   A    
Cr1   O45   S    
C49   C53   A    
Cr1   O1    S    
C51   C55   A    
C27   H47   S    
Cr8   O52   S    
C79   H19   S    
C107  O11   A    
C8    C10   A    
C38   H66   S    
C5    C117  A    
Cr4   O4    S    
C61   H13   S    
C94   H34   S    
C106  O6    A    
C41   C89   S    
C67   C83   A    
C104  O48   A    
C116  C123  A    
C123  C124  A    
C74   C98   A    
C53   C54   A    
C132  H74   S    
C36   H54   S    
C46   O30   A    
C129  C130  A    
C82   H22   S    
C123  H3    S    
C125  C126  A    
C121  H1    S    
C146  H86   S    
C77   H17   S    
C53   C61   S    
C45   C114  S    
C40   H68   S    
Cr10  O18   S    
C55   C63   S    
C50   C105  S    
C38   H62   S    
C77   C97   A    
C9    C10   A    
C59   H7    S    
C140  H81   S    
C62   H12   S    
Cr9   O33   S    
C108  O8    A    
C45   O33   A    
C134  H76   S    
C106  O10   A    
C89   O1    A    
C138  C139  A    
C3    O27   A    
C130  H73   S    
C88   H28   S    
C116  C120  A    
C87   C95   S    
C42   C90   S    
C36   H60   S    
C146  C147  A    
C97   C109  S    
Cr12  O20   S    
Cr4   O24   S    
C99   C111  S    
C75   C99   A    
C112  O16   A    
C114  C118  A    
C113  C117  A    
C12   H44   S    
Cr5   O49   S    
C26   C30   A    
C115  C119  A    
C90   O38   A    
Cr7   O7    S    
C47   O35   A    
C31   H51   S    
C69   C85   S    
C26   C42   A    
Cr7   O27   S    
C39   H63   S    
C46   C113  S    
C18   C22   A    
C5    H37   S    
C133  H75   S    
C101  O45   A    
C128  C129  A    
C91   O3    A    
C8    H40   S    
C15   C31   A    
Cr1   O17   S    
C16   C32   A    
C13   C17   A    
C126  C127  A    
C28   H48   S    
C147  H87   S    
C117  C118  A    
C57   C58   A    
C29   H49   S    
C61   C62   S    
C109  O13   A    
C2    O26   A    
C63   C64   S    
C111  O43   A    
C141  C142  A    
Cr7   O19   S    
C51   C60   A    
C63   H9    S    
C55   C56   A    
C88   C96   S    
C98   C110  S    
C39   H67   S    
C85   H25   S    
C74   C94   S    
Cr1   O41   S    
C86   H30   S    
C80   C84   A    
C84   H24   S    
C15   C19   A    
C93   H33   S    
C50   C54   A    
C13   C29   A    
C45   O29   A    
C5    C11   A    
C6    C12   A    
C147  C148  A    
C107  O7    A    
Cr6   O26   S    
C105  O5    A    
C7    C9    A    
C143  C144  A    
Cr10  O38   S    
C90   O2    A    
C114  C121  A    
C52   C107  S    
Cr9   O17   S    
C137  C138  A    
C69   C73   A    
C35   H59   S    
C33   H57   S    
C35   H53   S    
C102  O46   A    
C132  C133  A    
Cr3   O23   S    
C17   C33   S    
Cr1   O21   S    
C48   O36   A    
C81   H21   S    
C125  C130  A    
C68   C84   A    
Cr6   O18   S    
C122  H2    S    
C127  H70   S    
C78   H18   S    
C54   C62   S    
Cr10  O14   S    
Cr6   O30   S    
C33   C37   S    
C102  O50   A    
C35   C39   S    
C58   H6    S    
C65   C81   A    
C77   C81   A    
C1    C16   S    
C137  C142  A    
C2    C15   S    
C63   H15   S    
C121  C122  A    
C108  O12   A    
C3    C14   S    
C21   C41   A    
C142  H83   S    
C100  C112  S    
C24   C44   A    
Cr3   O43   S    
C3    O23   A    
C1    O21   A    
C103  O51   A    
C115  C124  A    
Cr8   O20   S    
C124  H4    S    
C119  C120  A    
C148  H88   S    
Cr12  O16   S    
C94   C131  S    
Cr10  O10   S    
C57   H5    S    
Cr2   O46   S    
C144  H84   S    
C61   H11   S    
C60   H8    S    
C79   C83   A    
Cr2   O2    S    
C65   C69   A    
C67   C71   A    
C4    O24   A    
C20   C36   S    
C27   C43   A    
C21   C37   S    
C131  C132  A    
C37   H65   S    
C133  C134  A    
C128  H71   S    
C95   H35   S    
C87   H27   S    
C135  H77   S    
C14   C18   A    
C19   C23   A    
C126  H69   S    
Cr8   O8    S    
C72   C76   A    
C73   C97   A    
Cr4   O48   S    
C30   H50   S    
C145  C146  A    
Cr5   O25   S    
C4    C13   S    
C86   C94   S    
Cr9   O37   S    
Cr11  O11   S    
C20   C24   A    
C51   C108  S    
C7    H39   S    
C131  C136  A    
C78   C98   A    
C86   H26   S    
C37   H61   S    
Cr3   O19   S    
C110  O42   A    
C80   C100  A    
C85   C93   S    
C14   C30   A    
Cr8   O28   S    
C72   C88   S    
C25   H45   S    
C80   H20   S    
C95   C137  S    
C32   H52   S    
C143  C148  A    
Cr4   O44   S    
C36   C40   S    
Cr5   O17   S    
C139  C140  A    
Cr9   O13   S    
C49   C58   A    
Cr5   O29   S    
C92   O4    A    
C52   C59   A    
Cr11  O15   S    
C56   C64   S    
C18   C34   S    
C48   O32   A    
C48   C115  S    
C91   O39   A    
C89   O37   A    
Cr6   O6    S    
C127  C128  A    
C70   C86   S    
C26   H46   S    
C8    C120  A    
C112  O44   A    
C34   C38   S    
C11   C12   A    
Cr2   O18   S    
C104  O52   A    
Cr9   O9    S    
C71   C75   A    
C92   O40   A    
C22   C42   A    
C23   C39   S    
C24   C40   S    
Cr11  O35   S    
Cr3   O47   S    
C46   O34   A    
C110  O14   A    
C109  O41   A    
C1    O25   A    
C83   H23   S    
C96   H36   S    
C65   C104  S    
C6    C118  A    
C52   C56   A    
C67   C102  S    
Cr12  O12   S    
