data_mof_unit_27326.cif
_audit_creation_date              2012-12-10T17:33:04-0500
_audit_creation_method            fapswitch 2.2
_symmetry_space_group_name_H-M    P1
_symmetry_Int_Tables_number       1
_space_group_crystal_system       triclinic
_cell_length_a                    12.359344
_cell_length_b                    13.268319
_cell_length_c                    14.259017
_cell_angle_alpha                 93.254795
_cell_angle_beta                  107.578221
_cell_angle_gamma                 117.103087
_cell_volume                      1931.58465911

loop_
_atom_site_label
_atom_site_type_symbol
_atom_type_description
_atom_site_fract_x
_atom_site_fract_y
_atom_site_fract_z
_atom_type_partial_charge
C1    C     C_R   0.651983 0.714319 0.510341 0.778494
C2    C     C_R   0.220155 0.515031 0.014928 0.162268
C3    C     C_R   0.157635 0.511346 0.084335 0.115673
C4    C     C_R   0.618860 0.517540 0.686775 0.799189
C5    C     C_R   0.332689 0.504033 0.042669 -0.197269
C6    C     C_R   0.384997 0.490733 0.139271 -0.192129
C7    C     C_R   0.207753 0.490484 0.178733 -0.239756
C8    C     C_R   0.117334 0.969673 0.340551 -0.180913
C9    C     C_R   0.241635 0.162167 0.451088 -0.151773
C10   C     C_R   0.744244 0.920333 0.589107 -0.180385
C11   C     C_R   0.839822 0.036337 0.612545 -0.139278
C12   C     C_R   0.872362 0.536955 0.925762 0.014615
C13   C     C_R   0.936309 0.070925 0.571360 -0.183397
C14   C     C_R   0.936219 0.989710 0.502224 0.101210
C15   C     C_R   0.830138 0.873995 0.470112 0.076999
C16   C     C_R   0.342607 0.285069 0.480509 0.799850
C17   C     C_R   0.036360 0.020118 0.462191 0.078398
C18   C     C_R   0.022073 0.939124 0.383664 0.065016
C19   C     C_R   0.910407 0.829866 0.346046 -0.216027
C20   C     C_R   0.815260 0.797924 0.387888 -0.182365
C21   C     C_R   0.150794 0.128623 0.498262 -0.303777
C22   C     C_R   0.223848 0.082077 0.369995 0.402430
C23   C     C_R   0.818499 0.547834 0.998304 0.127815
C24   C     C_R   0.740314 0.837907 0.520124 -0.102641
C25   C     C_R   0.253708 0.684442 0.662252 -0.305162
C26   C     C_R   0.655351 0.343940 0.362308 0.107494
C27   C     C_R   0.733265 0.310578 0.331336 -0.221663
C28   C     C_R   0.382247 0.484018 0.313450 0.780651
C29   C     C_R   0.868367 0.369261 0.382983 -0.212943
C30   C     C_R   0.928020 0.463172 0.466715 -0.010861
C31   C     C_R   0.843813 0.494763 0.495428 0.291952
C32   C     C_R   0.067519 0.527036 0.522696 -0.033786
C33   C     C_R   0.118975 0.620756 0.605557 0.177752
C34   C     C_R   0.991305 0.533889 0.956211 0.061499
C35   C     C_R   0.035991 0.650895 0.631525 -0.298481
C36   C     C_R   0.902057 0.589721 0.577782 -0.193045
C37   C     C_R   0.159399 0.502610 0.500797 0.017928
C38   C     C_R   0.338170 0.656003 0.636961 0.067043
C39   C     C_R   0.687082 0.530097 0.794287 -0.044469
C40   C     C_R   0.323102 0.485168 0.207983 -0.055162
C41   C     C_R   0.702818 0.554362 0.968022 -0.148474
C42   C     C_R   0.638383 0.546601 0.867005 -0.231857
C43   C     C_R   0.802490 0.524897 0.823892 -0.233422
C44   C     C_R   0.046754 0.527435 0.056941 0.023385
C45   C     C_R   0.992064 0.540427 0.127764 -0.319264
C46   C     C_R   0.879669 0.551078 0.099517 0.372886
C47   C     C_R   0.057978 0.539317 0.889679 -0.202362
C48   C     C_R   0.170588 0.530737 0.918985 -0.232897
Cu1   Cu    Cu3+1 0.416420 0.526630 0.522910 0.933840
Cu2   Cu    Cu3+1 0.583580 0.473370 0.477090 0.933469
H1    H     H_    0.381598 0.507962 0.990253 0.131021
H2    H     H_    0.158324 0.477068 0.231252 0.146607
H3    H     H_    0.075101 0.722962 0.694639 0.157202
H4    H     H_    0.293556 0.756023 0.725928 0.141487
H5    H     H_    0.128688 0.432756 0.439202 0.120263
H6    H     H_    0.551013 0.298209 0.321028 0.140552
H7    H     H_    0.923724 0.339717 0.355605 0.138413
H8    H     H_    0.688654 0.238916 0.266774 0.155128
H9    H     H_    0.847849 0.620487 0.603755 0.205390
H10   H     H_    0.474682 0.486889 0.160650 0.167316
H11   H     H_    0.218804 0.535877 0.865815 0.145661
H12   H     H_    0.896081 0.768989 0.283434 0.184066
H13   H     H_    0.660831 0.564389 0.022069 0.179983
H14   H     H_    0.549120 0.551149 0.845683 0.153490
H15   H     H_    0.833696 0.507271 0.765283 0.156031
H16   H     H_    0.037140 0.546644 0.206898 0.141359
H17   H     H_    0.028389 0.554337 0.815120 0.149896
H18   H     H_    0.879595 0.560999 0.236785 0.327176
H19   H     H_    0.326861 0.191126 0.306197 0.314998
H20   H     H_    0.104729 0.908295 0.279085 0.163816
H21   H     H_    0.171337 0.190138 0.562776 0.163878
H22   H     H_    0.675253 0.894567 0.627185 0.150565
H23   H     H_    0.007331 0.162360 0.593081 0.131795
H24   H     H_    0.841432 0.099482 0.665305 0.146781
H25   H     H_    0.728177 0.714053 0.352616 0.175014
H26   H     H_    0.442091 0.705047 0.680668 0.120366
N1    N     N_R   0.290690 0.566960 0.557640 -0.176727
N2    N     N_R   0.709100 0.433710 0.442970 -0.210614
O1    O     O_R   0.545970 0.684450 0.528810 -0.574336
O2    O     O_3   0.303173 0.111094 0.314433 -0.731829
O3    O     O_R   0.687130 0.639470 0.490120 -0.601708
O4    O     O_R   0.519670 0.535100 0.660030 -0.584464
O5    O     O_R   0.660830 0.490120 0.621340 -0.599910
O6    O     O_R   0.312870 0.360530 0.509880 -0.583854
O7    O     O_R   0.454030 0.315550 0.471190 -0.566455
O8    O     O_R   0.339170 0.509880 0.378660 -0.583345
O9    O     O_R   0.480330 0.464900 0.339970 -0.600730
O10   O     O_3   0.826556 0.562295 0.169463 -0.770580

loop_
_geom_bond_atom_site_label_1
_geom_bond_atom_site_label_2
_ccdc_geom_bond_type
C35   H3    S    
C41   C42   A    
C19   C20   A    
C36   H9    S    
C38   H26   S    
C45   C46   A    
C12   C23   A    
C26   C27   A    
C26   N2    A    
C21   H21   S    
Cu1   O6    S    
C9    C16   S    
C7    H2    S    
C12   C43   A    
C3    C7    A    
C5    C6    A    
C9    C22   A    
C27   C29   A    
C28   C40   S    
C19   H12   S    
C1    O3    A    
C16   O6    A    
C18   C19   A    
Cu2   O7    S    
C35   C36   A    
C8    C22   A    
C7    C40   A    
C23   C46   A    
C13   C14   A    
C14   C17   A    
Cu2   N2    S    
C47   H17   S    
Cu2   O5    S    
C39   C42   A    
C46   O10   S    
C15   C20   A    
C3    C44   A    
C6    H10   S    
C34   C44   A    
C25   H4    S    
C39   C43   A    
C2    C48   A    
C37   N1    A    
C11   H24   S    
C8    C18   A    
Cu1   O1    S    
C20   H25   S    
Cu1   O4    S    
C29   C30   A    
C25   C38   A    
C47   C48   A    
C4    C39   S    
C43   H15   S    
C28   O9    A    
C17   C18   A    
C32   C37   A    
Cu2   O9    S    
C15   C24   A    
C13   H23   S    
C28   O8    A    
C16   O7    A    
C1    O1    A    
C6    C40   A    
C2    C5    A    
C41   H13   S    
C12   C34   A    
C42   H14   S    
C44   C45   A    
C31   N2    A    
C14   C15   A    
Cu1   O8    S    
C29   H7    S    
C27   H8    S    
C26   H6    S    
C38   N1    A    
C8    H20   S    
C23   C41   A    
C10   C24   A    
C32   C33   A    
C2    C3    A    
C22   O2    S    
C30   C32   A    
C11   C13   A    
C9    C21   A    
C48   H11   S    
C30   C31   A    
C4    O5    A    
H18   O10   S    
C33   C35   A    
Cu1   N1    S    
C17   C21   A    
C10   C11   A    
C37   H5    S    
C4    O4    A    
C1    C24   S    
Cu1   Cu2   S    
C45   H16   S    
C31   C36   A    
C5    H1    S    
H19   O2    S    
C34   C47   A    
Cu2   O3    S    
C25   C33   A    
C10   H22   S    
