data_mof_unit_25045.cif
_audit_creation_date              2013-03-05T16:11:14-0500
_audit_creation_method            fapswitch 2.2
_symmetry_space_group_name_H-M    P1
_symmetry_Int_Tables_number       1
_space_group_crystal_system       triclinic
_cell_length_a                    6.954235
_cell_length_b                    20.535904
_cell_length_c                    24.477926
_cell_angle_alpha                 90.146251
_cell_angle_beta                  90.688748
_cell_angle_gamma                 89.726291
_cell_volume                      3495.42605123

loop_
_atom_site_label
_atom_site_type_symbol
_atom_site_description
_atom_site_fract_x
_atom_site_fract_y
_atom_site_fract_z
_atom_type_partial_charge
O1    O     O_R   0.507280 0.423750 0.460310 -0.594270
O2    O     O_R   0.171030 0.555650 0.437630 -0.584600
O3    O     O_R   0.004080 0.576250 0.539690 -0.590299
C1    C     C_R   0.339030 0.575792 0.421859 0.990665
O4    O     O_R   0.177330 0.422980 0.453960 -0.597124
O5    O     O_R   0.010420 0.442640 0.556140 -0.590853
C2    C     C_R   0.345846 0.399171 0.443060 0.912576
O6    O     O_R   0.500930 0.557360 0.443860 -0.565839
O7    O     O_3   0.340310 0.506600 0.533500 -0.269059
V1    V     V_3+5 0.064140 0.498780 0.493780 1.200511
O8    O     O_R   0.680890 0.444350 0.562370 -0.580251
C3    C     C_R   0.850545 0.424410 0.578120 0.950679
O9    O     O_R   0.674590 0.577020 0.546040 -0.576181
C4    C     C_R   0.843573 0.601133 0.556428 1.044074
V2    V     V_3+5 0.564550 0.501220 0.506220 1.216566
O10   O     O_3   0.838250 0.493400 0.466500 -0.273872
C5    C     C_R   0.968835 0.838623 0.910720 -0.094193
C6    C     C_R   0.854002 0.663126 0.586997 -0.281222
C7    C     C_R   0.946198 0.721299 0.907878 -0.167973
C8    C     C_R   0.963835 0.778869 0.937605 -0.166958
C9    C     C_R   0.956485 0.840540 0.853352 -0.241854
C10   C     C_R   0.938330 0.782327 0.821855 0.111577
C11   C     C_R   0.932617 0.722452 0.850608 0.175342
C12   C     C_R   0.924569 0.781288 0.763198 0.058929
C13   C     C_R   0.902598 0.720472 0.734618 0.065421
C14   C     C_R   0.897186 0.662706 0.765673 -0.186334
C15   C     C_R   0.912522 0.663875 0.822264 -0.226111
C16   C     C_R   0.932963 0.838956 0.732144 -0.200557
C17   C     C_R   0.920424 0.837692 0.675546 -0.190203
C18   C     C_R   0.898485 0.779161 0.647203 0.124638
C19   C     C_R   0.887991 0.719536 0.675929 0.132390
C20   C     C_R   0.887907 0.780416 0.589960 -0.270939
C21   C     C_R   0.865758 0.723194 0.559319 0.352563
C22   C     C_R   0.864710 0.661651 0.644465 -0.282289
H1    H     H_    0.907984 0.618105 0.844194 0.143311
H2    H     H_    0.856463 0.614317 0.663118 0.121803
H3    H     H_    0.928484 0.883390 0.653612 0.136862
H4    H     H_    0.941971 0.675566 0.929834 0.120129
H5    H     H_    0.972354 0.776855 0.981798 0.108651
H6    H     H_    0.959196 0.888107 0.834955 0.098942
H7    H     H_    0.881972 0.615217 0.747497 0.141089
H8    H     H_    0.950693 0.886361 0.750299 0.130303
H9    H     H_    0.895863 0.826669 0.568871 0.172492
H10   H     H_    0.641047 0.234793 0.816477 0.173484
C23   C     C_R   0.731655 0.286300 0.744054 0.344822
C24   C     C_R   0.883481 0.294436 0.706310 -0.033421
C25   C     C_R   0.052670 0.257446 0.712973 -0.132520
H11   H     H_    0.169657 0.262899 0.684546 0.171804
C26   C     C_R   0.073661 0.213256 0.756239 -0.123122
H12   H     H_    0.205921 0.185516 0.760381 0.129364
C27   C     C_R   0.925555 0.205037 0.793801 0.117916
C28   C     C_R   0.755906 0.241644 0.787557 -0.296148
C29   C     C_1   0.872048 0.340844 0.661287 0.129909
C30   C     C_1   0.946306 0.158931 0.838656 0.018247
C31   C     C_1   0.960724 0.120691 0.876354 -0.299294
C32   C     C_1   0.862336 0.379173 0.623543 -0.237257
H13   H     H_    0.698929 0.704787 0.298148 0.135037
C33   C     C_R   0.596715 0.769115 0.234598 -0.170891
H14   H     H_    0.740594 0.782631 0.222675 0.120679
C34   C     C_R   0.436113 0.795742 0.207189 0.180710
C35   C     C_R   0.251329 0.777140 0.223652 -0.162054
H15   H     H_    0.125275 0.796969 0.203134 0.121321
C36   C     C_R   0.227493 0.732671 0.266698 -0.157820
H16   H     H_    0.083616 0.719113 0.278593 0.124870
C37   C     C_R   0.388097 0.705967 0.294049 0.166047
C38   C     C_R   0.572879 0.724650 0.277649 -0.144058
C39   C     C_1   0.459903 0.841554 0.162142 -0.005552
C40   C     C_1   0.364304 0.659757 0.338804 0.014267
C41   C     C_1   0.348905 0.621333 0.376390 -0.226281
C42   C     C_1   0.475280 0.879541 0.124239 -0.279765
C43   C     C_R   0.476944 0.161689 0.089283 -0.117222
C44   C     C_R   0.352584 0.338446 0.410738 -0.096154
C45   C     C_R   0.559079 0.275637 0.096264 -0.173436
C46   C     C_R   0.542258 0.218962 0.065362 -0.155881
C47   C     C_R   0.433377 0.161240 0.145278 -0.177246
C48   C     C_R   0.470506 0.216513 0.179102 0.131997
C49   C     C_R   0.522381 0.275068 0.152519 0.182622
C50   C     C_R   0.451628 0.216679 0.237775 -0.018397
C51   C     C_R   0.449261 0.278039 0.266442 0.068677
C52   C     C_R   0.493849 0.335028 0.237146 -0.184315
C53   C     C_R   0.535545 0.333019 0.181914 -0.231486
C54   C     C_R   0.440076 0.158542 0.269363 -0.091779
C55   C     C_R   0.383711 0.161944 0.323940 -0.271784
C56   C     C_R   0.364318 0.221416 0.350919 0.157999
C57   C     C_R   0.405690 0.280372 0.323641 0.115807
C58   C     C_R   0.313441 0.221709 0.406287 -0.150087
C59   C     C_R   0.306069 0.279720 0.435715 -0.163506
C60   C     C_R   0.400870 0.339021 0.355074 -0.242875
H17   H     H_    0.573290 0.377957 0.161588 0.132012
H18   H     H_    0.432045 0.385925 0.337819 0.097544
H19   H     H_    0.266930 0.278684 0.478418 0.115069
H20   H     H_    0.367993 0.117267 0.347025 0.171331
H21   H     H_    0.603537 0.319996 0.076212 0.123447
H22   H     H_    0.578671 0.219887 0.022452 0.117881
H23   H     H_    0.371239 0.117359 0.161321 0.111582
H24   H     H_    0.501304 0.382394 0.255910 0.126903
H25   H     H_    0.281081 0.176640 0.427141 0.126380
O11   O     O_R   0.323320 0.942780 0.056240 -0.587580
O12   O     O_R   0.647300 0.077050 0.046060 -0.583804
O13   O     O_R   0.813840 0.057330 0.943840 -0.589818
C61   C     C_R   0.479144 0.101009 0.056885 0.939215
O14   O     O_R   0.653250 0.944380 0.062400 -0.590550
O15   O     O_R   0.819830 0.923720 0.960300 -0.590508
C62   C     C_R   0.485193 0.924548 0.078389 0.979903
O16   O     O_R   0.317330 0.076390 0.039790 -0.590388
O17   O     O_3   0.483830 0.993470 0.966560 -0.274097
V3    V     V_3+5 0.760140 0.001210 0.006210 1.175185
O18   O     O_R   0.149290 0.922840 0.953850 -0.592212
C63   C     C_R   0.980118 0.899070 0.943152 0.920960
O19   O     O_R   0.143340 0.055500 0.937510 -0.591665
C64   C     C_R   0.973625 0.075509 0.921812 0.977846
V4    V     V_3+5 0.259690 0.998600 0.993650 1.170816
O20   O     O_3   0.986130 0.006520 0.033440 -0.266518
N1    N     N_R   0.553739 0.322467 0.739394 0.229590
O21   O     O_R   0.443084 0.329077 0.781581 -0.406151
O22   O     O_R   0.493478 0.344916 0.692542 -0.428203
C65   C     C_2   0.517448 0.094789 0.250855 0.996395
O23   O     O_2   0.436721 0.044274 0.263396 -0.630896
O24   O     O_R   0.686859 0.092417 0.220650 -0.794553
H26   H     H_    0.725407 0.046306 0.210517 0.327647
N2    N     N_R   0.857528 0.727246 0.500490 0.228438
O25   O     O_R   0.757406 0.685903 0.471703 -0.410411
O26   O     O_R   0.936699 0.776007 0.475576 -0.382543

loop_
_geom_bond_atom_site_label_1
_geom_bond_atom_site_label_2
_geom_bond_distance
_ccdc_geom_bond_type
C13   C19   1.439037 A    
C43   C47   1.407339 A    
C36   C37   1.405143 A    
C59   H19   1.083599 S    
C45   C46   1.391100 A    
C4    C6    1.476674 S    
O2    C1    1.304355 A    
C7    C8    1.391778 A    
C45   H21   1.083962 S    
H13   C38   1.083333 S    
C1    O6    1.297422 A    
N1    O21   1.301664 A    
C47   H23   1.078221 S    
C25   C26   1.402259 A    
O17   V4    1.703920 S    
C23   C24   1.422036 A    
C55   H20   1.085419 S    
C14   C15   1.388211 A    
C16   C17   1.387305 A    
C56   C58   1.404831 A    
C65   O24   1.399003 S    
O5    C3    1.298127 A    
C18   C19   1.416166 A    
C42   C62   1.458209 S    
C29   C32   1.216324 T    
O17   V3    2.148669 S    
C33   C34   1.405189 A    
V2    O10   2.152832 S    
C5    C8    1.394696 A    
O18   C63   1.299365 A    
C35   C36   1.407915 A    
C58   H25   1.083973 S    
C46   H22   1.083626 S    
O19   C64   1.301817 A    
V4    O20   2.152905 S    
C30   C31   1.216137 T    
O8    V2    1.969775 S    
C23   N1    1.443527 S    
C33   C38   1.407949 A    
V3    O20   1.703564 S    
C25   H11   1.083267 S    
C34   C39   1.462690 S    
C40   C41   1.219612 T    
C26   C27   1.399977 A    
O1    V2    1.984611 S    
C11   C15   1.393887 A    
C52   H24   1.075839 S    
O7    V1    2.148688 S    
C53   H17   1.084392 S    
H10   C28   1.083568 S    
C43   C61   1.475467 S    
O9    C4    1.299449 A    
C21   N2    1.443049 S    
C1    C41   1.458050 S    
C44   C60   1.407309 A    
C48   C49   1.418899 A    
C61   O16   1.300013 A    
O11   V4    1.960845 S    
C27   C28   1.402906 A    
C12   C13   1.437820 A    
C2    C44   1.475977 S    
O4    C2    1.298072 A    
C8    H5    1.083552 S    
C58   C59   1.391624 A    
C23   C28   1.415121 A    
C15   H1    1.084373 S    
C13   C14   1.411459 A    
C5    C9    1.406482 A    
O18   V4    1.986137 S    
C34   C35   1.406255 A    
C7    C11   1.404165 A    
C47   C48   1.425988 A    
C17   C18   1.394375 A    
C7    H4    1.083949 S    
C50   C54   1.427175 A    
C55   C56   1.393679 A    
C49   C53   1.391922 A    
O24   H26   1.013912 S    
C37   C40   1.462590 S    
C19   C22   1.423601 A    
O14   V3    1.961477 S    
C56   C57   1.416495 A    
O14   C62   1.304329 A    
C6    C22   1.408178 A    
N2    O25   1.301139 A    
C3    C32   1.451997 S    
O3    C4    1.295908 A    
O12   C61   1.296560 A    
O16   V4    1.993550 S    
C60   H18   1.076790 S    
C37   C38   1.406246 A    
O6    V2    1.960304 S    
O9    V2    1.986061 S    
C26   H12   1.083427 S    
C10   C12   1.437962 A    
C51   C52   1.411794 A    
O2    V1    1.961280 S    
C51   C57   1.436717 A    
C44   C59   1.394672 A    
C57   C60   1.428010 A    
C24   C25   1.405502 A    
O13   V3    1.955821 S    
C31   C64   1.452282 S    
O1    C2    1.298594 A    
C12   C16   1.410658 A    
C48   C50   1.443741 A    
C52   C53   1.386578 A    
C5    C63   1.473655 S    
O5    V1    1.955899 S    
C43   C46   1.395536 A    
N1    O22   1.301036 A    
O8    C3    1.301361 A    
O12   V3    1.997966 S    
O15   C63   1.296040 A    
C39   C42   1.219689 T    
C20   C21   1.400570 A    
C27   C30   1.457057 S    
C33   H14   1.083256 S    
O4    V1    1.997930 S    
O3    V1    1.991019 S    
V1    O10   1.703489 S    
C65   O23   1.223482 D    
C18   C20   1.402547 A    
C50   C51   1.440838 A    
C9    H6    1.077001 S    
O11   C62   1.297563 A    
C24   C29   1.460022 S    
C16   H8    1.076111 S    
C20   H9    1.084172 S    
C22   H2    1.077056 S    
O7    V2    1.706724 S    
C35   H15   1.083311 S    
C6    C21   1.412053 A    
O19   V4    1.969997 S    
N2    O26   1.301615 A    
C36   H16   1.083271 S    
O13   C64   1.297784 A    
C54   C55   1.398255 A    
C17   H3    1.084390 S    
C45   C49   1.403566 A    
C10   C11   1.419279 A    
O15   V3    1.990802 S    
C54   C65   1.484884 S    
C9    C10   1.426144 A    
C14   H7    1.076051 S    
