data_mof_unit_19946.cif
_audit_creation_date              2012-12-11T17:01:12-0500
_audit_creation_method            fapswitch 2.2
_symmetry_space_group_name_H-M    P1
_symmetry_Int_Tables_number       1
_space_group_crystal_system       triclinic
_cell_length_a                    19.236578
_cell_length_b                    7.093919
_cell_length_c                    17.73302
_cell_angle_alpha                 89.999861
_cell_angle_beta                  108.509059
_cell_angle_gamma                 89.99973
_cell_volume                      2294.72342719

loop_
_atom_site_label
_atom_site_type_symbol
_atom_type_description
_atom_site_fract_x
_atom_site_fract_y
_atom_site_fract_z
_atom_type_partial_charge
O1    O     O_R   0.413720 0.494330 0.415730 -0.538638
O2    O     O_R   0.586280 0.994330 0.584270 -0.538637
O3    O     O_R   0.560210 0.819300 0.430070 -0.543837
O4    O     O_R   0.439790 0.319300 0.569930 -0.543838
C1    C     C_R   0.581768 0.655408 0.414817 0.712648
C2    C     C_R   0.418232 0.155409 0.585183 0.712646
O5    O     O_R   0.412670 0.823730 0.406310 -0.540599
O6    O     O_R   0.587330 0.323730 0.593690 -0.540599
O7    O     O_R   0.437690 0.998790 0.560340 -0.539123
O8    O     O_R   0.562310 0.498790 0.439660 -0.539123
C3    C     C_R   0.384810 0.655747 0.384533 0.726519
C4    C     C_R   0.615190 0.155746 0.615468 0.726520
O9    O     O_3   0.508380 0.662350 0.550560 -0.376414
O10   O     O_3   0.491620 0.162350 0.449440 -0.376414
V1    V     V_3+5 0.498450 0.935370 0.490620 1.402379
V2    V     V_3+5 0.501550 0.435370 0.509380 1.402377
C5    C     C_R   0.687405 0.046057 0.751475 0.030967
C6    C     C_R   0.312595 0.546052 0.248528 0.030961
C7    C     C_R   0.683276 0.150124 0.683862 -0.142973
C8    C     C_R   0.316724 0.650128 0.316138 -0.142970
C9    C     C_R   0.744808 0.260738 0.686210 -0.269262
C10   C     C_R   0.255191 0.760741 0.313789 -0.269260
H1    H     H_    0.743200 0.347138 0.635317 0.132221
H2    H     H_    0.256799 0.847144 0.364680 0.132221
C11   C     C_R   0.810956 0.248970 0.751513 0.458983
C12   C     C_R   0.189043 0.748969 0.248486 0.458986
C13   C     C_R   0.815682 0.124723 0.815975 -0.241105
C14   C     C_R   0.184318 0.624719 0.184026 -0.241105
C15   C     C_R   0.750023 0.038731 0.817065 -0.011155
C16   C     C_R   0.249977 0.538721 0.182937 -0.011166
C17   C     C_3   0.730065 0.844448 0.837220 0.338792
C18   C     C_3   0.269934 0.344429 0.162793 0.338796
C19   C     C_3   0.663600 0.851979 0.762213 -0.389984
C20   C     C_3   0.336400 0.351970 0.237798 -0.389967
H3    H     H_    0.769486 0.731347 0.835214 0.037037
H4    H     H_    0.230514 0.231336 0.164806 0.037041
H5    H     H_    0.609838 0.850105 0.773270 0.184355
H6    H     H_    0.390162 0.350088 0.226741 0.184356
H7    H     H_    0.668071 0.754235 0.714915 0.135588
H8    H     H_    0.331930 0.254239 0.285101 0.135588
C21   C     C_R   0.321294 0.301272 0.632715 -0.193013
C22   C     C_R   0.678706 0.801270 0.367286 -0.193010
C23   C     C_R   0.368228 0.148490 0.633726 -0.108321
C24   C     C_R   0.631772 0.648490 0.366274 -0.108322
C25   C     C_R   0.366999 0.990543 0.680999 -0.154445
C26   C     C_R   0.633001 0.490545 0.319001 -0.154443
C27   C     C_R   0.320368 0.985738 0.727889 0.082218
C28   C     C_R   0.679631 0.485741 0.272110 0.082216
C29   C     C_R   0.272557 0.138236 0.725734 -0.014438
C30   C     C_R   0.727442 0.638237 0.274266 -0.014439
C31   C     C_R   0.272635 0.296824 0.677491 0.015569
C32   C     C_R   0.727365 0.796823 0.322509 0.015570
C33   C     C_R   0.321261 0.831165 0.777364 -0.204613
C34   C     C_R   0.678736 0.331171 0.222633 -0.204610
C35   C     C_R   0.275211 0.825877 0.824871 0.439617
C36   C     C_R   0.724786 0.325886 0.175126 0.439621
C37   C     C_R   0.225078 0.973945 0.820568 0.014934
C38   C     C_R   0.774920 0.473950 0.179430 0.014934
C39   C     C_R   0.224696 0.131942 0.771870 -0.013746
C40   C     C_R   0.775304 0.631944 0.228129 -0.013744
C41   C     C_R   0.176975 0.284519 0.769868 0.075286
C42   C     C_R   0.823025 0.784519 0.230131 0.075279
C43   C     C_R   0.177168 0.440892 0.721616 -0.212923
C44   C     C_R   0.822831 0.940892 0.278384 -0.212936
C45   C     C_R   0.223648 0.446934 0.674436 0.439441
C46   C     C_R   0.776351 0.946933 0.325563 0.439445
C47   C     C_R   0.176232 0.968692 0.865014 -0.207079
C48   C     C_R   0.823767 0.468696 0.134984 -0.207091
C49   C     C_R   0.128826 0.120628 0.863632 -0.120067
C50   C     C_R   0.871174 0.620629 0.136368 -0.120060
C51   C     C_R   0.130017 0.278903 0.816442 -0.157818
C52   C     C_R   0.869982 0.778903 0.183558 -0.157826
H9    H     H_    0.321871 0.422317 0.595634 0.163969
H10   H     H_    0.678130 0.922314 0.404367 0.163969
H11   H     H_    0.403395 0.872878 0.682469 0.122340
H12   H     H_    0.596604 0.372882 0.317530 0.122340
H13   H     H_    0.357913 0.713741 0.779520 0.137133
H14   H     H_    0.642083 0.213751 0.220474 0.137137
H15   H     H_    0.176223 0.848071 0.902512 0.166165
H16   H     H_    0.823775 0.348076 0.097486 0.166163
H17   H     H_    0.093799 0.396757 0.815304 0.134324
H18   H     H_    0.906201 0.896756 0.184697 0.134325
H19   H     H_    0.141577 0.559840 0.720848 0.135448
H20   H     H_    0.858422 0.059840 0.279151 0.135447
O11   O     O_R   0.937800 0.775460 0.060470 -0.539767
O12   O     O_R   0.062200 0.275460 0.939530 -0.539762
O13   O     O_R   0.087350 0.441340 0.093710 -0.556532
O14   O     O_R   0.912650 0.941340 0.906290 -0.556537
C53   C     C_R   0.115395 0.610246 0.115774 0.744348
C54   C     C_R   0.884606 0.110247 0.884226 0.744345
O15   O     O_R   0.939820 0.446010 0.069950 -0.543727
O16   O     O_R   0.060180 0.946010 0.930050 -0.543728
O17   O     O_R   0.913690 0.271230 0.915700 -0.524920
O18   O     O_R   0.086310 0.771230 0.084300 -0.524921
C55   C     C_R   0.919988 0.614349 0.086392 0.707087
C56   C     C_R   0.080011 0.114349 0.913607 0.707087
O19   O     O_3   0.991670 0.603050 0.949510 -0.378800
O20   O     O_3   0.008330 0.103050 0.050490 -0.378804
V3    V     V_3+5 0.001550 0.329940 0.009370 1.387588
V4    V     V_3+5 0.998450 0.829940 0.990630 1.387584
O21   O     O_3   0.277424 0.671467 0.873148 -0.560362
C57   C     C_3   0.336389 0.695653 0.943951 -0.272019
H21   H     H_    0.337878 0.573899 0.983549 0.201143
H22   H     H_    0.329293 0.825245 0.976213 0.144511
H23   H     H_    0.389862 0.699285 0.932171 0.137149
O22   O     O_3   0.722567 0.171485 0.126843 -0.560362
C58   C     C_3   0.663610 0.195714 0.056036 -0.272021
H24   H     H_    0.662112 0.073960 0.016435 0.201150
H25   H     H_    0.670724 0.325301 0.023779 0.144509
H26   H     H_    0.610135 0.199387 0.067808 0.137148
O23   O     O_3   0.224969 0.605843 0.629679 -0.555972
C59   C     C_3   0.162552 0.604653 0.561355 -0.269630
H27   H     H_    0.159796 0.473613 0.525907 0.133391
H28   H     H_    0.166381 0.725470 0.523147 0.174066
H29   H     H_    0.111392 0.622557 0.577097 0.137250
O24   O     O_3   0.775029 0.105842 0.370319 -0.555971
C60   C     C_3   0.837450 0.104656 0.438642 -0.269612
H30   H     H_    0.840211 0.973609 0.474092 0.133382
H31   H     H_    0.833618 0.225471 0.476851 0.174065
H32   H     H_    0.888610 0.122573 0.422897 0.137244
O25   O     O_3   0.873797 0.335935 0.746637 -0.558252
C61   C     C_3   0.868165 0.531886 0.756500 -0.202188
H33   H     H_    0.918501 0.600070 0.751739 0.156173
H34   H     H_    0.865048 0.564532 0.816582 0.147428
H35   H     H_    0.820695 0.594280 0.709689 0.106522
O26   O     O_3   0.126202 0.835932 0.253363 -0.558252
C62   C     C_3   0.131830 0.031882 0.243496 -0.202191
H36   H     H_    0.081495 0.100065 0.248261 0.156171
H37   H     H_    0.134943 0.064526 0.183412 0.147437
H38   H     H_    0.179301 0.094280 0.290303 0.106518
O27   O     O_3   0.705936 0.845948 0.904601 -0.551140
C63   C     C_3   0.764873 0.804624 0.972869 -0.201795
H39   H     H_    0.807352 0.916579 0.984311 0.143699
H40   H     H_    0.788203 0.663489 0.967881 0.110563
H41   H     H_    0.744275 0.800304 0.024577 0.177825
O28   O     O_3   0.294063 0.345894 0.095412 -0.551141
C64   C     C_3   0.235122 0.304632 0.027143 -0.201785
H42   H     H_    0.192684 0.416663 0.015684 0.143699
H43   H     H_    0.211750 0.163587 0.032138 0.110562
H44   H     H_    0.255719 0.300192 0.975441 0.177787

loop_
_geom_bond_atom_site_label_1
_geom_bond_atom_site_label_2
_ccdc_geom_bond_type
C48   H16   S    
C43   C45   A    
O26   C62   S    
C13   C15   A    
C5    C15   A    
C33   H13   S    
O23   C59   S    
O1    C3    A    
C49   C56   S    
O2    C4    A    
C2    O7    A    
C26   H12   S    
C32   C46   A    
C27   C29   A    
O5    C3    A    
C64   H43   S    
C19   H7    S    
C46   O24   S    
C13   C54   S    
C20   H8    S    
C18   H4    S    
C7    C9    A    
C60   H31   S    
C31   C45   A    
C37   C39   A    
O22   C58   S    
C38   C40   A    
O16   C56   A    
C34   H14   S    
O24   C60   S    
C57   H23   S    
C40   C42   A    
C12   O26   S    
C25   C27   A    
C53   O18   A    
C49   C51   A    
C44   H20   S    
C17   O27   S    
C44   C46   A    
C45   O23   S    
C63   H39   S    
C29   C31   A    
C30   C32   A    
C58   H24   S    
C17   C19   S    
C14   C53   S    
C6    C16   A    
O17   V3    S    
C42   C44   A    
C27   C33   A    
C48   C50   A    
C41   C51   A    
C28   C30   A    
O6    V2    S    
C58   H25   S    
C22   C24   A    
C37   C47   A    
C59   H28   S    
C59   H27   S    
O19   V3    S    
C24   C26   A    
O13   V3    S    
C33   C35   A    
C64   H44   S    
C34   C36   A    
C3    C8    S    
C22   H10   S    
C39   C41   A    
O21   C57   S    
C47   H15   S    
O4    C2    A    
C60   H32   S    
C18   O28   S    
O5    V1    S    
O15   C55   A    
C19   H5    S    
C43   H19   S    
C47   C49   A    
C18   C20   S    
O4    V2    S    
C28   C34   A    
C62   H37   S    
O12   V3    S    
C23   C25   A    
O18   V4    S    
O6    C4    A    
C41   C43   A    
C42   C52   A    
C5    C19   S    
O1    V2    S    
C57   H22   S    
O2    V1    S    
C6    C20   S    
C36   O22   S    
O25   C61   S    
O14   V4    S    
O12   C56   A    
C38   C48   A    
C1    C24   S    
C8    C10   A    
O20   V4    S    
C2    C23   S    
C9    H1    S    
C58   H26   S    
C17   H3    S    
C61   H34   S    
C62   H36   S    
O19   V4    S    
O3    V1    S    
O16   V4    S    
C54   O17   A    
C9    C11   A    
C20   H6    S    
C21   C23   A    
O14   C54   A    
O28   C64   S    
O3    C1    A    
C6    C8    A    
C11   C13   A    
C64   H42   S    
C35   O21   S    
C12   C14   A    
C29   C39   A    
C25   H11   S    
C30   C40   A    
C61   H35   S    
C35   C37   A    
C50   C55   S    
O7    V1    S    
C62   H38   S    
C1    O8    A    
C15   C17   S    
O11   V4    S    
O8    V2    S    
C60   H30   S    
C16   C18   S    
O11   C55   A    
C63   H41   S    
C4    C7    S    
C14   C16   A    
C5    C7    A    
C36   C38   A    
C10   H2    S    
C57   H21   S    
C21   H9    S    
C26   C28   A    
C63   H40   S    
O20   V3    S    
C10   C12   A    
O9    V2    S    
O13   C53   A    
O10   V1    S    
C50   C52   A    
O15   V3    S    
C61   H33   S    
C11   O25   S    
C21   C31   A    
C59   H29   S    
C52   H18   S    
O27   C63   S    
C22   C32   A    
C51   H17   S    
