data_mof_unit_43078.cif
_audit_creation_date              2012-10-26T18:50:25-0400
_audit_creation_method            fapswitch 2.2
_symmetry_space_group_name_H-M    P1
_symmetry_Int_Tables_number       1
_space_group_crystal_system       triclinic
_cell_length_a                    9.622785
_cell_length_b                    10.876662
_cell_length_c                    15.508716
_cell_angle_alpha                 86.939241
_cell_angle_beta                  73.975494
_cell_angle_gamma                 90.711762
_cell_volume                      1557.27972605

loop_
_atom_site_label
_atom_site_type_symbol
_atom_type_description
_atom_site_fract_x
_atom_site_fract_y
_atom_site_fract_z
_atom_type_partial_charge
C1    C     C_R   0.002081 0.263351 0.494220 0.549289
C2    C     C_R   0.247097 0.594170 0.048145 0.047698
C3    C     C_R   0.334787 0.530371 0.094867 0.042678
C4    C     C_R   0.918722 0.506103 0.672223 0.539831
C5    C     C_R   0.102588 0.618050 0.091947 -0.120797
C6    C     C_R   0.045287 0.583704 0.182783 -0.128434
C7    C     C_R   0.271280 0.490640 0.185161 -0.118389
C8    C     C_R   0.270212 0.127947 0.421036 -0.069449
C9    C     C_R   0.400497 0.073297 0.420086 -0.123773
C10   C     C_R   0.399170 0.958309 0.463490 -0.139438
C11   C     C_R   0.268712 0.892634 0.499070 -0.115470
C12   C     C_R   0.682493 0.523833 0.911454 -0.001245
C13   C     C_R   0.135746 0.941685 0.492547 -0.005455
C14   C     C_R   0.136497 0.067590 0.466234 0.022271
C15   C     C_R   0.004486 0.129769 0.488782 -0.031749
C16   C     C_R   0.999291 0.737447 0.505824 0.545360
C17   C     C_R   0.873457 0.063277 0.520621 -0.140737
C18   C     C_R   0.870277 0.935332 0.530794 0.074901
C19   C     C_R   0.002087 0.872375 0.512855 0.009416
C20   C     C_R   0.699346 0.665025 0.380616 -0.098402
C21   C     C_R   0.656208 0.742398 0.319298 -0.157209
C22   C     C_R   0.512567 0.742247 0.318144 0.075290
C23   C     C_R   0.779942 0.485991 0.960439 0.076431
C24   C     C_R   0.412214 0.665297 0.380221 -0.062799
C25   C     C_R   0.452050 0.583403 0.442784 0.090594
C26   C     C_R   0.601345 0.583053 0.442690 0.137075
C27   C     C_R   0.552026 0.414061 0.548554 0.011617
C28   C     C_R   0.082217 0.503054 0.328064 0.527713
C29   C     C_R   0.404068 0.412066 0.547884 0.223153
C30   C     C_R   0.876911 0.515448 0.771642 -0.019350
C31   C     C_R   0.130145 0.521239 0.229924 0.005132
C32   C     C_R   0.928232 0.484460 0.916219 -0.120676
C33   C     C_R   0.978149 0.508475 0.823020 -0.039513
C34   C     C_R   0.537880 0.549372 0.957996 0.020998
C35   C     C_R   0.731315 0.529908 0.816967 -0.162172
C36   C     C_R   0.133762 0.538005 0.783447 0.046287
C37   C     C_R   0.238554 0.454245 0.793551 -0.112182
C38   C     C_R   0.384824 0.481953 0.752781 -0.128636
C39   C     C_R   0.427412 0.595027 0.704459 -0.118858
C40   C     C_R   0.324253 0.681295 0.698313 -0.114956
C41   C     C_R   0.177725 0.653042 0.737364 -0.058961
C42   C     C_R   0.483325 0.512009 0.050494 0.017137
C43   C     C_R   0.580692 0.462482 0.095945 -0.122650
C44   C     C_R   0.727716 0.453148 0.052563 0.087696
C45   C     C_R   0.449694 0.618276 0.915709 -0.125327
C46   C     C_R   0.306169 0.638563 0.959491 -0.127690
Cu1   Cu    Cu3+1 0.140660 0.499990 0.500010 0.931495
Cu2   Cu    Cu3+1 0.859340 0.500010 0.499990 0.915799
H1    H     H_    0.035564 0.667562 0.056770 0.112330
H2    H     H_    0.329693 0.437798 0.223573 0.110699
H3    H     H_    0.304606 0.672947 0.375749 0.202331
H4    H     H_    0.936775 0.610079 0.216774 0.110383
H5    H     H_    0.241901 0.691558 0.924250 0.115259
H6    H     H_    0.006079 0.470174 0.954442 0.154667
H7    H     H_    0.655894 0.542109 0.777776 0.118804
H8    H     H_    0.548538 0.435234 0.166531 0.104989
H9    H     H_    0.492817 0.662895 0.849763 0.115805
H10   H     H_    0.809782 0.455896 0.158841 0.234187
H11   H     H_    0.788161 0.314431 0.124718 0.230429
H12   H     H_    0.772459 0.111296 0.539367 0.127443
H13   H     H_    0.728178 0.830765 0.627876 0.223493
H14   H     H_    0.647396 0.929886 0.572285 0.205842
H15   H     H_    0.553692 0.870225 0.211571 0.230057
H16   H     H_    0.393103 0.880813 0.287919 0.237564
H17   H     H_    0.230505 0.346574 0.646599 0.260812
H18   H     H_    0.366744 0.248692 0.624381 0.180039
H19   H     H_    0.206820 0.366114 0.830112 0.105257
H20   H     H_    0.464914 0.415220 0.758101 0.108508
H21   H     H_    0.540511 0.616639 0.672369 0.138253
H22   H     H_    0.358151 0.769841 0.663144 0.096023
H23   H     H_    0.275538 0.217537 0.386337 0.139427
H24   H     H_    0.098336 0.720202 0.731129 0.097334
H25   H     H_    0.502134 0.121828 0.388218 0.114156
H26   H     H_    0.499679 0.918169 0.467429 0.134221
H27   H     H_    0.275046 0.806695 0.535081 0.149169
H28   H     H_    0.590144 0.344707 0.588543 0.107120
H29   H     H_    0.811898 0.670374 0.374396 0.187362
H30   H     H_    0.736087 0.801715 0.271825 0.110918
N1    N     N_R   0.648320 0.501210 0.499140 -0.259528
N2    N     N_R   0.352470 0.501290 0.499110 -0.223549
N3    N     N_3   0.822578 0.404958 0.102096 -0.648875
N4    N     N_3   0.733336 0.869682 0.563894 -0.606607
N5    N     N_3   0.466301 0.818181 0.253173 -0.627046
N6    N     N_3   0.310356 0.311850 0.594611 -0.570493
O1    O     O_R   0.118810 0.319640 0.500010 -0.467846
O2    O     O_R   0.881240 0.319660 0.500000 -0.508719
O3    O     O_R   0.055570 0.499980 0.629840 -0.489162
O4    O     O_R   0.818000 0.500010 0.629830 -0.512384
O5    O     O_R   0.118760 0.680340 0.500000 -0.550170
O6    O     O_R   0.881190 0.680360 0.499990 -0.480984
O7    O     O_R   0.182000 0.499990 0.370170 -0.530436
O8    O     O_R   0.944430 0.500020 0.370160 -0.520624

loop_
_geom_bond_atom_site_label_1
_geom_bond_atom_site_label_2
_ccdc_geom_bond_type
C3    C42   A    
C16   O6    A    
C27   C29   A    
C25   N2    A    
C11   C13   A    
C34   C42   A    
C4    O3    A    
C45   C46   A    
C2    C46   A    
C12   C23   A    
C45   H9    S    
C40   H22   S    
C20   H29   S    
Cu1   O1    S    
Cu2   N1    S    
C36   C37   A    
C27   N1    A    
H13   N4    S    
C38   C39   A    
C33   C36   S    
C18   C19   A    
C8    C9    A    
C21   H30   S    
Cu2   O4    S    
C1    C15   S    
C9    C10   A    
C24   H3    S    
C6    C31   A    
H14   N4    S    
C16   O5    A    
Cu2   O6    S    
C21   C22   A    
Cu1   O5    S    
C5    H1    S    
C36   C41   A    
C9    H25   S    
Cu1   N2    S    
C32   H6    S    
C1    O1    A    
C7    C31   A    
C13   C19   A    
C35   H7    S    
C24   C25   A    
C29   N6    S    
C44   N3    S    
H10   N3    S    
C39   C40   A    
H17   N6    S    
C25   C26   A    
C23   C44   A    
H15   N5    S    
Cu1   O3    S    
C43   C44   A    
H16   N5    S    
C37   C38   A    
Cu1   Cu2   S    
C17   C18   A    
C39   H21   S    
C28   O8    A    
C34   C45   A    
C12   C35   A    
C41   H24   S    
C30   C35   A    
C40   C41   A    
C38   H20   S    
Cu2   O2    S    
C2    C5    A    
C42   C43   A    
C12   C34   A    
C27   H28   S    
C1    O2    A    
C15   C17   A    
C8    H23   S    
C8    C14   A    
C30   C33   A    
Cu1   O7    S    
C28   C31   S    
H11   N3    S    
C7    H2    S    
C4    O4    A    
C3    C7    A    
C26   N1    A    
C23   C32   A    
C2    C3    A    
C11   H27   S    
C32   C33   A    
C22   N5    S    
C10   H26   S    
C5    C6    A    
C29   N2    A    
C20   C26   A    
C16   C19   S    
C37   H19   S    
C46   H5    S    
C18   N4    S    
C28   O7    A    
C22   C24   A    
C10   C11   A    
C17   H12   S    
H18   N6    S    
C43   H8    S    
C20   C21   A    
Cu2   O8    S    
C14   C15   A    
C6    H4    S    
C13   C14   A    
C4    C30   S    
