data_mof_unit_54964.cif
_audit_creation_date              2012-12-10T18:57:09-0500
_audit_creation_method            fapswitch 2.2
_symmetry_space_group_name_H-M    P1
_symmetry_Int_Tables_number       1
_space_group_crystal_system       triclinic
_cell_length_a                    8.743002
_cell_length_b                    10.861234
_cell_length_c                    9.552551
_cell_angle_alpha                 90.47926
_cell_angle_beta                  97.318101
_cell_angle_gamma                 89.766175
_cell_volume                      899.683532225

loop_
_atom_site_label
_atom_site_type_symbol
_atom_type_description
_atom_site_fract_x
_atom_site_fract_y
_atom_site_fract_z
_atom_type_partial_charge
C1    C     C_R   0.499450 0.262567 0.499244 0.793590
C2    C     C_R   0.503637 0.934869 0.374612 -0.209277
C3    C     C_R   0.488228 0.871611 0.500042 -0.125102
C4    C     C_R   0.455128 0.939307 0.618875 0.031051
C5    C     C_3   0.535368 0.941357 0.768775 0.303238
C6    C     C_3   0.543495 0.080955 0.762433 -0.507993
C7    C     C_R   0.632103 0.524656 0.088994 0.196710
C8    C     C_R   0.374184 0.463023 0.059205 -0.070856
C9    C     C_R   0.374141 0.463135 0.910622 -0.091703
C10   C     C_R   0.632055 0.524301 0.941708 0.254766
C11   C     C_3   0.725862 0.638601 0.945804 0.238373
C12   C     C_R   0.204092 0.496766 0.464150 0.885032
C13   C     C_3   0.726004 0.639710 0.105466 -0.561736
C14   C     C_R   0.498248 0.737888 0.500631 0.787596
C15   C     C_R   0.795769 0.495178 0.535683 0.894931
C16   C     C_2   0.038618 0.491983 0.444060 -0.401243
C17   C     C_2   0.960990 0.486223 0.555151 -0.347968
C18   C     C_R   0.461922 0.066892 0.616665 0.018331
C19   C     C_R   0.488798 0.129807 0.496151 -0.060401
C20   C     C_R   0.502181 0.062990 0.372277 -0.214323
Cu1   Cu    Cu3+1 0.499990 0.499980 0.640670 0.952683
Cu2   Cu    Cu3+1 0.500010 0.500020 0.359330 0.940911
H1    H     H_    0.980245 0.496454 0.336899 0.175904
H2    H     H_    0.271411 0.434537 0.843453 0.148643
H3    H     H_    0.661032 0.715097 0.889374 0.138101
H4    H     H_    0.841842 0.624355 0.165189 0.201918
H5    H     H_    0.661378 0.718977 0.143469 0.190621
H6    H     H_    0.019366 0.479730 0.662336 0.192865
H7    H     H_    0.520749 0.109298 0.276069 0.161724
H8    H     H_    0.524093 0.885756 0.279671 0.164403
H9    H     H_    0.651146 0.899845 0.776111 0.078427
H10   H     H_    0.474569 0.134061 0.831678 0.204289
H11   H     H_    0.663264 0.115397 0.763263 0.168631
H12   H     H_    0.271462 0.434176 0.101723 0.152575
N1    N     N_R   0.500980 0.500930 0.148050 -0.183292
N2    N     N_R   0.500990 0.500890 0.852140 -0.217421
O1    O     O_R   0.500000 0.319640 0.618810 -0.581098
O2    O     O_R   0.500020 0.319680 0.381230 -0.590822
O3    O     O_R   0.274830 0.499980 0.591380 -0.592797
O4    O     O_R   0.274850 0.500020 0.353800 -0.592360
O5    O     O_R   0.499980 0.680320 0.618770 -0.584142
O6    O     O_R   0.500000 0.680360 0.381190 -0.578738
O7    O     O_R   0.725150 0.499980 0.646200 -0.556540
O8    O     O_R   0.725170 0.500020 0.408620 -0.582578
O9    O     O_3   0.872454 0.613394 0.903810 -0.579547
C21   C     C_3   0.955926 0.724019 0.895443 0.069670
H13   H     H_    0.080193 0.701048 0.919077 0.163660
H14   H     H_    0.933242 0.791932 0.978733 0.099556
C22   C     C_3   0.920757 0.783555 0.748151 -0.389275
H15   H     H_    0.809532 0.748305 0.693888 0.231603
H16   H     H_    0.907860 0.884589 0.762153 0.164915
C23   C     C_3   0.045383 0.762912 0.650994 -0.819301
H17   H     H_    0.114585 0.847460 0.644545 0.224554
H18   H     H_    0.990489 0.742745 0.541996 0.242427
H19   H     H_    0.124494 0.686564 0.687582 0.274012
O10   O     O_3   0.451182 0.891522 0.873613 -0.608667
C24   C     C_3   0.303397 0.943928 0.880618 0.081193
H20   H     H_    0.220939 0.867431 0.877369 0.163097
H21   H     H_    0.260913 0.005581 0.791771 0.141532
C25   C     C_3   0.300186 0.010237 0.021999 -0.360354
H22   H     H_    0.312735 0.941121 0.107612 0.224025
H23   H     H_    0.397504 0.075938 0.041139 0.217860
C26   C     C_3   0.149132 0.080207 0.026369 -0.930971
H24   H     H_    0.136079 0.152924 0.944551 0.252822
H25   H     H_    0.149383 0.124632 0.131549 0.264595
H26   H     H_    0.049672 0.016202 0.008090 0.247672

loop_
_geom_bond_atom_site_label_1
_geom_bond_atom_site_label_2
_ccdc_geom_bond_type
C12   O4    A    
C7    C10   A    
C6    H10   S    
C26   H25   S    
C9    H2    S    
Cu1   O7    S    
C9    N2    A    
C5    O10   S    
C13   H5    S    
C19   C20   A    
Cu1   O3    S    
C6    H11   S    
C1    O1    A    
C14   O6    A    
C22   C23   S    
Cu2   O4    S    
C17   H6    S    
C12   O3    A    
C2    C3    A    
C26   H26   S    
C4    C18   A    
Cu1   N2    S    
C8    H12   S    
O9    C21   S    
O10   C24   S    
Cu2   N1    S    
C11   C13   S    
C21   C22   S    
C24   H20   S    
Cu2   O6    S    
C3    C14   S    
C1    O2    A    
C14   O5    A    
Cu1   O5    S    
C4    C5    S    
C23   H19   S    
C23   H18   S    
C15   O8    A    
C18   C19   A    
C16   H1    S    
C20   H7    S    
C25   C26   S    
C5    C6    S    
C6    C18   S    
C21   H14   S    
C13   H4    S    
C24   H21   S    
C11   O9    S    
C10   C11   S    
C11   H3    S    
C15   O7    A    
C26   H24   S    
Cu2   O2    S    
C12   C16   S    
C7    C13   S    
Cu1   O1    S    
C23   H17   S    
C25   H23   S    
C22   H15   S    
C15   C17   S    
C2    C20   A    
C21   H13   S    
C25   H22   S    
C24   C25   S    
C10   N2    A    
C5    H9    S    
Cu1   Cu2   S    
C1    C19   S    
C7    N1    A    
Cu2   O8    S    
C2    H8    S    
C3    C4    A    
C16   C17   D    
C8    C9    A    
C22   H16   S    
C8    N1    A    
