data_mof_unit_28916.cif
_audit_creation_date              2012-12-11T14:21:09-0500
_audit_creation_method            fapswitch 2.2
_symmetry_space_group_name_H-M    P1
_symmetry_Int_Tables_number       1
_space_group_crystal_system       triclinic
_cell_length_a                    11.584727
_cell_length_b                    11.549947
_cell_length_c                    19.511059
_cell_angle_alpha                 90.519026
_cell_angle_beta                  90.022007
_cell_angle_gamma                 59.973144
_cell_volume                      2260.14795934

loop_
_atom_site_label
_atom_site_type_symbol
_atom_type_description
_atom_site_fract_x
_atom_site_fract_y
_atom_site_fract_z
_atom_type_partial_charge
C1    C     C_R   0.640389 0.117469 0.599144 0.553016
C2    C     C_1   0.641107 0.703837 0.667897 0.006970
C3    C     C_1   0.127043 0.198407 0.859419 0.006257
C4    C     C_1   0.171420 0.170274 0.727679 -0.029653
C5    C     C_1   0.150379 0.181980 0.798985 -0.029882
C6    C     C_1   0.195056 0.161097 0.667270 0.004378
C7    C     C_1   0.678628 0.190811 0.860926 0.008670
C8    C     C_1   0.658370 0.167326 0.729032 -0.029454
C9    C     C_1   0.665595 0.180627 0.800418 -0.029702
C10   C     C_1   0.652793 0.149943 0.668551 0.006829
C11   C     C_R   0.663280 0.671361 0.192990 0.013160
C12   C     C_R   0.612335 0.746062 0.598530 0.547497
C13   C     C_R   0.536502 0.726161 0.223583 -0.044846
C14   C     C_R   0.531874 0.701254 0.293012 0.015577
C15   C     C_R   0.766195 0.635546 0.304666 -0.172981
C16   C     C_R   0.777775 0.621587 0.234279 -0.148896
C17   C     C_R   0.418573 0.781077 0.184602 -0.132568
C18   C     C_R   0.303487 0.786369 0.210774 0.278906
C19   C     C_R   0.304518 0.742674 0.277308 0.283236
C20   C     C_R   0.422461 0.689200 0.316720 0.213695
C21   C     C_R   0.642980 0.677526 0.334712 0.029758
C22   C     C_R   0.169932 0.180240 0.184704 0.011356
C23   C     C_R   0.240830 0.145415 0.598063 0.557631
C24   C     C_R   0.253113 0.229681 0.206345 0.070936
C25   C     C_R   0.282452 0.225330 0.277112 -0.018481
C26   C     C_R   0.191947 0.076583 0.294806 -0.148780
C27   C     C_R   0.141097 0.103469 0.229097 -0.160897
C28   C     C_R   0.298435 0.293083 0.160201 0.272650
C29   C     C_R   0.333291 0.384647 0.186001 -0.053845
C30   C     C_R   0.338250 0.400332 0.256084 -0.115693
C31   C     C_R   0.325117 0.314298 0.300779 -0.140483
C32   C     C_R   0.260148 0.138439 0.320795 -0.005768
C33   C     C_R   0.669486 0.190534 0.194331 0.074762
C34   C     C_R   0.647466 0.109074 0.401851 0.557660
C35   C     C_R   0.716034 0.058238 0.215197 -0.030106
C36   C     C_R   0.751125 0.027837 0.284337 -0.023595
C37   C     C_R   0.629165 0.265308 0.312751 -0.173694
C38   C     C_R   0.635764 0.292164 0.243807 0.175113
C39   C     C_R   0.749333 0.954144 0.167074 0.203706
C40   C     C_R   0.850338 0.825428 0.182883 -0.068164
C41   C     C_R   0.910256 0.796885 0.247017 0.274673
C42   C     C_R   0.859166 0.897283 0.299407 0.277135
C43   C     C_R   0.682059 0.134294 0.333517 0.002041
C44   C     C_R   0.081973 0.230941 0.928722 0.560715
C45   C     C_R   0.616772 0.735458 0.403310 0.558821
C46   C     C_R   0.683869 0.604416 0.929603 0.539805
C47   C     C_R   0.708388 0.206458 0.930262 0.556969
C48   C     C_R   0.087369 0.233052 0.123555 0.595159
C49   C     C_R   0.682019 0.614618 0.124627 0.553662
C50   C     C_R   0.707138 0.211843 0.126539 0.647008
C51   C     C_R   0.300531 0.116775 0.393493 0.545258
C52   C     C_1   0.670328 0.646648 0.860237 0.008982
C53   C     C_1   0.654682 0.683669 0.728399 -0.030035
C54   C     C_1   0.663374 0.666826 0.799731 -0.029506
Cr1   Cr    Cr6+3 0.404720 0.198220 0.499960 1.019264
Cr2   Cr    Cr6+3 0.698290 0.897110 0.500380 1.032266
Cr3   Cr    Cr6+3 0.396970 0.904720 0.499610 1.060013
Cr4   Cr    Cr6+3 0.926180 0.151990 0.028120 1.056500
Cr5   Cr    Cr6+3 0.921330 0.451820 0.027470 1.047151
Cr6   Cr    Cr6+3 0.626260 0.446870 0.028710 1.052043
H1    H     H_    0.586634 0.345948 0.350194 0.151975
H2    H     H_    0.072946 0.069356 0.214243 0.197616
O1    O     O_R   0.267740 0.231960 0.575440 -0.499285
O2    O     O_R   0.685970 0.784660 0.430010 -0.526277
O3    O     O_R   0.502530 0.767000 0.423990 -0.457429
O4    O     O_R   0.288330 0.026350 0.429250 -0.495163
O5    O     O_3   0.499990 0.000020 0.499980 -0.284422
O6    O     O_R   0.821500 0.119340 0.952830 -0.499466
O7    O     O_R   0.037130 0.162530 0.957360 -0.499564
O8    O     O_R   0.056440 0.344740 0.951340 -0.492095
O9    O     O_R   0.797900 0.560360 0.957470 -0.500443
O10   O     O_R   0.596130 0.579390 0.952730 -0.510898
O11   O     O_R   0.639060 0.321160 0.958670 -0.501877
O12   O     O_R   0.527280 0.186640 0.570530 -0.491141
O13   O     O_R   0.821240 0.124200 0.104370 -0.487848
O14   O     O_R   0.036890 0.167040 0.097840 -0.517486
O15   O     O_R   0.056180 0.349610 0.102880 -0.468075
O16   O     O_R   0.797660 0.564870 0.097950 -0.526043
O17   O     O_R   0.595880 0.584250 0.104270 -0.478741
O18   O     O_R   0.638830 0.325670 0.099150 -0.463916
O19   O     O_3   0.824590 0.350230 0.028100 -0.270372
O20   O     O_R   0.728090 0.003450 0.576380 -0.498830
O21   O     O_R   0.682970 0.789190 0.570490 -0.495352
O22   O     O_R   0.499290 0.771880 0.575530 -0.497820
O23   O     O_R   0.285330 0.030870 0.569730 -0.487014
O24   O     O_R   0.270980 0.227080 0.423890 -0.523500
O25   O     O_R   0.530280 0.182120 0.430050 -0.539063
O26   O     O_R   0.731330 0.998570 0.424830 -0.464342
H3    H     H_    0.852945 0.610926 0.335641 0.133591
H4    H     H_    0.358541 0.442338 0.151999 0.144821
H5    H     H_    0.363586 0.472330 0.275647 0.166768
H6    H     H_    0.344719 0.325446 0.353262 0.175406
O27   O     O_3   0.686823 0.982184 0.104052 -0.684390
H7    H     H_    0.721213 0.898016 0.077085 0.321581
O28   O     O_3   0.612483 0.415968 0.224249 -0.689501
H8    H     H_    0.631854 0.455996 0.264359 0.336471
H9    H     H_    0.886085 0.747003 0.144221 0.135957
O29   O     O_3   0.019028 0.670214 0.254977 -0.670816
H10   H     H_    0.041824 0.651199 0.303796 0.335956
O30   O     O_3   0.931991 0.878949 0.358087 -0.649373
H11   H     H_    0.946548 0.795442 0.379653 0.310839
H12   H     H_    0.418572 0.812163 0.132364 0.127032
H13   H     H_    0.876962 0.569682 0.212218 0.186760
O31   O     O_3   0.190284 0.828812 0.171619 -0.645958
H14   H     H_    0.205585 0.855777 0.125927 0.310071
O32   O     O_3   0.188016 0.756470 0.303105 -0.639963
H15   H     H_    0.189314 0.764129 0.353681 0.328771
O33   O     O_3   0.440157 0.610713 0.373441 -0.705423
H16   H     H_    0.371620 0.583564 0.374413 0.308518
H17   H     H_    0.167739 0.015960 0.327157 0.178037
O34   O     O_3   0.309670 0.262568 0.090945 -0.673940
H18   H     H_    0.344789 0.313870 0.066851 0.323457

loop_
_geom_bond_atom_site_label_1
_geom_bond_atom_site_label_2
_ccdc_geom_bond_type
C25   C31   A    
C22   C48   S    
Cr6   O17   S    
C26   C32   A    
O27   H7    S    
C41   C42   A    
C48   O14   A    
C36   C42   A    
O28   H8    S    
Cr3   O4    S    
C2    C12   S    
Cr5   O15   S    
Cr5   O19   S    
Cr4   O14   S    
C53   C54   S    
C49   O16   A    
C26   C27   A    
C29   C30   A    
C1    O12   A    
C14   C21   A    
C28   C29   A    
C30   C31   A    
Cr2   O26   S    
O32   H15   S    
Cr6   O10   S    
C15   C16   A    
C46   C52   S    
Cr6   O11   S    
O33   H16   S    
C12   O22   A    
C18   C19   A    
C11   C16   A    
C39   O27   S    
Cr1   O12   S    
C51   O24   A    
C19   C20   A    
C8    C9    S    
Cr1   O1    S    
C38   O28   S    
Cr2   O2    S    
C44   O8    A    
C26   H17   S    
C46   O10   A    
C25   C32   A    
C23   O1    A    
C13   C14   A    
Cr3   O5    S    
Cr5   O16   S    
C29   H4    S    
C52   C54   T    
Cr4   O13   S    
C21   C45   S    
C28   O34   S    
C3    C44   S    
C34   C43   S    
C14   C20   A    
C24   C25   A    
C47   O11   A    
C4    C6    T    
Cr4   O19   S    
C39   C40   A    
C30   H5    S    
C18   O31   S    
C1    O20   A    
C49   O17   A    
C12   O21   A    
C35   C36   A    
C7    C47   S    
C48   O15   A    
C37   C43   A    
C35   C39   A    
C17   H12   S    
C32   C51   S    
C37   C38   A    
C11   C49   S    
C27   H2    S    
C42   O30   S    
C15   H3    S    
Cr6   O19   S    
C16   H13   S    
Cr1   O5    S    
C17   C18   A    
Cr3   O22   S    
C44   O7    A    
C34   O26   A    
C46   O9    A    
Cr4   O6    S    
C40   C41   A    
C31   H6    S    
C22   C27   A    
C45   O3    A    
C22   C24   A    
C47   O6    A    
C40   H9    S    
Cr2   O21   S    
C7    C9    T    
Cr6   O18   S    
O34   H18   S    
C1    C10   S    
C24   C28   A    
Cr3   O3    S    
C4    C5    S    
C3    C5    T    
C2    C53   T    
C50   O18   A    
O31   H14   S    
C37   H1    S    
Cr4   O7    S    
Cr2   O20   S    
Cr2   O5    S    
C45   O2    A    
C33   C38   A    
C13   C17   A    
Cr1   O24   S    
C33   C50   S    
C50   O13   A    
C11   C13   A    
C6    C23   S    
O30   H11   S    
C33   C35   A    
Cr3   O23   S    
C34   O25   A    
Cr1   O25   S    
Cr5   O8    S    
C19   O32   S    
C15   C21   A    
C8    C10   T    
O29   H10   S    
C23   O23   A    
C41   O29   S    
C36   C43   A    
C51   O4    A    
Cr5   O9    S    
C20   O33   S    
