data_mof_unit_55870.cif
_audit_creation_date              2012-12-11T16:32:26-0500
_audit_creation_method            fapswitch 2.2
_symmetry_space_group_name_H-M    P1
_symmetry_Int_Tables_number       1
_space_group_crystal_system       triclinic
_cell_length_a                    6.934545
_cell_length_b                    14.457861
_cell_length_c                    15.85808
_cell_angle_alpha                 90.011074
_cell_angle_beta                  89.821858
_cell_angle_gamma                 90.026901
_cell_volume                      1589.90240113

loop_
_atom_site_label
_atom_site_type_symbol
_atom_type_description
_atom_site_fract_x
_atom_site_fract_y
_atom_site_fract_z
_atom_type_partial_charge
O1    O     O_R   0.361630 0.167340 0.164570 -0.535430
O2    O     O_R   0.638370 0.832660 0.835430 -0.535423
O3    O     O_R   0.690860 0.157560 0.338690 -0.541702
O4    O     O_R   0.309140 0.842440 0.661310 -0.541696
O5    O     O_R   0.861260 0.336420 0.339380 -0.537240
O6    O     O_R   0.138740 0.663580 0.660620 -0.537253
C1    C     C_R   0.521783 0.134665 0.368028 0.661272
C2    C     C_R   0.478218 0.865333 0.631971 0.661260
O7    O     O_R   0.691330 0.156310 0.165190 -0.539810
O8    O     O_R   0.308670 0.843690 0.834810 -0.539807
O9    O     O_R   0.861730 0.335160 0.164640 -0.534943
O10   O     O_R   0.138270 0.664840 0.835360 -0.534939
C3    C     C_R   0.522636 0.134334 0.136251 0.701088
C4    C     C_R   0.477363 0.865664 0.863750 0.701104
O11   O     O_R   0.361150 0.168600 0.339320 -0.536542
O12   O     O_R   0.638850 0.831400 0.660680 -0.536553
O13   O     O_3   0.527950 0.310560 0.252000 -0.365873
O14   O     O_3   0.472050 0.689440 0.748000 -0.365907
V1    V     V_3+5 0.802770 0.240990 0.251980 1.407341
V2    V     V_3+5 0.197230 0.759010 0.748020 1.407321
O15   O     O_R   0.191450 0.346190 0.165260 -0.539837
O16   O     O_R   0.808550 0.653810 0.834740 -0.539847
C5    C     C_R   0.022832 0.367836 0.136510 0.705188
C6    C     C_R   0.977166 0.632159 0.863486 0.705214
O17   O     O_R   0.190980 0.347440 0.338770 -0.545922
O18   O     O_R   0.809020 0.652560 0.661230 -0.545959
C7    C     C_R   0.021880 0.369222 0.367803 0.683488
C8    C     C_R   0.978116 0.630796 0.632184 0.683529
V3    V     V_3+5 0.302780 0.262760 0.251980 1.401907
V4    V     V_3+5 0.697220 0.737240 0.748020 1.401846
O19   O     O_3   0.027730 0.193200 0.251960 -0.366856
O20   O     O_3   0.972270 0.806800 0.748040 -0.366849
C9    C     C_3   0.821652 0.468246 0.482526 -0.146995
C10   C     C_3   0.178321 0.531794 0.517442 -0.147480
C11   C     C_3   0.923766 0.459747 0.569262 -0.186325
C12   C     C_3   0.076211 0.540290 0.430706 -0.186763
H1    H     H_    0.861650 0.426721 0.626364 0.107443
H2    H     H_    0.138327 0.573316 0.373603 0.107396
H3    H     H_    0.674622 0.442487 0.467929 0.120399
H4    H     H_    0.325366 0.557550 0.532037 0.120523
C13   C     C_3   0.989476 0.561446 0.561999 -0.083263
C14   C     C_3   0.010507 0.438592 0.437972 -0.083315
C15   C     C_3   0.888662 0.569909 0.476208 0.199488
C16   C     C_3   0.111318 0.430136 0.523760 0.199361
H5    H     H_    0.819467 0.321676 0.759290 0.110410
H6    H     H_    0.180103 0.678353 0.240754 0.110485
C17   C     C_R   0.079519 0.689190 0.031852 -0.149134
C18   C     C_R   0.920394 0.310812 0.968151 -0.149120
C19   C     C_R   0.129864 0.718540 0.112536 -0.104920
C20   C     C_R   0.869916 0.281472 0.887483 -0.104914
C21   C     C_R   0.141802 0.655106 0.178108 -0.144216
C22   C     C_R   0.857891 0.344913 0.821919 -0.144412
C23   C     C_R   0.103484 0.561844 0.163445 -0.146485
C24   C     C_R   0.896305 0.438165 0.836570 -0.146367
C25   C     C_R   0.053404 0.529892 0.081959 0.072134
C26   C     C_R   0.946517 0.470108 0.918043 0.072128
C27   C     C_R   0.040833 0.594764 0.014937 0.056368
C28   C     C_R   0.959123 0.405234 0.985062 0.056365
C29   C     C_R   0.012757 0.435287 0.066819 -0.187120
C30   C     C_R   0.987227 0.564709 0.933177 -0.187134
H7    H     H_    0.069796 0.741524 0.983302 0.114220
H8    H     H_    0.930166 0.258474 0.016699 0.114210
H9    H     H_    0.158711 0.790998 0.124300 0.131885
H10   H     H_    0.841018 0.209020 0.875728 0.131905
H11   H     H_    0.112577 0.515397 0.216742 0.099735
H12   H     H_    0.887161 0.484617 0.783278 0.099820
C31   C     C_3   0.401178 0.970218 0.432627 -0.137993
C32   C     C_3   0.598828 0.029776 0.567370 -0.137986
C33   C     C_3   0.575216 0.919738 0.473092 -0.147152
C34   C     C_3   0.424791 0.080256 0.526906 -0.147172
H13   H     H_    0.637004 0.853536 0.450340 0.101874
H14   H     H_    0.363012 0.146457 0.549665 0.101935
H15   H     H_    0.319613 0.945411 0.376891 0.100902
H16   H     H_    0.680394 0.054583 0.623106 0.100911
C35   C     C_3   0.488957 0.937181 0.561502 -0.008516
C36   C     C_3   0.511047 0.062814 0.438495 -0.008537
C37   C     C_3   0.314709 0.987025 0.521671 -0.112671
C38   C     C_3   0.685297 0.012970 0.478327 -0.112677
H17   H     H_    0.161289 0.976547 0.539458 0.104316
H18   H     H_    0.838717 0.023447 0.460539 0.104311
H19   H     H_    0.682320 0.824746 0.242022 0.115681
H20   H     H_    0.317596 0.175239 0.757992 0.115780
C39   C     C_R   0.418804 0.188637 0.966769 -0.148713
C40   C     C_R   0.581129 0.811352 0.033238 -0.148710
C41   C     C_R   0.368167 0.217009 0.885830 -0.107687
C42   C     C_R   0.631730 0.782975 0.114183 -0.107634
C43   C     C_R   0.356457 0.152845 0.820803 -0.143285
C44   C     C_R   0.643469 0.847140 0.179207 -0.143229
C45   C     C_R   0.395524 0.059837 0.836162 -0.145378
C46   C     C_R   0.604448 0.940155 0.163843 -0.145401
C47   C     C_R   0.446111 0.028774 0.917826 0.070855
C48   C     C_R   0.553877 0.971220 0.082177 0.070856
C49   C     C_R   0.458299 0.094521 0.984494 0.058187
C50   C     C_R   0.541679 0.905472 0.015510 0.058186
C51   C     C_R   0.487601 0.934257 0.933355 -0.187915
C52   C     C_R   0.512395 0.065739 0.066646 -0.187913
H21   H     H_    0.428122 0.241483 0.014896 0.114198
H22   H     H_    0.571800 0.758505 0.985113 0.114187
H23   H     H_    0.338741 0.289274 0.873434 0.134599
H24   H     H_    0.661117 0.710705 0.126583 0.134563
H25   H     H_    0.386636 0.012891 0.783182 0.101451
H26   H     H_    0.613356 0.987100 0.216823 0.101444
C53   C     C_3   0.760921 0.650939 0.449987 -0.373890
C54   C     C_3   0.675364 0.636174 0.362474 -0.772033
H27   H     H_    0.791923 0.629786 0.314594 0.229350
H28   H     H_    0.584904 0.572739 0.361501 0.228095
H29   H     H_    0.583094 0.696153 0.345801 0.208425
H30   H     H_    0.641970 0.658905 0.496503 0.175363
H31   H     H_    0.848747 0.715179 0.450052 0.162632
C55   C     C_3   0.239244 0.349162 0.549952 -0.373641
C56   C     C_3   0.323535 0.363599 0.637741 -0.772530
H32   H     H_    0.412311 0.427555 0.639412 0.228426
H33   H     H_    0.206329 0.368853 0.685412 0.229228
H34   H     H_    0.417166 0.304022 0.654127 0.208522
H35   H     H_    0.151879 0.284793 0.549387 0.162584
H36   H     H_    0.358810 0.341635 0.503695 0.175319

loop_
_geom_bond_atom_site_label_1
_geom_bond_atom_site_label_2
_ccdc_geom_bond_type
C19   H9    S    
C25   C29   A    
C20   H10   S    
C12   C14   S    
C56   H32   S    
C31   C37   S    
O4    C2    A    
V1    O19   S    
C54   H28   S    
C17   C19   A    
C32   C35   S    
C5    C29   S    
O9    V1    S    
C24   H12   S    
C9    H3    S    
C10   H4    S    
C9    C14   S    
C11   H1    S    
C40   C42   A    
O3    C1    A    
C38   H18   S    
C17   C27   A    
C32   H16   S    
H20   C43   S    
C39   C49   A    
C8    C13   S    
C48   C52   A    
O13   V3    S    
C33   H13   S    
O7    C3    A    
C55   C56   S    
C46   H26   S    
C9    C11   S    
O5    C7    A    
C18   H8    S    
O7    V1    S    
O6    C8    A    
O8    V2    S    
C19   C21   A    
C20   C22   A    
O3    V1    S    
C53   H30   S    
O14   V4    S    
C45   C47   A    
C42   H24   S    
O14   V2    S    
C37   H17   S    
C2    O12   A    
C11   C16   S    
C34   C37   S    
O17   V3    S    
C13   C15   S    
C33   C38   S    
C10   C13   S    
C14   C16   S    
C11   C13   S    
O1    V3    S    
C54   H27   S    
C22   C24   A    
O11   V3    S    
C23   C25   A    
C32   C38   S    
C24   C26   A    
C41   C43   A    
C9    C15   S    
C10   C16   S    
O8    C4    A    
C27   C30   A    
C1    O11   A    
C3    C52   S    
H5    C22   S    
C28   C29   A    
O15   V3    S    
H6    C21   S    
C2    C35   S    
C26   C30   A    
C21   C23   A    
C41   H23   S    
C47   C49   A    
C46   C48   A    
C6    C30   S    
O10   V2    S    
C48   C50   A    
C56   H33   S    
C40   C50   A    
C18   C20   A    
C35   C37   S    
C31   H15   S    
C39   C41   A    
C44   C46   A    
O18   V4    S    
C49   C52   A    
C25   C27   A    
C34   C36   S    
O16   C6    A    
O1    C3    A    
C12   H2    S    
C55   H36   S    
C4    C51   S    
C23   H11   S    
V2    O20   S    
O16   V4    S    
C45   H25   S    
C36   C38   S    
C17   H7    S    
C18   C28   A    
C1    C36   S    
O5    V1    S    
O17   C7    A    
O6    V2    S    
O10   C6    A    
O18   C8    A    
O2    V4    S    
C53   H31   S    
C40   H22   S    
O15   C5    A    
V3    O19   S    
V4    O20   S    
C7    C14   S    
O9    C5    A    
O13   V1    S    
C10   C12   S    
C26   C28   A    
C33   C35   S    
C56   H34   S    
C42   C44   A    
C50   C51   A    
O2    C4    A    
C15   C53   S    
H19   C44   S    
C47   C51   A    
O4    V2    S    
C32   C34   S    
C39   H21   S    
C53   C54   S    
C43   C45   A    
C12   C15   S    
C34   H14   S    
C31   C36   S    
C31   C33   S    
O12   V4    S    
C55   H35   S    
C54   H29   S    
C16   C55   S    
