data_mof_unit_62661.cif
_audit_creation_date              2012-12-10T19:45:11-0500
_audit_creation_method            fapswitch 2.2
_symmetry_space_group_name_H-M    P1
_symmetry_Int_Tables_number       1
_space_group_crystal_system       triclinic
_cell_length_a                    15.033185
_cell_length_b                    14.137486
_cell_length_c                    10.73797
_cell_angle_alpha                 88.104115
_cell_angle_beta                  90.056758
_cell_angle_gamma                 90.579597
_cell_volume                      2280.78979467

loop_
_atom_site_label
_atom_site_type_symbol
_atom_type_description
_atom_site_fract_x
_atom_site_fract_y
_atom_site_fract_z
_atom_type_partial_charge
C1    C     C_R   0.327264 0.499513 0.499224 0.961074
C2    C     C_R   0.672118 0.500441 0.499186 1.039940
C3    C     C_R   0.046488 0.504921 0.496682 -0.093757
C4    C     C_R   0.950994 0.506326 0.492512 -0.086101
C5    C     C_R   0.455616 0.105016 0.409775 0.469286
C6    C     C_R   0.548642 0.103528 0.592281 0.485275
C7    C     C_R   0.454844 0.204463 0.411226 0.479032
C8    C     C_R   0.547422 0.203338 0.588955 0.444920
C9    C     C_R   0.502407 0.052973 0.501564 -0.159648
C10   C     C_R   0.451391 0.893028 0.588679 0.495719
C11   C     C_R   0.552240 0.898011 0.414217 0.505963
C12   C     C_R   0.450515 0.793445 0.585489 0.585009
C13   C     C_R   0.550526 0.798278 0.415322 0.566869
C14   C     C_R   0.502602 0.946775 0.502150 -0.166667
C15   C     C_R   0.493127 0.502053 0.262615 0.840772
C16   C     C_R   0.501038 0.498043 0.737693 0.905574
C17   C     C_2   0.442370 0.439791 0.933057 0.232093
C18   C     C_2   0.439211 0.439242 0.069452 0.253032
C19   C     C_2   0.504420 0.491474 0.869847 0.456270
C20   C     C_2   0.475586 0.510495 0.131707 0.415190
C21   C     C_R   0.094613 0.584916 0.457414 -0.298190
C22   C     C_R   0.905645 0.570365 0.564463 -0.288628
C23   C     C_R   0.186379 0.582757 0.457998 0.618697
C24   C     C_R   0.813854 0.568627 0.566037 0.635551
C25   C     C_R   0.230610 0.499166 0.496004 -0.401077
C26   C     C_R   0.767674 0.501623 0.496610 -0.374325
C27   C     C_R   0.181120 0.416768 0.530543 0.288722
C28   C     C_R   0.813255 0.436330 0.424554 0.280865
C29   C     C_R   0.089001 0.422319 0.537094 0.625082
C30   C     C_R   0.905527 0.441225 0.419901 0.639953
H1    H     H_    0.060903 0.648704 0.425663 0.225617
H2    H     H_    0.941507 0.620428 0.620594 0.224208
N1    N     N_R   0.500000 0.252470 0.500000 -0.264125
N2    N     N_R   0.500000 0.747550 0.500000 -0.275093
O1    O     O_R   0.369060 0.579480 0.500010 -0.535761
O2    O     O_R   0.630940 0.579480 0.499990 -0.543590
O3    O     O_R   0.369050 0.420520 0.500010 -0.591913
O4    O     O_R   0.630950 0.420520 0.499990 -0.588660
O5    O     O_R   0.500000 0.579460 0.319080 -0.536137
O6    O     O_R   0.500000 0.579460 0.680920 -0.544400
O7    O     O_R   0.499990 0.420500 0.319080 -0.571363
O8    O     O_R   0.500010 0.420500 0.680920 -0.609942
Zn1   Zn    Zn3+2 0.500000 0.606140 0.500000 1.178116
Zn2   Zn    Zn3+2 0.500000 0.393860 0.500000 1.059004
O9    O     O_3   0.379304 0.387474 0.869579 -0.626062
C31   C     C_3   0.405258 0.291355 0.872357 0.156816
H3    H     H_    0.389860 0.256361 0.963886 0.224543
H4    H     H_    0.477597 0.283098 0.853115 0.198684
C32   C     C_3   0.353839 0.239422 0.773796 -0.711113
H5    H     H_    0.373897 0.164013 0.774427 0.229510
H6    H     H_    0.281315 0.243225 0.792282 0.282460
H7    H     H_    0.368586 0.272381 0.680944 0.279732
O10   O     O_3   0.392327 0.367403 0.131416 -0.561233
C33   C     C_3   0.304238 0.397581 0.153958 0.159069
H8    H     H_    0.283149 0.460522 0.095809 0.146851
H9    H     H_    0.298645 0.416310 0.253140 0.130243
C34   C     C_3   0.239090 0.317300 0.128590 -0.710803
H10   H     H_    0.260675 0.250700 0.176646 0.288857
H11   H     H_    0.171867 0.335669 0.162484 0.212402
H12   H     H_    0.235278 0.305808 0.026963 0.264758
F1    F     F_    0.399570 0.742763 0.668193 -0.539504
F2    F     F_    0.599857 0.752189 0.331381 -0.524570
F3    F     F_    0.578283 0.528206 0.924420 -0.584331
F4    F     F_    0.485357 0.598432 0.076939 -0.554389
F5    F     F_    0.231377 0.661891 0.418231 -0.594445
F6    F     F_    0.770241 0.630264 0.638115 -0.580711
O11   O     O_3   0.221966 0.332774 0.566163 -0.566227
C35   C     C_3   0.209007 0.266407 0.471637 0.111563
H13   H     H_    0.256001 0.282404 0.394484 0.193584
H14   H     H_    0.140285 0.266485 0.432578 0.186560
C36   C     C_3   0.226348 0.166800 0.523302 -0.645105
H15   H     H_    0.182730 0.150868 0.604880 0.275386
H16   H     H_    0.212148 0.114760 0.450460 0.240297
H17   H     H_    0.296796 0.159439 0.551799 0.220002
O12   O     O_3   0.767240 0.375266 0.348854 -0.557228
C37   C     C_3   0.770859 0.282561 0.401973 0.160098
H18   H     H_    0.747596 0.280386 0.500601 0.177973
H19   H     H_    0.839623 0.254438 0.398535 0.206249
C38   C     C_3   0.710439 0.218026 0.328211 -0.659960
H20   H     H_    0.735138 0.213875 0.231128 0.282494
H21   H     H_    0.709272 0.145840 0.372307 0.229105
H22   H     H_    0.641743 0.246076 0.326098 0.246844
F7    F     F_    0.040858 0.346842 0.582429 -0.624034
F8    F     F_    0.950860 0.383848 0.343710 -0.637725
F9    F     F_    0.409573 0.059774 0.320264 -0.564084
F10   F     F_    0.595768 0.056674 0.682333 -0.543800
F11   F     F_    0.408370 0.252652 0.323187 -0.591049
F12   F     F_    0.594655 0.251032 0.674622 -0.595940
F13   F     F_    0.401417 0.936742 0.674459 -0.563130
F14   F     F_    0.602718 0.946642 0.328587 -0.551096

loop_
_geom_bond_atom_site_label_1
_geom_bond_atom_site_label_2
_ccdc_geom_bond_type
C27   C29   A    
C37   C38   S    
C9    C14   S    
C6    C9    A    
O9    C31   S    
O4    Zn2   S    
C21   H1    S    
C31   C32   S    
C22   H2    S    
C37   H19   S    
C29   F7    S    
C16   C19   S    
C11   C14   A    
C34   H11   S    
C3    C29   A    
C18   O10   S    
C31   H3    S    
O6    Zn1   S    
C7    F11   S    
C13   F2    S    
C10   F13   S    
C19   F3    S    
C35   H13   S    
C32   H6    S    
O1    Zn1   S    
C1    O3    A    
C5    F9    S    
C1    C25   S    
C7    N1    A    
O8    Zn2   S    
C31   H4    S    
C15   C20   S    
C33   H9    S    
O11   C35   S    
C37   H18   S    
C15   O7    A    
C10   C14   A    
C5    C7    A    
C34   H12   S    
O5    Zn1   S    
O10   C33   S    
C17   O9    S    
C8    F12   S    
C20   F4    S    
O12   C37   S    
C5    C9    A    
C36   H17   S    
C4    C22   A    
C2    O4    A    
C32   H7    S    
C17   C18   S    
C2    C26   S    
C15   O5    A    
C10   C12   A    
C16   O6    A    
C21   C23   A    
O7    Zn2   S    
C22   C24   A    
C3    C21   A    
C12   N2    A    
C3    C4    S    
C16   O8    A    
C1    O1    A    
C38   H21   S    
C2    O2    A    
C33   H8    S    
N1    Zn2   S    
N2    Zn1   S    
C24   C26   A    
C38   H22   S    
C6    C8    A    
C24   F6    S    
C25   C27   A    
C26   C28   A    
C6    F10   S    
C23   F5    S    
O3    Zn2   S    
C28   C30   A    
C13   N2    A    
C12   F1    S    
C11   C13   A    
C11   F14   S    
C34   H10   S    
C35   C36   S    
C17   C19   D    
C18   C20   D    
C8    N1    A    
C23   C25   A    
C30   F8    S    
C27   O11   S    
C38   H20   S    
C36   H15   S    
C35   H14   S    
C32   H5    S    
C36   H16   S    
O2    Zn1   S    
C28   O12   S    
C4    C30   A    
C33   C34   S    
