data_mof_unit_28794.cif
_audit_creation_date              2012-12-11T17:08:26-0500
_audit_creation_method            fapswitch 2.2
_symmetry_space_group_name_H-M    P1
_symmetry_Int_Tables_number       1
_space_group_crystal_system       triclinic
_cell_length_a                    6.974507
_cell_length_b                    14.533856
_cell_length_c                    16.07501
_cell_angle_alpha                 89.935061
_cell_angle_beta                  90.02316
_cell_angle_gamma                 89.952061
_cell_volume                      1629.46543553

loop_
_atom_site_label
_atom_site_type_symbol
_atom_type_description
_atom_site_fract_x
_atom_site_fract_y
_atom_site_fract_z
_atom_type_partial_charge
O1    O     O_R   0.505700 0.583890 0.413310 -0.515679
O2    O     O_R   0.175960 0.594920 0.586080 -0.543213
O3    O     O_R   0.005660 0.416110 0.586690 -0.526523
C1    C     C_R   0.345331 0.618993 0.613088 0.699492
O4    O     O_R   0.175980 0.594920 0.413930 -0.551542
O5    O     O_R   0.005680 0.416110 0.413310 -0.537831
C2    C     C_R   0.344721 0.616817 0.385161 0.726660
O6    O     O_R   0.505680 0.583890 0.586690 -0.522681
O7    O     O_3   0.339200 0.441330 0.500000 -0.338172
V1    V     V_3+5 0.064350 0.510880 0.500000 1.625025
O8    O     O_R   0.675960 0.405080 0.413920 -0.513366
C3    C     C_R   0.844920 0.383361 0.385037 0.764029
O9    O     O_R   0.675940 0.405080 0.586070 -0.528936
C4    C     C_R   0.844209 0.385050 0.616277 0.772568
V2    V     V_3+5 0.564340 0.489120 0.500000 1.704742
O10   O     O_3   0.839360 0.558670 0.500000 -0.355948
C5    C     C_R   0.975516 0.242455 0.682029 -0.084748
C6    C     C_R   0.850580 0.317957 0.685952 -0.301276
C7    C     C_R   0.723695 0.322329 0.755874 0.326691
C8    C     C_R   0.734198 0.254697 0.819049 0.612014
C9    C     C_R   0.875510 0.185218 0.817562 -0.301556
C10   C     C_R   0.989339 0.178762 0.746391 -0.138240
C11   C     C_3   0.200572 0.166567 0.736330 0.428862
C12   C     C_3   0.186703 0.236244 0.665345 0.883705
H1    H     H_    0.285310 0.189372 0.791162 0.058686
C13   C     C_R   0.721087 0.187279 0.237404 -0.015490
C14   C     C_R   0.879346 0.184636 0.183752 -0.094554
C15   C     C_R   0.028396 0.247376 0.198832 -0.060598
H2    H     H_    0.147594 0.250908 0.156530 0.167902
C16   C     C_R   0.017896 0.310870 0.264735 -0.052510
H3    H     H_    0.130024 0.361381 0.271505 0.191298
C17   C     C_R   0.857743 0.313802 0.317811 -0.104048
C18   C     C_R   0.711293 0.249911 0.303645 -0.062736
C19   C     C_3   0.505249 0.269854 0.287704 1.023528
C20   C     C_3   0.516093 0.203695 0.215067 0.674017
C21   C     C_R   0.494566 0.679801 0.743528 -0.002783
C22   C     C_R   0.355859 0.688845 0.680545 -0.240738
C23   C     C_R   0.226605 0.764651 0.685980 0.379183
C24   C     C_R   0.231671 0.823354 0.755788 -0.087178
H4    H     H_    0.131435 0.880285 0.758572 0.173750
C25   C     C_R   0.376553 0.815825 0.816464 -0.169211
C26   C     C_R   0.506336 0.743007 0.809164 -0.085402
C27   C     C_3   0.721010 0.747149 0.806328 0.131595
C28   C     C_3   0.709100 0.678716 0.734305 0.595522
H5    H     H_    0.777324 0.816141 0.789098 0.111711
C29   C     C_R   0.498685 0.753127 0.315134 -0.038363
C30   C     C_R   0.353048 0.686779 0.318127 -0.132160
C31   C     C_R   0.214110 0.688878 0.254622 -0.142228
H6    H     H_    0.103664 0.636985 0.252817 0.183168
C32   C     C_R   0.225963 0.752888 0.188887 -0.080413
H7    H     H_    0.122794 0.749322 0.138817 0.198490
C33   C     C_R   0.378180 0.816179 0.184166 -0.107041
C34   C     C_R   0.511036 0.816462 0.249570 -0.028395
C35   C     C_3   0.724347 0.809484 0.245746 0.992297
C36   C     C_3   0.711696 0.740397 0.317251 0.495441
O11   O     O_R   0.229000 0.916070 0.913330 -0.547571
O12   O     O_R   0.558770 0.905070 0.086080 -0.509235
O13   O     O_R   0.729000 0.083900 0.086690 -0.535511
C37   C     C_R   0.390015 0.882921 0.114632 0.783483
O14   O     O_R   0.558720 0.905070 0.913930 -0.542537
O15   O     O_R   0.728960 0.083900 0.913310 -0.523014
C38   C     C_R   0.389785 0.883677 0.884876 0.741494
O16   O     O_R   0.229050 0.916070 0.086710 -0.529218
O17   O     O_3   0.395460 0.058650 0.000020 -0.380161
V3    V     V_3+5 0.670340 0.989120 0.000000 1.639266
O18   O     O_R   0.058670 0.094960 0.913900 -0.553979
C39   C     C_R   0.889536 0.117042 0.885551 0.786195
O19   O     O_R   0.058720 0.094960 0.086050 -0.534803
C40   C     C_R   0.889528 0.117715 0.114164 0.774377
V4    V     V_3+5 0.170330 0.010930 0.999970 1.590748
O20   O     O_3   0.895340 0.941350 0.999980 -0.361844
O21   O     O_3   0.596718 0.393794 0.769058 -0.596478
H8    H     H_    0.616907 0.442706 0.727497 0.325549
F1    F     F_    0.388730 0.240279 0.352078 -0.611857
O22   O     O_3   0.496099 0.248229 0.137899 -0.648659
H9    H     H_    0.455499 0.200964 0.097251 0.325791
F2    F     F_    0.402726 0.125861 0.224216 -0.649969
O23   O     O_3   0.106476 0.789715 0.621633 -0.593178
H10   H     H_    0.151983 0.761271 0.569327 0.309622
O24   O     O_3   0.808854 0.711808 0.878618 -0.616055
H11   H     H_    0.734664 0.657718 0.898411 0.337799
O25   O     O_3   0.788083 0.592196 0.751927 -0.638657
H12   H     H_    0.929294 0.599915 0.749202 0.311823
O26   O     O_3   0.771438 0.713147 0.657041 -0.610371
H13   H     H_    0.712168 0.774559 0.648120 0.298029
F3    F     F_    0.614953 0.261793 0.885568 -0.657079
F4    F     F_    0.813669 0.891456 0.266174 -0.637871
F5    F     F_    0.787300 0.772722 0.171259 -0.727078
O27   O     O_3   0.790961 0.772168 0.392022 -0.587816
H14   H     H_    0.932142 0.768708 0.385081 0.329772
O28   O     O_3   0.771429 0.650230 0.297994 -0.650290
H15   H     H_    0.703077 0.629623 0.247114 0.297707
F6    F     F_    0.245013 0.078767 0.709122 -0.616415
F7    F     F_    0.226536 0.199505 0.587832 -0.550125
O29   O     O_3   0.287162 0.318481 0.679851 -0.635165
H16   H     H_    0.242941 0.344414 0.733701 0.256508
F8    F     F_    0.474161 0.360673 0.264935 -0.720042

loop_
_geom_bond_atom_site_label_1
_geom_bond_atom_site_label_2
_ccdc_geom_bond_type
C16   C17   A    
C25   C26   A    
C4    C6    S    
C21   C26   A    
C7    C8    A    
C1    O6    A    
C24   C25   A    
C34   C35   S    
C20   O22   S    
C13   C14   A    
C21   C22   A    
C6    C7    A    
C28   O25   S    
O5    C3    A    
C16   H3    S    
O12   C37   A    
V2    O10   S    
C19   F8    S    
O14   C38   A    
C19   C20   S    
C36   O28   S    
C13   C18   A    
C29   C30   A    
O8    V2    S    
O29   H16   S    
O19   C40   A    
C8    F3    S    
C29   C36   S    
C32   C33   A    
C11   C12   S    
V4    O20   S    
O1    V2    S    
O17   V4    S    
O7    V1    S    
C14   C40   S    
C31   C32   A    
O18   C39   A    
O9    C4    A    
C9    C39   S    
C7    O21   S    
C25   C38   S    
C18   C19   S    
C23   C24   A    
C5    C12   S    
O26   H13   S    
C12   O29   S    
O28   H15   S    
O4    C2    A    
O23   H10   S    
O24   H11   S    
C23   O23   S    
C32   H7    S    
C27   O24   S    
V3    O20   S    
C20   F2    S    
C11   F6    S    
C2    C30   S    
O2    C1    A    
O22   H9    S    
C22   C23   A    
C33   C37   S    
C12   F7    S    
O15   C39   A    
O13   V3    S    
C30   C31   A    
O16   V4    S    
C5    C6    A    
C1    C22   S    
C27   H5    S    
O3    C4    A    
C19   F1    S    
C35   F4    S    
C31   H6    S    
O14   V3    S    
O6    V2    S    
O11   V4    S    
O9    V2    S    
C27   C28   S    
O11   C38   A    
C21   C28   S    
C26   C27   S    
O2    V1    S    
C24   H4    S    
C33   C34   A    
C35   C36   S    
C15   H2    S    
O1    C2    A    
O12   V3    S    
O21   H8    S    
C28   O26   S    
O5    V1    S    
O8    C3    A    
O13   C40   A    
C37   O16   A    
C5    C10   A    
C17   C18   A    
C15   C16   A    
O7    V2    S    
O4    V1    S    
C36   O27   S    
O3    V1    S    
V1    O10   S    
O17   V3    S    
C35   F5    S    
O18   V4    S    
C29   C34   A    
C11   H1    S    
O15   V3    S    
C13   C20   S    
C8    C9    A    
O19   V4    S    
O25   H12   S    
C14   C15   A    
C10   C11   S    
O27   H14   S    
C9    C10   A    
C3    C17   S    
