data_mof_unit_65254.cif
_audit_creation_date              2012-12-10T17:52:31-0500
_audit_creation_method            fapswitch 2.2
_symmetry_space_group_name_H-M    P1
_symmetry_Int_Tables_number       1
_space_group_crystal_system       monoclinic
_cell_length_a                    39.05002
_cell_length_b                    39.050021
_cell_length_c                    18.367121
_cell_angle_alpha                 89.99999
_cell_angle_beta                  90.0
_cell_angle_gamma                 90.0
_cell_volume                      28008.0981374

loop_
_atom_site_label
_atom_site_type_symbol
_atom_type_description
_atom_site_fract_x
_atom_site_fract_y
_atom_site_fract_z
_atom_type_partial_charge
C1    C     C_R   0.566202 1.000000 0.500000 0.887737
C2    C     C_R   0.000000 0.566202 0.500000 0.887741
C3    C     C_R   0.433798 0.000000 0.500000 0.887741
C4    C     C_R   0.000000 0.433798 0.500000 0.887741
C5    C     C_R   0.066202 0.500000 0.000000 0.887740
C6    C     C_R   0.500000 0.066202 0.000000 0.887737
C7    C     C_R   0.933798 0.500000 0.000000 0.887742
C8    C     C_R   0.500000 0.933798 0.000000 0.887742
C9    C     C_R   0.714093 1.000000 0.500000 -0.052666
C10   C     C_R   0.000000 0.714093 0.500000 -0.052666
C11   C     C_R   0.285907 0.000000 0.500000 -0.052667
C12   C     C_R   0.000000 0.285907 0.500000 -0.052666
C13   C     C_R   0.214093 0.500000 0.000000 -0.052666
C14   C     C_R   0.500000 0.214093 0.000000 -0.052666
C15   C     C_R   0.785907 0.500000 0.000000 -0.052667
C16   C     C_R   0.500000 0.785907 1.000000 -0.052666
C17   C     C_R   0.785896 1.000000 0.500000 -0.207499
C18   C     C_R   0.000000 0.785896 0.500000 -0.207500
C19   C     C_R   0.214104 0.000000 0.500000 -0.207500
C20   C     C_R   0.000000 0.214104 0.500000 -0.207500
C21   C     C_R   0.285896 0.500000 0.000000 -0.207500
C22   C     C_R   0.500000 0.285896 0.000000 -0.207500
C23   C     C_R   0.714104 0.500000 0.000000 -0.207500
C24   C     C_R   0.500000 0.714104 1.000000 -0.207500
C25   C     C_R   0.657956 0.973100 0.466260 -0.137536
C26   C     C_R   0.026899 0.657956 0.466258 -0.137537
C27   C     C_R   0.342044 0.026900 0.466258 -0.137536
C28   C     C_R   0.973100 0.342044 0.466258 -0.137536
C29   C     C_R   0.342044 0.973100 0.533741 -0.137536
C30   C     C_R   0.973100 0.657956 0.533742 -0.137537
C31   C     C_R   0.657956 0.026900 0.533740 -0.137536
C32   C     C_R   0.026900 0.342044 0.533741 -0.137536
C33   C     C_R   0.157956 0.473100 0.966258 -0.137537
C34   C     C_R   0.526900 0.157956 0.966260 -0.137537
C35   C     C_R   0.842044 0.526899 0.966258 -0.137537
C36   C     C_R   0.473100 0.842044 0.966257 -0.137537
C37   C     C_R   0.842044 0.473100 0.033742 -0.137537
C38   C     C_R   0.473100 0.157956 0.033740 -0.137536
C39   C     C_R   0.157956 0.526900 0.033742 -0.137536
C40   C     C_R   0.526899 0.842044 0.033742 -0.137537
C41   C     C_R   0.622109 0.973126 0.466732 0.514606
C42   C     C_R   0.026873 0.622109 0.466730 0.514606
C43   C     C_R   0.377891 0.026873 0.466731 0.514606
C44   C     C_R   0.973127 0.377891 0.466731 0.514607
C45   C     C_R   0.377891 0.973127 0.533269 0.514606
C46   C     C_R   0.973127 0.622109 0.533269 0.514606
C47   C     C_R   0.622109 0.026874 0.533268 0.514606
C48   C     C_R   0.026873 0.377891 0.533269 0.514606
C49   C     C_R   0.122109 0.473127 0.966731 0.514607
C50   C     C_R   0.526874 0.122109 0.966732 0.514606
C51   C     C_R   0.877891 0.526873 0.966730 0.514605
C52   C     C_R   0.473127 0.877891 0.966730 0.514606
C53   C     C_R   0.877891 0.473127 0.033270 0.514605
C54   C     C_R   0.473126 0.122109 0.033268 0.514606
C55   C     C_R   0.122109 0.526873 0.033269 0.514607
C56   C     C_R   0.526873 0.877891 0.033270 0.514605
C57   C     C_R   0.603975 1.000000 0.500000 -0.296894
C58   C     C_R   0.000000 0.603975 0.500000 -0.296891
C59   C     C_R   0.396025 0.000000 0.500000 -0.296893
C60   C     C_R   0.000000 0.396025 0.500000 -0.296893
C61   C     C_R   0.103975 0.500000 0.000000 -0.296893
C62   C     C_R   0.500000 0.103975 0.000000 -0.296893
C63   C     C_R   0.896025 0.500000 0.000000 -0.296891
C64   C     C_R   0.500000 0.896025 1.000000 -0.296891
C65   C     C_R   0.676196 1.000000 0.500000 -0.102707
C66   C     C_R   0.000000 0.676196 0.500000 -0.102706
C67   C     C_R   0.323804 0.000000 0.500000 -0.102707
C68   C     C_R   0.000000 0.323804 0.500000 -0.102707
C69   C     C_R   0.176196 0.500000 0.000000 -0.102707
C70   C     C_R   0.500000 0.176196 0.000000 -0.102707
C71   C     C_R   0.823804 0.500000 0.000000 -0.102707
C72   C     C_R   0.500000 0.823804 1.000000 -0.102706
C73   C     C_R   1.000000 0.933678 0.500000 0.815710
C74   C     C_R   0.066322 1.000000 0.500000 0.815710
C75   C     C_R   0.000000 0.066322 0.500000 0.815710
C76   C     C_R   0.933678 0.000000 0.500000 0.815710
C77   C     C_R   0.500000 0.433678 0.000000 0.815710
C78   C     C_R   0.566322 0.500000 0.000000 0.815710
C79   C     C_R   0.500000 0.566322 0.000000 0.815710
C80   C     C_R   0.433678 0.500000 0.000000 0.815710
C81   C     C_R   0.500000 0.000000 0.639828 0.825504
C82   C     C_R   0.000000 0.500000 0.639828 0.825505
C83   C     C_R   0.500000 0.000000 0.360172 0.825505
C84   C     C_R   0.000000 0.500000 0.360172 0.825505
C85   C     C_R   0.000000 0.500000 0.139828 0.825505
C86   C     C_R   0.500000 0.000000 0.139828 0.825504
C87   C     C_R   0.000000 0.500000 0.860172 0.825506
C88   C     C_R   0.500000 1.000000 0.860172 0.825505
C89   C     C_1   0.500000 1.000000 0.717353 -0.113176
C90   C     C_1   0.000000 0.500000 0.717353 -0.113175
C91   C     C_1   0.500000 0.000000 0.282647 -0.113176
C92   C     C_1   0.000000 0.500000 0.282647 -0.113175
C93   C     C_1   0.000000 0.500000 0.217353 -0.113175
C94   C     C_1   0.500000 0.000000 0.217353 -0.113176
C95   C     C_1   0.000000 0.500000 0.782647 -0.113175
C96   C     C_1   0.500000 0.000000 0.782647 -0.113176
C97   C     C_R   0.877786 0.993809 0.435386 -0.210609
C98   C     C_R   0.006190 0.877786 0.435386 -0.210609
C99   C     C_R   0.122214 0.006191 0.435386 -0.210610
C100  C     C_R   0.993809 0.122214 0.435386 -0.210609
C101  C     C_R   0.122214 0.993809 0.564614 -0.210610
C102  C     C_R   0.993810 0.877786 0.564614 -0.210610
C103  C     C_R   0.877786 0.006191 0.564614 -0.210610
C104  C     C_R   0.006191 0.122214 0.564614 -0.210610
C105  C     C_R   0.377786 0.493809 0.935386 -0.210610
C106  C     C_R   0.506192 0.377786 0.935387 -0.210609
C107  C     C_R   0.622214 0.506190 0.935386 -0.210610
C108  C     C_R   0.493810 0.622214 0.935386 -0.210609
C109  C     C_R   0.622214 0.493810 0.064614 -0.210609
C110  C     C_R   0.493808 0.377786 0.064614 -0.210610
C111  C     C_R   0.377786 0.506191 0.064614 -0.210610
C112  C     C_R   0.506190 0.622214 0.064614 -0.210610
C113  C     C_R   0.841995 0.993608 0.435026 0.023797
C114  C     C_R   0.006391 0.841995 0.435026 0.023796
C115  C     C_R   0.158005 0.006391 0.435026 0.023797
C116  C     C_R   0.993608 0.158005 0.435026 0.023796
C117  C     C_R   0.158005 0.993609 0.564974 0.023797
C118  C     C_R   0.993609 0.841995 0.564974 0.023797
C119  C     C_R   0.841995 0.006392 0.564974 0.023797
C120  C     C_R   0.006391 0.158005 0.564974 0.023797
C121  C     C_R   0.341995 0.493609 0.935026 0.023797
C122  C     C_R   0.506392 0.341995 0.935027 0.023797
C123  C     C_R   0.658005 0.506391 0.935026 0.023797
C124  C     C_R   0.493609 0.658005 0.935026 0.023796
C125  C     C_R   0.658005 0.493609 0.064974 0.023797
C126  C     C_R   0.493607 0.341995 0.064973 0.023797
C127  C     C_R   0.341995 0.506391 0.064974 0.023797
C128  C     C_R   0.506391 0.658005 0.064974 0.023797
C129  C     C_R   0.823760 1.000000 0.500000 0.133163
C130  C     C_R   0.000000 0.823760 0.500000 0.133163
C131  C     C_R   0.176240 0.000000 0.500000 0.133163
C132  C     C_R   0.000000 0.176240 0.500000 0.133163
C133  C     C_R   0.323760 0.500000 0.000000 0.133163
C134  C     C_R   0.500000 0.323760 0.000000 0.133163
C135  C     C_R   0.676240 0.500000 0.000000 0.133163
C136  C     C_R   0.500000 0.676240 1.000000 0.133163
C137  C     C_R   0.895918 1.000000 0.500000 -0.060003
C138  C     C_R   0.000000 0.895917 0.500000 -0.060003
C139  C     C_R   0.104082 0.000000 0.500000 -0.060003
C140  C     C_R   0.000000 0.104082 0.500000 -0.060004
C141  C     C_R   0.395917 0.500000 0.000000 -0.060003
C142  C     C_R   0.500000 0.395917 0.000000 -0.060003
C143  C     C_R   0.604082 0.500000 0.000000 -0.060004
C144  C     C_R   0.500000 0.604082 1.000000 -0.060004
C145  C     C_R   0.767846 0.973817 0.535695 0.582059
C146  C     C_R   0.026183 0.767846 0.535693 0.582060
C147  C     C_R   0.232154 0.026183 0.535694 0.582060
C148  C     C_R   0.973817 0.232154 0.535694 0.582060
C149  C     C_R   0.232154 0.973817 0.464306 0.582060
C150  C     C_R   0.973817 0.767846 0.464307 0.582060
C151  C     C_R   0.767846 0.026183 0.464305 0.582058
C152  C     C_R   0.026183 0.232154 0.464306 0.582060
C153  C     C_R   0.267846 0.473817 0.035693 0.582060
C154  C     C_R   0.526183 0.267846 0.035695 0.582060
C155  C     C_R   0.732154 0.526183 0.035693 0.582059
C156  C     C_R   0.473816 0.732154 0.035693 0.582061
C157  C     C_R   0.732154 0.473817 0.964307 0.582059
C158  C     C_R   0.473817 0.267846 0.964305 0.582059
C159  C     C_R   0.267846 0.526183 0.964307 0.582060
C160  C     C_R   0.526183 0.732154 0.964307 0.582061
C161  C     C_R   0.732123 0.973944 0.535903 -0.214702
C162  C     C_R   0.026057 0.732123 0.535902 -0.214702
C163  C     C_R   0.267877 0.026056 0.535902 -0.214701
C164  C     C_R   0.973943 0.267877 0.535902 -0.214702
C165  C     C_R   0.267877 0.973944 0.464098 -0.214702
C166  C     C_R   0.973943 0.732123 0.464099 -0.214702
C167  C     C_R   0.732123 0.026056 0.464097 -0.214701
C168  C     C_R   0.026056 0.267877 0.464098 -0.214702
C169  C     C_R   0.232123 0.473944 0.035902 -0.214702
C170  C     C_R   0.526056 0.232123 0.035904 -0.214702
C171  C     C_R   0.767877 0.526057 0.035901 -0.214701
C172  C     C_R   0.473943 0.767877 0.035901 -0.214702
C173  C     C_R   0.767877 0.473943 0.964099 -0.214701
C174  C     C_R   0.473944 0.232122 0.964096 -0.214703
C175  C     C_R   0.232123 0.526056 0.964098 -0.214702
C176  C     C_R   0.526057 0.767877 0.964099 -0.214702
Cu1   Cu    Cu3+1 0.500000 0.034230 0.500000 1.111042
Cu2   Cu    Cu3+1 0.965770 0.500000 0.500000 1.111042
Cu3   Cu    Cu3+1 0.500000 0.965770 0.500000 1.111043
Cu4   Cu    Cu3+1 0.034230 0.500000 0.500000 1.111042
Cu5   Cu    Cu3+1 0.000000 0.534230 0.000000 1.111042
Cu6   Cu    Cu3+1 0.465770 0.000000 0.000000 1.111043
Cu7   Cu    Cu3+1 1.000000 0.465770 0.000000 1.111042
Cu8   Cu    Cu3+1 0.534230 0.000000 0.000000 1.111042
Cu9   Cu    Cu3+1 1.000000 0.000000 0.572520 0.999161
Cu10  Cu    Cu3+1 0.000000 0.000000 0.427480 0.999161
Cu11  Cu    Cu3+1 0.500000 0.500000 0.072520 0.999161
Cu12  Cu    Cu3+1 0.500000 0.500000 0.927480 0.999161
H1    H     H_    0.891495 0.988757 0.385185 0.167521
H2    H     H_    0.011242 0.891495 0.385185 0.167521
H3    H     H_    0.108505 0.011242 0.385185 0.167521
H4    H     H_    0.988758 0.108505 0.385185 0.167521
H5    H     H_    0.108505 0.988758 0.614815 0.167521
H6    H     H_    0.988758 0.891495 0.614815 0.167521
H7    H     H_    0.891495 0.011243 0.614815 0.167521
H8    H     H_    0.011242 0.108505 0.614815 0.167521
H9    H     H_    0.391495 0.488758 0.885185 0.167521
H10   H     H_    0.511244 0.391495 0.885186 0.167521
H11   H     H_    0.608505 0.511242 0.885185 0.167521
H12   H     H_    0.488758 0.608505 0.885185 0.167521
H13   H     H_    0.608505 0.488758 0.114815 0.167521
H14   H     H_    0.488756 0.391495 0.114814 0.167521
H15   H     H_    0.391495 0.511242 0.114815 0.167521
H16   H     H_    0.511242 0.608505 0.114815 0.167521
H17   H     H_    0.718449 0.953741 0.563982 0.191318
H18   H     H_    0.046260 0.718449 0.563978 0.191318
H19   H     H_    0.281551 0.046260 0.563979 0.191318
H20   H     H_    0.953740 0.281551 0.563980 0.191318
H21   H     H_    0.281551 0.953740 0.436021 0.191318
H22   H     H_    0.953740 0.718449 0.436022 0.191318
H23   H     H_    0.718449 0.046259 0.436018 0.191318
H24   H     H_    0.046260 0.281551 0.436020 0.191318
H25   H     H_    0.218449 0.453740 0.063979 0.191318
H26   H     H_    0.546259 0.218449 0.063983 0.191318
H27   H     H_    0.781551 0.546260 0.063978 0.191318
H28   H     H_    0.453740 0.781551 0.063978 0.191318
H29   H     H_    0.781551 0.453740 0.936022 0.191318
H30   H     H_    0.453741 0.218449 0.936017 0.191318
H31   H     H_    0.218449 0.546260 0.936021 0.191318
H32   H     H_    0.546260 0.781551 0.936022 0.191318
O1    O     O_R   0.549910 0.028910 0.500030 -0.536800
O2    O     O_R   0.971090 0.549910 0.500030 -0.536801
O3    O     O_R   0.450090 0.971090 0.500030 -0.536801
O4    O     O_R   0.028910 0.450090 0.500030 -0.536801
O5    O     O_R   0.450090 0.028910 0.499970 -0.536801
O6    O     O_R   0.028910 0.549910 0.499970 -0.536802
O7    O     O_R   0.549910 0.971090 0.499970 -0.536799
O8    O     O_R   0.971090 0.450090 0.499970 -0.536801
O9    O     O_R   0.049910 0.528910 0.000030 -0.536802
O10   O     O_R   0.471090 0.049910 0.000030 -0.536799
O11   O     O_R   0.950090 0.471090 0.000030 -0.536801
O12   O     O_R   0.528910 0.950090 0.000030 -0.536802
O13   O     O_R   0.950090 0.528910 0.999970 -0.536802
O14   O     O_R   0.528910 0.049910 0.999970 -0.536800
O15   O     O_R   0.049910 0.471090 0.999970 -0.536801
O16   O     O_R   0.471090 0.950090 0.999970 -0.536801
O17   O     O_R   0.499990 0.028910 0.605810 -0.572111
O18   O     O_R   0.971090 0.499990 0.605810 -0.572109
O19   O     O_R   0.500010 0.971090 0.605810 -0.572109
O20   O     O_R   0.028910 0.500010 0.605810 -0.572110
O21   O     O_R   0.500010 0.028910 0.394190 -0.572110
O22   O     O_R   0.028910 0.499990 0.394190 -0.572110
O23   O     O_R   0.499990 0.971090 0.394190 -0.572109
O24   O     O_R   0.971090 0.500010 0.394190 -0.572109
O25   O     O_R   0.999990 0.528910 0.105810 -0.572110
O26   O     O_R   0.471090 0.999990 0.105810 -0.572110
O27   O     O_R   0.000010 0.471090 0.105810 -0.572109
O28   O     O_R   0.528910 0.000010 0.105810 -0.572110
O29   O     O_R   0.000010 0.528910 0.894190 -0.572110
O30   O     O_R   0.528910 0.999990 0.894190 -0.572111
O31   O     O_R   0.999990 0.471090 0.894190 -0.572110
O32   O     O_R   0.471090 0.000010 0.894190 -0.572109
O33   O     O_R   1.000000 0.950040 0.561110 -0.583323
O34   O     O_R   0.049960 0.000000 0.561110 -0.583323
O35   O     O_R   1.000000 0.049960 0.561110 -0.583323
O36   O     O_R   0.950040 0.000000 0.561110 -0.583323
O37   O     O_R   1.000000 0.950040 0.438890 -0.583323
O38   O     O_R   0.950040 0.000000 0.438890 -0.583322
O39   O     O_R   0.000000 0.049960 0.438890 -0.583322
O40   O     O_R   0.049960 0.000000 0.438890 -0.583322
O41   O     O_R   0.500000 0.450040 0.061110 -0.583322
O42   O     O_R   0.549960 0.500000 0.061110 -0.583323
O43   O     O_R   0.500000 0.549960 0.061110 -0.583323
O44   O     O_R   0.450040 0.500000 0.061110 -0.583323
O45   O     O_R   0.500000 0.450040 0.938890 -0.583322
O46   O     O_R   0.450040 0.500000 0.938890 -0.583322
O47   O     O_R   0.500000 0.549960 0.938890 -0.583322
O48   O     O_R   0.549960 0.500000 0.938890 -0.583323
C177  C     C_1   0.824480 0.986131 0.367582 0.314368
N1    N     N_1   0.810428 0.980143 0.313589 -0.213898
C178  C     C_1   0.013867 0.824480 0.367581 0.314367
N2    N     N_1   0.019854 0.810428 0.313588 -0.213897
C179  C     C_1   0.175520 0.013868 0.367582 0.314367
N3    N     N_1   0.189572 0.019856 0.313588 -0.213897
C180  C     C_1   0.986132 0.175520 0.367582 0.314367
N4    N     N_1   0.980144 0.189572 0.313588 -0.213897
C181  C     C_1   0.175520 0.986132 0.632418 0.314367
N5    N     N_1   0.189572 0.980144 0.686412 -0.213897
C182  C     C_1   0.986133 0.824480 0.632419 0.314367
N6    N     N_1   0.980146 0.810428 0.686412 -0.213897
C183  C     C_1   0.824480 0.013869 0.632418 0.314368
N7    N     N_1   0.810428 0.019857 0.686411 -0.213898
C184  C     C_1   0.013868 0.175520 0.632418 0.314366
N8    N     N_1   0.019856 0.189572 0.686411 -0.213897
C185  C     C_1   0.324480 0.486132 0.867581 0.314367
N9    N     N_1   0.310428 0.480145 0.813588 -0.213897
C186  C     C_1   0.513870 0.324480 0.867582 0.314367
N10   N     N_1   0.519858 0.310428 0.813590 -0.213898
C187  C     C_1   0.675520 0.513867 0.867581 0.314366
N11   N     N_1   0.689572 0.519854 0.813588 -0.213898
C188  C     C_1   0.486133 0.675520 0.867581 0.314367
N12   N     N_1   0.480146 0.689572 0.813588 -0.213898
C189  C     C_1   0.675520 0.486133 0.132419 0.314367
N13   N     N_1   0.689572 0.480146 0.186412 -0.213897
C190  C     C_1   0.486130 0.324480 0.132418 0.314368
N14   N     N_1   0.480142 0.310428 0.186410 -0.213898
C191  C     C_1   0.324480 0.513868 0.132418 0.314366
N15   N     N_1   0.310428 0.519855 0.186412 -0.213897
C192  C     C_1   0.513867 0.675520 0.132419 0.314367
N16   N     N_1   0.519854 0.689572 0.186412 -0.213898
F1    F     F_    0.784848 0.948110 0.569879 -0.625462
F2    F     F_    0.051891 0.784848 0.569875 -0.625462
F3    F     F_    0.215152 0.051891 0.569877 -0.625462
F4    F     F_    0.948109 0.215152 0.569877 -0.625462
F5    F     F_    0.215152 0.948109 0.430124 -0.625462
F6    F     F_    0.948109 0.784848 0.430125 -0.625462
F7    F     F_    0.784848 0.051890 0.430121 -0.625461
F8    F     F_    0.051891 0.215152 0.430123 -0.625462
F9    F     F_    0.284848 0.448109 0.069876 -0.625462
F10   F     F_    0.551890 0.284848 0.069880 -0.625462
F11   F     F_    0.715152 0.551891 0.069875 -0.625461
F12   F     F_    0.448109 0.715152 0.069875 -0.625462
F13   F     F_    0.715152 0.448109 0.930125 -0.625462
F14   F     F_    0.448110 0.284848 0.930120 -0.625462
F15   F     F_    0.284848 0.551891 0.930124 -0.625462
F16   F     F_    0.551891 0.715152 0.930125 -0.625462
C193  C     C_1   0.675616 0.945656 0.429040 0.406311
N17   N     N_1   0.689765 0.923705 0.399256 -0.207212
C194  C     C_1   0.054343 0.675616 0.429036 0.406311
N18   N     N_1   0.076293 0.689765 0.399251 -0.207212
C195  C     C_1   0.324384 0.054343 0.429037 0.406311
N19   N     N_1   0.310235 0.076294 0.399253 -0.207212
C196  C     C_1   0.945657 0.324384 0.429037 0.406311
N20   N     N_1   0.923706 0.310235 0.399252 -0.207212
C197  C     C_1   0.324384 0.945657 0.570963 0.406311
N21   N     N_1   0.310235 0.923706 0.600747 -0.207212
C198  C     C_1   0.945657 0.675616 0.570964 0.406311
N22   N     N_1   0.923707 0.689765 0.600749 -0.207212
C199  C     C_1   0.675616 0.054344 0.570960 0.406310
N23   N     N_1   0.689765 0.076295 0.600744 -0.207212
C200  C     C_1   0.054343 0.324384 0.570963 0.406311
N24   N     N_1   0.076294 0.310235 0.600747 -0.207212
C201  C     C_1   0.175616 0.445657 0.929037 0.406310
N25   N     N_1   0.189765 0.423706 0.899252 -0.207212
C202  C     C_1   0.554344 0.175616 0.929040 0.406311
N26   N     N_1   0.576295 0.189765 0.899257 -0.207212
C203  C     C_1   0.824384 0.554342 0.929036 0.406311
N27   N     N_1   0.810235 0.576293 0.899250 -0.207212
C204  C     C_1   0.445657 0.824384 0.929036 0.406310
N28   N     N_1   0.423707 0.810235 0.899250 -0.207212
C205  C     C_1   0.824384 0.445657 0.070964 0.406310
N29   N     N_1   0.810235 0.423707 0.100750 -0.207211
C206  C     C_1   0.445656 0.175616 0.070960 0.406311
N30   N     N_1   0.423705 0.189765 0.100743 -0.207212
C207  C     C_1   0.175616 0.554343 0.070963 0.406311
N31   N     N_1   0.189765 0.576294 0.100748 -0.207212
C208  C     C_1   0.554342 0.824384 0.070964 0.406311
N32   N     N_1   0.576293 0.810235 0.100750 -0.207212
F17   F     F_    0.604949 0.947352 0.432826 -0.618224
F18   F     F_    0.052646 0.604949 0.432823 -0.618226
F19   F     F_    0.395051 0.052647 0.432824 -0.618225
F20   F     F_    0.947353 0.395051 0.432824 -0.618225
F21   F     F_    0.395051 0.947353 0.567176 -0.618225
F22   F     F_    0.947353 0.604949 0.567177 -0.618225
F23   F     F_    0.604949 0.052647 0.567174 -0.618225
F24   F     F_    0.052647 0.395051 0.567176 -0.618225
F25   F     F_    0.104949 0.447353 0.932824 -0.618225
F26   F     F_    0.552648 0.104949 0.932827 -0.618225
F27   F     F_    0.895051 0.552646 0.932822 -0.618225
F28   F     F_    0.447354 0.895051 0.932822 -0.618225
F29   F     F_    0.895051 0.447354 0.067178 -0.618225
F30   F     F_    0.447352 0.104949 0.067173 -0.618224
F31   F     F_    0.104949 0.552647 0.067176 -0.618225
F32   F     F_    0.552646 0.895051 0.067178 -0.618225

loop_
_geom_bond_atom_site_label_1
_geom_bond_atom_site_label_2
_ccdc_geom_bond_type
C27   C195  S    
C23   C155  A    
C188  N12   T    
C14   C170  A    
C114  C178  S    
C42   C58   A    
C38   C70   A    
C203  N27   T    
C90   C95   T    
C25   C193  S    
C201  N25   T    
C77   O41   A    
Cu12  O48   S    
C50   F26   S    
C75   C140  S    
C103  C137  A    
C73   O37   A    
C98   C114  A    
C178  N2    T    
C154  C170  A    
C1    O1    A    
C52   F28   S    
C42   F18   S    
C158  C174  A    
C16   C72   S    
C172  H28   S    
C98   H2    S    
C88   O32   A    
C125  C135  A    
C105  H9    S    
C156  F12   S    
C35   C71   A    
C10   C162  A    
Cu8   O28   S    
C161  H17   S    
C17   C151  A    
C108  C124  A    
C102  H6    S    
C21   C133  S    
C153  F9    S    
C106  C142  A    
Cu5   Cu7   S    
C40   C208  S    
C147  F3    S    
C15   C173  A    
C196  N20   T    
C111  H15   S    
Cu9   O34   S    
Cu11  O41   S    
C104  C140  A    
C29   C45   A    
C13   C169  A    
C26   C66   A    
C81   O17   A    
C115  C179  S    
C35   C203  S    
C84   O24   A    
C74   O34   A    
C98   C138  A    
C37   C71   A    
C49   F25   S    
C18   C130  S    
C112  H16   S    
C107  C143  A    
C108  C144  A    
C83   C91   S    
C2    O6    A    
Cu1   O17   S    
C31   C65   A    
C83   O21   A    
C45   C59   A    
C41   F17   S    
C74   O40   A    
C169  H25   S    
C114  C130  A    
C110  H14   S    
C89   C96   T    
Cu6   O26   S    
C166  H22   S    
C91   C94   T    
C99   C115  A    
C149  F5    S    
C145  C161  A    
C151  C167  A    
Cu4   O4    S    
Cu5   O25   S    
C9    C65   S    
C54   F30   S    
C202  N26   T    
C198  N22   T    
C28   C196  S    
C126  C134  A    
C195  N19   T    
Cu3   O3    S    
C11   C165  A    
C21   C153  A    
C18   C150  A    
Cu3   O23   S    
C24   C156  A    
Cu1   O21   S    
Cu9   O36   S    
C101  C139  A    
C119  C183  S    
C76   C137  S    
C87   O31   A    
C12   C68   S    
C80   O46   A    
C28   C68   A    
C113  C177  S    
C75   O35   A    
C150  C166  A    
Cu6   O32   S    
C122  C134  A    
C85   C93   S    
Cu6   O10   S    
C120  C184  S    
Cu1   Cu3   S    
C87   C95   S    
C20   C148  A    
C174  H30   S    
C21   C159  A    
C36   C52   A    
C43   C59   A    
C38   C206  S    
C37   C53   A    
C24   C136  S    
C97   H1    S    
C6    O14   A    
C45   F21   S    
C181  N5    T    
C46   C58   A    
C85   O25   A    
C78   O42   A    
C99   C139  A    
C100  H4    S    
C48   F24   S    
C97   C137  A    
C145  F1    S    
C10   C66   S    
C148  C164  A    
C149  C165  A    
C164  H20   S    
C156  C172  A    
C123  C135  A    
C122  C186  S    
C189  N13   T    
C1    C57   S    
C47   C57   A    
C116  C132  A    
Cu10  O39   S    
C10   C166  A    
Cu8   O14   S    
C4    C60   S    
C11   C163  A    
C187  N11   T    
C39   C69   A    
C5    C61   S    
C9    C161  A    
C7    C63   S    
C8    C64   S    
C154  F10   S    
C37   C205  S    
C110  C126  A    
C6    O10   A    
C31   C199  S    
Cu7   O11   S    
C26   C42   A    
C87   O29   A    
C3    O3    A    
C40   C72   A    
C30   C46   A    
C75   O39   A    
C33   C69   A    
Cu12  O45   S    
C100  C116  A    
C81   C89   S    
C190  N14   T    
C147  C163  A    
C107  H11   S    
C53   C63   A    
C148  F4    S    
C13   C69   S    
C55   C61   A    
Cu4   O6    S    
C119  C129  A    
C157  F13   S    
Cu3   O7    S    
C117  C131  A    
Cu6   Cu8   S    
C27   C67   A    
C111  C141  A    
Cu1   O5    S    
C184  N8    T    
C85   O27   A    
C13   C175  A    
C84   C92   S    
Cu1   O1    S    
C97   C113  A    
C36   C72   A    
Cu7   O15   S    
C88   C96   S    
C79   O43   A    
C180  N4    T    
C80   O44   A    
C107  C123  A    
C26   C194  S    
C47   F23   S    
C7    O11   A    
C146  C162  A    
C20   C132  S    
C128  C136  A    
Cu9   O33   S    
C118  C182  S    
Cu4   O20   S    
Cu10  O37   S    
C33   C49   A    
C83   O23   A    
Cu11  O44   S    
C2    O2    A    
C191  N15   T    
Cu3   O19   S    
C29   C67   A    
C39   C55   A    
C40   C56   A    
C152  F8    S    
C182  N6    T    
C34   C70   A    
C106  H10   S    
C171  H27   S    
C16   C176  A    
C31   C47   A    
C177  N1    T    
C162  H18   S    
C32   C48   A    
C103  H7    S    
C152  C168  A    
C101  H5    S    
Cu2   O24   S    
C49   C61   A    
C124  C136  A    
Cu12  O47   S    
C51   C63   A    
C52   C64   A    
C208  N32   T    
C54   C62   A    
C19   C147  A    
C81   O19   A    
Cu8   O30   S    
C116  C180  S    
C17   C145  A    
C192  N16   T    
C185  N9    T    
C118  C130  A    
C127  C191  S    
C125  C189  S    
C204  N28   T    
C38   C54   A    
C150  F6    S    
C32   C200  S    
C30   C198  S    
C104  H8    S    
C15   C171  A    
C109  C143  A    
C121  C185  S    
C15   C71   S    
C73   O33   A    
C8    O16   A    
C159  F15   S    
Cu2   O18   S    
C128  C192  S    
C126  C190  S    
C27   C43   A    
C86   O28   A    
C127  C133  A    
Cu9   O35   S    
Cu2   Cu4   S    
C2    C58   S    
C170  H26   S    
Cu4   O22   S    
C22   C158  A    
C106  C122  A    
Cu11  O42   S    
C82   C90   S    
C23   C135  S    
C101  C117  A    
C6    C62   S    
C109  H13   S    
C46   F22   S    
C41   C57   A    
Cu11  Cu12  S    
C14   C174  A    
C99   H3    S    
C165  H21   S    
Cu9   Cu10  S    
C44   C60   A    
C163  H19   S    
C92   C93   T    
C77   O45   A    
C29   C197  S    
C4    O8    A    
C197  N21   T    
C123  C187  S    
Cu7   O31   S    
C112  C128  A    
C160  F16   S    
C194  N18   T    
Cu5   O13   S    
C20   C152  A    
C80   C141  S    
C176  H32   S    
C153  C169  A    
C157  C173  A    
C104  C120  A    
C206  N30   T    
C7    O13   A    
C44   F20   S    
C34   C202  S    
C199  N23   T    
C168  H24   S    
C200  N24   T    
C124  C188  S    
C115  C131  A    
C205  N29   T    
C113  C129  A    
C22   C134  S    
C158  F14   S    
C105  C141  A    
C12   C164  A    
C73   C138  S    
C23   C157  A    
C102  C138  A    
C110  C142  A    
C77   C142  S    
C117  C181  S    
C86   C94   S    
C19   C149  A    
C186  N10   T    
Cu10  O40   S    
C82   O20   A    
C28   C44   A    
C100  C140  A    
C3    O5    A    
Cu2   O8    S    
C102  C118  A    
C32   C68   A    
C1    O7    A    
C86   O26   A    
C159  C175  A    
C160  C176  A    
C33   C201  S    
C14   C70   S    
C76   O36   A    
C11   C67   S    
C48   C60   A    
C19   C131  S    
C155  F11   S    
C34   C50   A    
C17   C129  S    
C53   F29   S    
C9    C167  A    
C25   C65   A    
Cu8   O12   S    
Cu5   O9    S    
Cu7   O27   S    
C183  N7    T    
C4    O4    A    
C76   O38   A    
C39   C207  S    
Cu12  O46   S    
C78   O48   A    
C108  H12   S    
C16   C172  A    
C79   O47   A    
C79   C144  S    
C56   C64   A    
C179  N3    T    
C105  C121  A    
C30   C66   A    
C109  C125  A    
C111  C127  A    
C50   C62   A    
C5    O9    A    
C36   C204  S    
C51   F27   S    
C146  F2    S    
C173  H29   S    
C88   O30   A    
C22   C154  A    
C56   F32   S    
C120  C132  A    
C175  H31   S    
C103  C119  A    
C18   C146  A    
C12   C168  A    
C43   F19   S    
C24   C160  A    
C74   C139  S    
C151  F7    S    
C112  C144  A    
C167  H23   S    
Cu5   O29   S    
C78   C143  S    
C35   C51   A    
C8    O12   A    
Cu10  O38   S    
C82   O18   A    
Cu11  O43   S    
C193  N17   T    
C155  C171  A    
C25   C41   A    
C5    O15   A    
C55   F31   S    
Cu2   O2    S    
C84   O22   A    
C121  C133  A    
C207  N31   T    
Cu6   O16   S    
C3    C59   S    
