data_mof_unit_6930.cif
_audit_creation_date              2012-12-10T18:33:29-0500
_audit_creation_method            fapswitch 2.2
_symmetry_space_group_name_H-M    P1
_symmetry_Int_Tables_number       1
_space_group_crystal_system       triclinic
_cell_length_a                    8.719744
_cell_length_b                    15.117994
_cell_length_c                    13.962349
_cell_angle_alpha                 89.949571
_cell_angle_beta                  97.725044
_cell_angle_gamma                 91.283451
_cell_volume                      1823.42121218

loop_
_atom_site_label
_atom_site_type_symbol
_atom_type_description
_atom_site_fract_x
_atom_site_fract_y
_atom_site_fract_z
_atom_type_partial_charge
C1    C     C_R   0.499885 0.330047 0.499781 0.802950
C2    C     C_R   0.584596 0.563815 0.899320 -0.341980
C3    C     C_R   0.499310 0.500485 0.054703 0.098463
C4    C     C_R   0.499215 0.500621 0.945558 0.093824
C5    C     C_R   0.203976 0.499487 0.475279 0.884067
C6    C     C_R   0.795996 0.501339 0.524618 0.887075
C7    C     C_2   0.038089 0.496838 0.461729 -0.366522
C8    C     C_2   0.961777 0.505508 0.537653 -0.372506
C9    C     C_R   0.430623 0.092746 0.562905 -0.179629
C10   C     C_R   0.449614 0.904742 0.415005 -0.180533
C11   C     C_R   0.427614 0.184436 0.564065 -0.209414
C12   C     C_R   0.499822 0.670055 0.499887 0.803885
C13   C     C_R   0.445356 0.812816 0.415519 -0.216422
C14   C     C_R   0.502335 0.233575 0.498520 -0.053138
C15   C     C_R   0.501423 0.766797 0.499602 -0.056033
C16   C     C_R   0.578041 0.190121 0.430263 -0.274811
C17   C     C_R   0.560609 0.813706 0.583347 -0.260388
C18   C     C_R   0.583499 0.097747 0.429013 0.263089
C19   C     C_R   0.567266 0.906067 0.583550 0.257958
C20   C     C_R   0.509288 0.048823 0.496519 0.087955
C21   C     C_R   0.510610 0.951880 0.498377 0.087514
C22   C     C_3   0.813429 0.023034 0.396215 -0.704610
C23   C     C_R   0.614409 0.545988 0.117481 -0.340758
C24   C     C_3   0.784542 0.987364 0.670429 -0.704252
C25   C     C_3   0.708197 0.694652 0.264145 -0.672147
C26   C     C_3   0.157468 0.372277 0.736237 -0.717669
C27   C     C_3   0.292512 0.305529 0.230536 -0.687869
C28   C     C_3   0.851574 0.603464 0.781259 -0.696997
C29   C     C_R   0.414998 0.436850 0.885442 -0.334179
C30   C     C_R   0.609763 0.548290 0.218168 0.400369
C31   C     C_R   0.411252 0.439350 0.783919 0.408924
C32   C     C_R   0.389902 0.451964 0.199934 0.406950
C33   C     C_R   0.589524 0.560369 0.798627 0.411252
C34   C     C_R   0.384517 0.454694 0.098382 -0.342167
Cu1   Cu    Cu3+1 0.500000 0.499990 0.596430 0.976146
Cu2   Cu    Cu3+1 0.500000 0.500010 0.403570 0.971011
H1    H     H_    0.709032 0.580485 0.089988 0.140858
H2    H     H_    0.605245 0.778759 0.648165 0.147153
H3    H     H_    0.663127 0.090594 0.296288 0.244994
H4    H     H_    0.890368 0.078762 0.426301 0.220741
H5    H     H_    0.865498 0.991688 0.336695 0.225516
H6    H     H_    0.805241 0.972346 0.452864 0.243969
H7    H     H_    0.616517 0.917579 0.732252 0.243098
H8    H     H_    0.822858 0.020999 0.740510 0.225415
H9    H     H_    0.788848 0.036933 0.612215 0.244341
H10   H     H_    0.865431 0.933177 0.661182 0.219603
H11   H     H_    0.833313 0.580292 0.273544 0.223248
H12   H     H_    0.352183 0.383880 0.915937 0.146126
H13   H     H_    0.746070 0.714794 0.194282 0.194774
H14   H     H_    0.782543 0.729701 0.323689 0.229587
H15   H     H_    0.586721 0.714651 0.264850 0.237492
H16   H     H_    0.368284 0.313495 0.735078 0.228686
H17   H     H_    0.136845 0.332124 0.800161 0.202496
H18   H     H_    0.091711 0.341388 0.670691 0.235562
H19   H     H_    0.113933 0.439849 0.744819 0.225762
H20   H     H_    0.166410 0.420020 0.219003 0.225057
H21   H     H_    0.258327 0.285241 0.154034 0.197524
H22   H     H_    0.215513 0.270563 0.276068 0.224790
H23   H     H_    0.978674 0.486202 0.389040 0.163348
H24   H     H_    0.413433 0.285492 0.254241 0.240244
H25   H     H_    0.665639 0.685369 0.772947 0.215640
H26   H     H_    0.891118 0.619446 0.858441 0.201051
H27   H     H_    0.918757 0.645321 0.735624 0.221967
H28   H     H_    0.875282 0.532940 0.768076 0.238848
H29   H     H_    0.289653 0.420344 0.055103 0.141615
H30   H     H_    0.649749 0.616164 0.940020 0.139985
H31   H     H_    0.021360 0.517166 0.609917 0.172542
H32   H     H_    0.370347 0.055745 0.613502 0.150759
H33   H     H_    0.403373 0.939313 0.349829 0.151623
H34   H     H_    0.363606 0.216606 0.614511 0.147194
H35   H     H_    0.395740 0.777787 0.350707 0.147122
H36   H     H_    0.636023 0.228050 0.379257 0.142873
N1    N     N_R   0.500000 0.500020 0.258690 -0.199277
N2    N     N_R   0.500000 0.499980 0.741310 -0.200670
N3    N     N_2   0.661754 0.054987 0.359265 -0.441491
N4    N     N_2   0.628849 0.952022 0.669802 -0.440192
N5    N     N_2   0.722055 0.600127 0.277723 -0.375273
N6    N     N_2   0.320696 0.375159 0.726336 -0.374038
N7    N     N_2   0.277966 0.400089 0.241022 -0.374916
N8    N     N_2   0.688270 0.620790 0.757144 -0.375732
O1    O     O_R   0.500010 0.371450 0.581430 -0.575227
O2    O     O_R   0.499990 0.628550 0.418570 -0.568718
O3    O     O_R   0.500010 0.371460 0.418560 -0.569194
O4    O     O_R   0.499990 0.628540 0.581440 -0.572405
O5    O     O_R   0.274840 0.499990 0.562640 -0.553895
O6    O     O_R   0.725160 0.500010 0.437360 -0.563157
O7    O     O_R   0.274840 0.500000 0.399770 -0.577305
O8    O     O_R   0.725160 0.500000 0.600230 -0.569525

loop_
_geom_bond_atom_site_label_1
_geom_bond_atom_site_label_2
_ccdc_geom_bond_type
Cu1   N2    S    
C18   N3    S    
C3    C23   A    
Cu1   Cu2   S    
C16   H36   S    
C26   H19   S    
Cu1   O1    S    
C11   H34   S    
C7    C8    D    
C26   N6    S    
H20   N7    S    
C25   N5    S    
C24   H9    S    
C19   N4    S    
C19   C21   A    
C27   N7    S    
C27   H24   S    
C11   C14   A    
C22   H5    S    
Cu2   O3    S    
C1    O1    A    
C6    O8    A    
C12   O4    A    
C25   H14   S    
C30   N5    S    
Cu2   O2    S    
H3    N3    S    
C4    C29   A    
C5    O5    A    
C10   C21   A    
C22   N3    S    
H16   N6    S    
C26   H18   S    
C34   H29   S    
C7    H23   S    
Cu2   O7    S    
C29   H12   S    
C23   C30   A    
C27   H21   S    
C32   N1    A    
C5    C7    S    
C30   N1    A    
C24   N4    S    
C31   N2    A    
C6    C8    S    
C13   H35   S    
C3    C34   A    
Cu2   O6    S    
C23   H1    S    
C10   C13   A    
C32   C34   A    
C2    C4    A    
C25   H15   S    
Cu1   O8    S    
C9    C20   A    
C12   C15   S    
C22   H4    S    
C12   O2    A    
C9    C11   A    
C28   H28   S    
C2    C33   A    
C13   C15   A    
C24   H8    S    
C14   C16   A    
H11   N5    S    
C3    C4    S    
C26   H17   S    
C31   N6    S    
H7    N4    S    
C15   C17   A    
C2    H30   S    
C27   H22   S    
Cu1   O4    S    
C33   N8    S    
C1    O3    A    
C6    O6    A    
C24   H10   S    
C9    H32   S    
C29   C31   A    
C32   N7    S    
Cu1   O5    S    
C22   H6    S    
C17   C19   A    
C18   C20   A    
C17   H2    S    
C28   N8    S    
C25   H13   S    
Cu2   N1    S    
C5    O7    A    
C10   H33   S    
C33   N2    A    
C20   C21   S    
C8    H31   S    
C16   C18   A    
C28   H27   S    
C1    C14   S    
H25   N8    S    
C28   H26   S    
