data_mof_unit_29052.cif
_audit_creation_date              2013-03-05T15:57:24-0500
_audit_creation_method            fapswitch 2.2
_symmetry_space_group_name_H-M    P1
_symmetry_Int_Tables_number       1
_space_group_crystal_system       triclinic
_cell_length_a                    21.742729
_cell_length_b                    21.737429
_cell_length_c                    30.4664
_cell_angle_alpha                 89.46916
_cell_angle_beta                  90.127556
_cell_angle_gamma                 90.151005
_cell_volume                      14398.6630291

loop_
_atom_site_label
_atom_site_type_symbol
_atom_site_description
_atom_site_fract_x
_atom_site_fract_y
_atom_site_fract_z
_atom_type_partial_charge
O1    O     O_R   0.448270 0.091530 0.499990 -0.580157
O2    O     O_R   0.091530 0.551730 0.499990 -0.593272
O3    O     O_R   0.551730 0.908470 0.499990 -0.582024
O4    O     O_R   0.908470 0.448270 0.499990 -0.602993
O5    O     O_R   0.448270 0.908470 0.500010 -0.579657
O6    O     O_R   0.091530 0.448270 0.500010 -0.600985
O7    O     O_R   0.551730 0.091530 0.500010 -0.585725
O8    O     O_R   0.908470 0.551730 0.500010 -0.605578
O9    O     O_R   0.948270 0.591530 0.999990 -0.584998
O10   O     O_R   0.591530 0.051730 0.999990 -0.581627
O11   O     O_R   0.051730 0.408470 0.999990 -0.593901
O12   O     O_R   0.408470 0.948270 0.999990 -0.578827
O13   O     O_R   0.948270 0.408470 0.000010 -0.604024
O14   O     O_R   0.591530 0.948270 0.000010 -0.591967
O15   O     O_R   0.051730 0.591530 0.000010 -0.593961
O16   O     O_R   0.408470 0.051730 0.000010 -0.593957
C1    C     C_R   0.500208 0.120049 0.500073 0.955383
C2    C     C_R   0.119726 0.500008 0.500119 0.996751
C3    C     C_R   0.500026 0.879954 0.500195 0.939530
C4    C     C_R   0.880280 0.499905 0.500115 0.989887
C5    C     C_R   0.000228 0.619644 0.999818 0.946918
C6    C     C_R   0.619963 0.000442 0.000526 0.947864
C7    C     C_R   0.999878 0.380312 0.999846 0.997757
C8    C     C_R   0.380026 0.999939 0.000109 0.996486
O17   O     O_R   0.448270 0.999890 0.566070 -0.617370
O18   O     O_R   0.999890 0.551730 0.566070 -0.603617
O19   O     O_R   0.551730 0.000110 0.566070 -0.635354
O20   O     O_R   0.000110 0.448270 0.566070 -0.603468
O21   O     O_R   0.448270 0.000110 0.433930 -0.630310
O22   O     O_R   0.999890 0.448270 0.433930 -0.598909
O23   O     O_R   0.551730 0.999890 0.433930 -0.628841
O24   O     O_R   0.000110 0.551730 0.433930 -0.605663
O25   O     O_R   0.948270 0.499890 0.066070 -0.608985
O26   O     O_R   0.499890 0.051730 0.066070 -0.637297
O27   O     O_R   0.051730 0.500110 0.066070 -0.602225
O28   O     O_R   0.500110 0.948270 0.066070 -0.622936
O29   O     O_R   0.948270 0.500110 0.933930 -0.615159
O30   O     O_R   0.499890 0.948270 0.933930 -0.616165
O31   O     O_R   0.051730 0.499890 0.933930 -0.612716
O32   O     O_R   0.500110 0.051730 0.933930 -0.596706
C9    C     C_R   0.500937 0.186356 0.500789 -0.285389
C10   C     C_R   0.185486 0.500099 0.500039 -0.318239
C11   C     C_R   0.500414 0.813655 0.499882 -0.290500
C12   C     C_R   0.814505 0.499664 0.500123 -0.311016
C13   C     C_R   0.001065 0.685278 0.999948 -0.299484
C14   C     C_R   0.686087 0.002408 0.999430 -0.312745
C15   C     C_R   0.999679 0.314600 0.999845 -0.313725
C16   C     C_R   0.313822 0.999814 0.000021 -0.284735
C17   C     C_R   0.499989 0.000320 0.586502 0.918410
C18   C     C_R   0.000933 0.499577 0.586846 0.945776
C19   C     C_R   0.499999 0.000305 0.413397 0.901200
C20   C     C_R   0.999085 0.500500 0.413212 0.959481
C21   C     C_R   0.000252 0.499742 0.086762 0.923293
C22   C     C_R   0.499735 0.000017 0.086612 0.915709
C23   C     C_R   0.999938 0.498526 0.913306 0.941499
C24   C     C_R   0.499438 0.000021 0.913248 0.935240
Zn1   Zn    Zn3+2 0.430930 1.000000 0.500000 1.048490
Zn2   Zn    Zn3+2 1.000000 0.569070 0.500000 1.048672
Zn3   Zn    Zn3+2 0.569070 1.000000 0.500000 1.044724
Zn4   Zn    Zn3+2 1.000000 0.430930 0.500000 1.057765
Zn5   Zn    Zn3+2 0.930930 0.500000 0.000000 1.042284
Zn6   Zn    Zn3+2 0.500000 0.069070 0.000000 1.057301
Zn7   Zn    Zn3+2 0.069070 0.500000 0.000000 1.055052
Zn8   Zn    Zn3+2 0.500000 0.930930 0.000000 1.043116
C25   C     C_R   0.549546 0.282536 0.480081 -0.147502
C26   C     C_R   0.280426 0.471830 0.465053 -0.126022
C27   C     C_R   0.454269 0.718061 0.476421 -0.153430
C28   C     C_R   0.719366 0.530738 0.465719 -0.127422
C29   C     C_R   0.549138 0.717788 0.520646 -0.152088
C30   C     C_R   0.280801 0.533365 0.533052 -0.130434
C31   C     C_R   0.451877 0.281656 0.520862 -0.158306
C32   C     C_R   0.719345 0.468285 0.534485 -0.126259
C33   C     C_R   0.032605 0.780976 0.965891 -0.146435
C34   C     C_R   0.781319 0.960851 0.972918 -0.145785
C35   C     C_R   0.969550 0.219730 0.965517 -0.132151
C36   C     C_R   0.218252 0.041840 0.972712 -0.160712
C37   C     C_R   0.032645 0.219207 0.033316 -0.134223
C38   C     C_R   0.782069 0.049013 0.022646 -0.138249
C39   C     C_R   0.967969 0.779787 0.032970 -0.130632
C40   C     C_R   0.218096 0.955811 0.025793 -0.157658
C41   C     C_R   0.500625 0.313844 0.500412 -0.209926
C42   C     C_R   0.313043 0.502286 0.499210 -0.181058
C43   C     C_R   0.501286 0.686116 0.498967 -0.215971
C44   C     C_R   0.686951 0.499614 0.500111 -0.170762
C45   C     C_R   0.000293 0.812831 0.999640 -0.211026
C46   C     C_R   0.813623 0.003148 0.999231 -0.214782
C47   C     C_R   0.001183 0.187079 0.999414 -0.188724
C48   C     C_R   0.186411 0.999602 0.999910 -0.204432
C49   C     C_R   0.379769 0.500678 0.499830 0.898896
C50   C     C_R   0.500447 0.619898 0.499737 0.897927
C51   C     C_R   0.620234 0.499876 0.500046 0.894528
C52   C     C_R   0.500275 0.380102 0.500147 0.903761
C53   C     C_R   0.880039 0.001632 0.999848 0.896736
C54   C     C_R   0.000491 0.120260 0.999810 0.887985
C55   C     C_R   0.119980 0.999704 0.999989 0.906602
C56   C     C_R   0.000215 0.879690 0.000015 0.911896
C57   C     C_R   0.539311 0.039275 0.841864 -0.080152
C58   C     C_R   0.044732 0.458062 0.843647 -0.073044
C59   C     C_R   0.463757 0.954856 0.842983 -0.068731
C60   C     C_R   0.951628 0.522232 0.841792 -0.057548
C61   C     C_R   0.544886 0.968974 0.157751 -0.072206
C62   C     C_R   0.050046 0.527473 0.157873 -0.076406
C63   C     C_R   0.454951 0.036145 0.156723 -0.069933
C64   C     C_R   0.953833 0.468053 0.157910 -0.067699
C65   C     C_R   0.026065 0.551874 0.342139 -0.073111
C66   C     C_R   0.533043 0.955298 0.342954 -0.070618
C67   C     C_R   0.963833 0.457376 0.342105 -0.070251
C68   C     C_R   0.467833 0.047113 0.342742 -0.070615
C69   C     C_R   0.034148 0.450107 0.657390 -0.071466
C70   C     C_R   0.534766 0.042522 0.657075 -0.070883
C71   C     C_R   0.968859 0.541734 0.659136 -0.074539
C72   C     C_R   0.466472 0.952943 0.656517 -0.071877
C73   C     C_R   0.500328 0.998726 0.864997 -0.117778
C74   C     C_R   0.999009 0.492792 0.865326 -0.107955
C75   C     C_R   0.499281 0.000909 0.134491 -0.114704
C76   C     C_R   0.001343 0.498440 0.134914 -0.101923
C77   C     C_R   0.996415 0.502984 0.364951 -0.103998
C78   C     C_R   0.500167 0.000836 0.365456 -0.123462
C79   C     C_R   0.002129 0.497773 0.635125 -0.095404
C80   C     C_R   0.499917 0.998962 0.634232 -0.118595
C81   C     C_R   0.466055 0.951104 0.796465 0.016777
C82   C     C_R   0.948956 0.516627 0.795956 0.011365
C83   C     C_R   0.544723 0.034419 0.795641 0.018364
C84   C     C_R   0.043105 0.452811 0.797081 0.015957
C85   C     C_R   0.458734 0.041820 0.203122 0.012829
C86   C     C_R   0.957854 0.462390 0.203823 0.011785
C87   C     C_R   0.538863 0.961782 0.203595 0.016133
C88   C     C_R   0.044487 0.536392 0.203715 0.018747
C89   C     C_R   0.957199 0.462701 0.296276 0.015839
C90   C     C_R   0.461620 0.043493 0.296468 0.018498
C91   C     C_R   0.029575 0.550852 0.295719 0.012563
C92   C     C_R   0.537698 0.958555 0.296517 0.017539
C93   C     C_R   0.958906 0.531238 0.704424 0.015110
C94   C     C_R   0.463401 0.953847 0.703030 0.017971
C95   C     C_R   0.039953 0.452235 0.703569 0.010363
C96   C     C_R   0.542684 0.035300 0.702821 0.012670
C97   C     C_R   0.504807 0.993075 0.772875 0.019838
C98   C     C_R   0.996758 0.485839 0.773480 0.018864
C99   C     C_R   0.498737 0.001464 0.226724 0.011966
C100  C     C_R   0.998765 0.501919 0.226778 0.020935
C101  C     C_R   0.995370 0.505100 0.272974 0.020793
C102  C     C_R   0.499235 0.001084 0.273256 0.012623
C103  C     C_R   0.998328 0.489325 0.727140 0.019911
C104  C     C_R   0.503779 0.993819 0.726289 0.012521
C105  C     C_R   0.429335 0.908306 0.772568 -0.067907
C106  C     C_R   0.900433 0.543853 0.771820 -0.062820
C107  C     C_R   0.590061 0.067984 0.771410 -0.072587
C108  C     C_R   0.086786 0.417643 0.772941 -0.070252
C109  C     C_R   0.422240 0.084600 0.226615 -0.067425
C110  C     C_R   0.919640 0.420772 0.227352 -0.065899
C111  C     C_R   0.574155 0.917433 0.226591 -0.063243
C112  C     C_R   0.080980 0.579864 0.227103 -0.059852
C113  C     C_R   0.916191 0.424019 0.273002 -0.064939
C114  C     C_R   0.420485 0.082382 0.272718 -0.064355
C115  C     C_R   0.067889 0.592023 0.271290 -0.066135
C116  C     C_R   0.577395 0.918863 0.272546 -0.066699
C117  C     C_R   0.909014 0.558150 0.727337 -0.062500
C118  C     C_R   0.423428 0.914102 0.726850 -0.062717
C119  C     C_R   0.085075 0.417664 0.726691 -0.067187
C120  C     C_R   0.589604 0.067315 0.725364 -0.066457
O33   O     O_R   0.408290 0.499920 0.462700 -0.621620
O34   O     O_R   0.499920 0.591710 0.462700 -0.636065
O35   O     O_R   0.591710 0.500080 0.462700 -0.620441
O36   O     O_R   0.500080 0.408290 0.462700 -0.638421
O37   O     O_R   0.408290 0.500080 0.537300 -0.613942
O38   O     O_R   0.499920 0.408290 0.537300 -0.635096
O39   O     O_R   0.591710 0.499920 0.537300 -0.620698
O40   O     O_R   0.500080 0.591710 0.537300 -0.636474
O41   O     O_R   0.908290 0.999920 0.962700 -0.628020
O42   O     O_R   0.999920 0.091710 0.962700 -0.614853
O43   O     O_R   0.091710 0.000080 0.962700 -0.612759
O44   O     O_R   0.000080 0.908290 0.962700 -0.628997
O45   O     O_R   0.908290 0.000080 0.037300 -0.629322
O46   O     O_R   0.999920 0.908290 0.037300 -0.623271
O47   O     O_R   0.091710 0.999920 0.037300 -0.633445
O48   O     O_R   0.000080 0.091710 0.037300 -0.617559
C121  C     C_R   0.549505 0.218567 0.480134 0.262753
C122  C     C_R   0.216848 0.465404 0.468583 0.201666
C123  C     C_R   0.453150 0.782083 0.477776 0.262655
C124  C     C_R   0.783284 0.534665 0.468355 0.208297
C125  C     C_R   0.548890 0.781733 0.520762 0.264059
C126  C     C_R   0.216806 0.536258 0.530811 0.213600
C127  C     C_R   0.452328 0.217691 0.521311 0.266250
C128  C     C_R   0.783316 0.464417 0.531824 0.205071
C129  C     C_R   0.033847 0.716792 0.967184 0.237761
C130  C     C_R   0.717607 0.958123 0.975044 0.230280
C131  C     C_R   0.964586 0.283453 0.968312 0.205786
C132  C     C_R   0.282138 0.043995 0.974469 0.238266
C133  C     C_R   0.035356 0.283224 0.031185 0.218136
C134  C     C_R   0.717943 0.049559 0.021750 0.262287
C135  C     C_R   0.968993 0.715802 0.032859 0.239337
C136  C     C_R   0.282145 0.954520 0.024582 0.249339
Zn9   Zn    Zn3+2 0.500000 0.500000 0.450200 0.935829
Zn10  Zn    Zn3+2 0.500000 0.500000 0.549800 0.935101
Zn11  Zn    Zn3+2 1.000000 0.000000 0.950200 0.960393
Zn12  Zn    Zn3+2 0.000000 1.000000 0.049800 0.933970
C137  C     C_R   0.401228 0.852416 0.792953 0.138939
C138  C     C_R   0.437633 0.799937 0.799966 -0.188155
C139  C     C_R   0.410976 0.745426 0.815645 -0.161021
C140  C     C_R   0.347769 0.742642 0.823748 -0.109435
C141  C     C_R   0.311031 0.794293 0.816072 -0.125108
C142  C     C_R   0.337480 0.848992 0.800648 -0.109939
H1    H     H_    0.486472 0.801316 0.793106 0.135315
H2    H     H_    0.439267 0.705219 0.821255 0.130799
H3    H     H_    0.327195 0.700337 0.835718 0.129798
H4    H     H_    0.261998 0.791808 0.821757 0.133151
H5    H     H_    0.308459 0.888518 0.794327 0.121913
C143  C     C_R   0.837079 0.547365 0.790551 0.129609
C144  C     C_R   0.804390 0.492692 0.798882 -0.165787
C145  C     C_R   0.743915 0.494855 0.814264 -0.155567
C146  C     C_R   0.715569 0.551527 0.821318 -0.130982
C147  C     C_R   0.747684 0.606176 0.813124 -0.126728
C148  C     C_R   0.808206 0.604263 0.797865 -0.097694
H6    H     H_    0.825630 0.448501 0.793083 0.146662
H7    H     H_    0.718942 0.452570 0.820572 0.136256
H8    H     H_    0.668742 0.553088 0.833212 0.126335
H9    H     H_    0.725824 0.650039 0.818836 0.135462
H10   H     H_    0.832852 0.646937 0.792408 0.130667
C149  C     C_R   0.644205 0.097429 0.792493 0.152336
C150  C     C_R   0.646573 0.161621 0.797466 -0.141350
C151  C     C_R   0.699652 0.189664 0.813714 -0.119801
C152  C     C_R   0.750925 0.154012 0.824410 -0.102832
C153  C     C_R   0.749270 0.090209 0.818758 -0.163564
C154  C     C_R   0.696128 0.061918 0.802810 -0.142900
H11   H     H_    0.607319 0.189723 0.788640 0.111321
H12   H     H_    0.701136 0.239046 0.817803 0.130084
H13   H     H_    0.791878 0.176164 0.836780 0.157064
H14   H     H_    0.789158 0.062505 0.826256 0.116307
H15   H     H_    0.695549 0.012616 0.797987 0.130826
C155  C     C_R   0.135662 0.379292 0.793934 0.155328
C156  C     C_R   0.196028 0.402272 0.797386 -0.119853
C157  C     C_R   0.243457 0.364513 0.812726 -0.127691
C158  C     C_R   0.231380 0.303190 0.823722 -0.082913
C159  C     C_R   0.171924 0.279566 0.819250 -0.141674
C160  C     C_R   0.124046 0.317319 0.804466 -0.180732
H16   H     H_    0.206141 0.449427 0.788092 0.112730
H17   H     H_    0.289662 0.382648 0.815681 0.120809
H18   H     H_    0.268221 0.273759 0.835236 0.140449
H19   H     H_    0.163339 0.231738 0.826605 0.138165
H20   H     H_    0.078338 0.298211 0.800491 0.118680
C161  C     C_R   0.390991 0.137461 0.204545 0.138734
C162  C     C_R   0.425767 0.188759 0.191078 -0.185007
C163  C     C_R   0.396612 0.240203 0.172716 -0.164937
C164  C     C_R   0.332633 0.241000 0.168043 -0.106923
C165  C     C_R   0.297608 0.190470 0.181890 -0.111935
C166  C     C_R   0.326523 0.138975 0.200289 -0.113888
H21   H     H_    0.475295 0.188838 0.194931 0.136333
H22   H     H_    0.423618 0.279509 0.162177 0.134217
H23   H     H_    0.310188 0.280830 0.153771 0.138010
H24   H     H_    0.248065 0.191180 0.178364 0.141487
H25   H     H_    0.298899 0.100251 0.211180 0.122728
C167  C     C_R   0.890621 0.366279 0.206364 0.131202
C168  C     C_R   0.826496 0.363068 0.200204 -0.107217
C169  C     C_R   0.799200 0.308760 0.185510 -0.117305
C170  C     C_R   0.835396 0.257037 0.177732 -0.105626
C171  C     C_R   0.899043 0.259819 0.184069 -0.186805
C172  C     C_R   0.926727 0.314350 0.197901 -0.171674
H26   H     H_    0.797811 0.402322 0.207400 0.129842
H27   H     H_    0.749901 0.306497 0.180820 0.134630
H28   H     H_    0.814037 0.214680 0.167111 0.149527
H29   H     H_    0.926946 0.219499 0.178891 0.122516
H30   H     H_    0.975936 0.315563 0.203460 0.142777
C173  C     C_R   0.600730 0.863541 0.203305 0.134116
C174  C     C_R   0.561063 0.818831 0.185894 -0.173766
C175  C     C_R   0.584978 0.767056 0.165150 -0.158710
C176  C     C_R   0.648576 0.759300 0.161911 -0.117704
C177  C     C_R   0.688390 0.803393 0.179281 -0.135848
C178  C     C_R   0.664750 0.855584 0.199638 -0.107218
H31   H     H_    0.511692 0.824082 0.188540 0.142556
H32   H     H_    0.554188 0.732814 0.151731 0.136990
H33   H     H_    0.667020 0.719073 0.145992 0.134715
H34   H     H_    0.737561 0.797039 0.176987 0.134606
H35   H     H_    0.696142 0.889699 0.212531 0.129004
C179  C     C_R   0.133023 0.615221 0.207383 0.145463
C180  C     C_R   0.192978 0.591548 0.210598 -0.160641
C181  C     C_R   0.243275 0.626944 0.196960 -0.137256
C182  C     C_R   0.234327 0.686859 0.181321 -0.086804
C183  C     C_R   0.175077 0.711417 0.179252 -0.136260
C184  C     C_R   0.124414 0.675759 0.191932 -0.140799
H36   H     H_    0.200600 0.545851 0.223968 0.117579
H37   H     H_    0.289265 0.608237 0.199129 0.122303
H38   H     H_    0.273382 0.714552 0.171328 0.136152
H39   H     H_    0.168644 0.758421 0.168468 0.139542
H40   H     H_    0.078767 0.695514 0.190657 0.141669
C185  C     C_R   0.862441 0.393575 0.294326 0.134455
C186  C     C_R   0.860773 0.329338 0.300685 -0.108715
C187  C     C_R   0.807007 0.300605 0.315408 -0.117001
C188  C     C_R   0.754202 0.335415 0.322759 -0.102103
C189  C     C_R   0.755398 0.399094 0.315983 -0.190819
C190  C     C_R   0.809459 0.428272 0.302416 -0.173539
H41   H     H_    0.900787 0.301664 0.293560 0.129866
H42   H     H_    0.805962 0.251246 0.320311 0.135119
H43   H     H_    0.712204 0.312954 0.333273 0.149646
H44   H     H_    0.714183 0.425872 0.320438 0.123944
H45   H     H_    0.809411 0.477487 0.296511 0.142175
C191  C     C_R   0.369259 0.115627 0.294591 0.141981
C192  C     C_R   0.316992 0.082768 0.308440 -0.185472
C193  C     C_R   0.266951 0.113842 0.326492 -0.164490
C194  C     C_R   0.268509 0.177854 0.330463 -0.106240
C195  C     C_R   0.320035 0.210990 0.316284 -0.117442
C196  C     C_R   0.370188 0.180140 0.298273 -0.109067
H46   H     H_    0.315041 0.033246 0.305080 0.137182
H47   H     H_    0.226884 0.088301 0.337304 0.135765
H48   H     H_    0.229749 0.201788 0.344476 0.142666
H49   H     H_    0.321173 0.260557 0.319307 0.138825
H50   H     H_    0.409738 0.206315 0.287193 0.123882
C197  C     C_R   0.092632 0.650795 0.289241 0.144495
C198  C     C_R   0.056110 0.703974 0.287652 -0.175112
C199  C     C_R   0.080034 0.760307 0.301561 -0.153240
C200  C     C_R   0.140716 0.764099 0.316567 -0.097835
C201  C     C_R   0.177773 0.711678 0.317391 -0.115632
C202  C     C_R   0.154115 0.655289 0.303448 -0.121109
H51   H     H_    0.009260 0.701651 0.275625 0.135634
H52   H     H_    0.051574 0.801064 0.300591 0.127702
H53   H     H_    0.159123 0.807740 0.327344 0.128864
H54   H     H_    0.224888 0.714795 0.328689 0.136888
H55   H     H_    0.183360 0.615039 0.303946 0.112000
C203  C     C_R   0.628557 0.883883 0.293531 0.141601
C204  C     C_R   0.682596 0.914958 0.305692 -0.188825
C205  C     C_R   0.732705 0.882128 0.322581 -0.165532
C206  C     C_R   0.729471 0.818124 0.326977 -0.104073
C207  C     C_R   0.676221 0.786754 0.314335 -0.117980
C208  C     C_R   0.625989 0.819356 0.297482 -0.114628
H56   H     H_    0.685848 0.964449 0.301923 0.135423
H57   H     H_    0.774124 0.906296 0.332139 0.135633
H58   H     H_    0.768293 0.792818 0.340072 0.143448
H59   H     H_    0.673876 0.737191 0.317566 0.138773
H60   H     H_    0.585190 0.794526 0.287354 0.123676
C209  C     C_R   0.859742 0.594130 0.705492 0.140274
C210  C     C_R   0.861993 0.658788 0.705621 -0.161042
C211  C     C_R   0.811005 0.692988 0.691899 -0.129100
C212  C     C_R   0.756712 0.662924 0.679982 -0.092653
C213  C     C_R   0.753872 0.598701 0.681093 -0.172624
C214  C     C_R   0.805564 0.564307 0.692525 -0.141650
H61   H     H_    0.902690 0.682445 0.717251 0.125628
H62   H     H_    0.812997 0.742734 0.691771 0.132752
H63   H     H_    0.716558 0.689345 0.670666 0.147064
H64   H     H_    0.711312 0.575258 0.674229 0.122879
H65   H     H_    0.802348 0.514611 0.694088 0.139921
C215  C     C_R   0.369207 0.883805 0.706033 0.140449
C216  C     C_R   0.316443 0.918697 0.696674 -0.184391
C217  C     C_R   0.263775 0.890276 0.679833 -0.165150
C218  C     C_R   0.263206 0.826853 0.672624 -0.109281
C219  C     C_R   0.315257 0.791648 0.682313 -0.117708
C220  C     C_R   0.368045 0.819851 0.699062 -0.107259
H66   H     H_    0.316139 0.967739 0.702614 0.137454
H67   H     H_    0.223312 0.917404 0.672503 0.135431
H68   H     H_    0.222395 0.804973 0.659583 0.140684
H69   H     H_    0.314756 0.742535 0.676784 0.142862
H70   H     H_    0.407995 0.792048 0.706615 0.126562
C221  C     C_R   0.137971 0.388836 0.703866 0.144827
C222  C     C_R   0.141112 0.324555 0.699543 -0.114113
C223  C     C_R   0.195056 0.297016 0.684661 -0.112321
C224  C     C_R   0.246616 0.333201 0.675268 -0.093210
C225  C     C_R   0.243831 0.397069 0.679890 -0.180760
C226  C     C_R   0.189445 0.424996 0.693326 -0.167455
H71   H     H_    0.102231 0.295949 0.708594 0.117743
H72   H     H_    0.197344 0.247544 0.681422 0.130683
H73   H     H_    0.288891 0.311652 0.664895 0.142352
H74   H     H_    0.284069 0.425066 0.673985 0.119839
H75   H     H_    0.188341 0.474371 0.697735 0.138319
C227  C     C_R   0.645252 0.090636 0.701804 0.144799
C228  C     C_R   0.689748 0.048779 0.687349 -0.163315
C229  C     C_R   0.743800 0.070135 0.667565 -0.154775
C230  C     C_R   0.753966 0.133309 0.662354 -0.114916
C231  C     C_R   0.710096 0.175285 0.676903 -0.117797
C232  C     C_R   0.655910 0.154146 0.696569 -0.118961
H76   H     H_    0.682639 0.999769 0.691687 0.137279
H77   H     H_    0.777910 0.037704 0.656399 0.136557
H78   H     H_    0.795831 0.149733 0.647029 0.134940
H79   H     H_    0.717906 0.224184 0.672744 0.143733
H80   H     H_    0.622034 0.187076 0.707376 0.116028
N1    N     N_R   0.598008 0.186747 0.457751 0.225988
O49   O     O_R   0.601860 0.190516 0.415235 -0.426131
O50   O     O_R   0.645363 0.167017 0.479852 -0.414860
N2    N     N_R   0.184796 0.423573 0.439894 0.214520
O51   O     O_R   0.205044 0.367789 0.434942 -0.418429
O52   O     O_R   0.137550 0.441505 0.416969 -0.440474
N3    N     N_R   0.404487 0.814850 0.455648 0.225106
O53   O     O_R   0.356916 0.832945 0.477859 -0.414268
O54   O     O_R   0.401065 0.814184 0.413051 -0.424295
N4    N     N_R   0.816439 0.573912 0.438181 0.213293
O55   O     O_R   0.801759 0.631696 0.434229 -0.412128
O56   O     O_R   0.858412 0.551365 0.412636 -0.458351
N5    N     N_R   0.597285 0.813869 0.543311 0.226116
O57   O     O_R   0.645135 0.832998 0.521491 -0.411856
O58   O     O_R   0.600133 0.811478 0.585969 -0.431920
N6    N     N_R   0.183773 0.575576 0.560343 0.214941
O59   O     O_R   0.142540 0.552919 0.586838 -0.458046
O60   O     O_R   0.197633 0.633740 0.562536 -0.404978
N7    N     N_R   0.403967 0.184763 0.543588 0.224969
O61   O     O_R   0.350349 0.178740 0.525097 -0.420113
O62   O     O_R   0.415648 0.154398 0.579582 -0.413645
N8    N     N_R   0.816527 0.425006 0.561865 0.213276
O63   O     O_R   0.800952 0.367434 0.566205 -0.411241
O64   O     O_R   0.859401 0.447252 0.587017 -0.454843
N9    N     N_R   0.068576 0.683388 0.935046 0.205149
O65   O     O_R   0.055828 0.689856 0.893565 -0.443377
O66   O     O_R   0.120682 0.658405 0.946242 -0.406248
N10   N     N_R   0.685318 0.910646 0.951619 0.222818
O67   O     O_R   0.697519 0.853057 0.959647 -0.406246
O68   O     O_R   0.647428 0.924747 0.920022 -0.436219
N11   N     N_R   0.923743 0.316051 0.938912 0.212695
O69   O     O_R   0.867002 0.297899 0.934502 -0.418556
O70   O     O_R   0.943571 0.361553 0.914790 -0.447364
N12   N     N_R   0.314506 0.089640 0.948895 0.220914
O71   O     O_R   0.304039 0.147806 0.955084 -0.413152
O72   O     O_R   0.353840 0.073411 0.919107 -0.432623
N13   N     N_R   0.073864 0.316317 0.061492 0.214089
O73   O     O_R   0.132071 0.303211 0.064695 -0.401141
O74   O     O_R   0.050390 0.356996 0.087585 -0.459876
N14   N     N_R   0.685606 0.098086 0.043680 0.225083
O75   O     O_R   0.689563 0.103027 0.086076 -0.417788
O76   O     O_R   0.665548 0.144877 0.020945 -0.414855
N15   N     N_R   0.939121 0.681589 0.067439 0.201155
O77   O     O_R   0.960118 0.684705 0.107371 -0.449979
O78   O     O_R   0.885415 0.656915 0.060594 -0.386174
N16   N     N_R   0.314751 0.907068 0.048275 0.221639
O79   O     O_R   0.313148 0.850637 0.034517 -0.422264
O80   O     O_R   0.352127 0.921112 0.079995 -0.419044
C233  C     C_R   0.603459 0.315400 0.461145 0.139921
C234  C     C_R   0.661021 0.310935 0.481926 -0.110036
C235  C     C_R   0.711711 0.342616 0.465083 -0.130487
C236  C     C_R   0.705732 0.377967 0.426862 -0.134180
C237  C     C_R   0.649125 0.380832 0.405088 -0.136677
C238  C     C_R   0.598534 0.348448 0.421528 -0.050441
H81   H     H_    0.666243 0.284222 0.511864 0.147050
H82   H     H_    0.755304 0.340330 0.482112 0.168059
H83   H     H_    0.745050 0.402811 0.414146 0.131149
H84   H     H_    0.644111 0.408142 0.375519 0.118165
H85   H     H_    0.555442 0.349785 0.403676 0.121077
C239  C     C_R   0.309261 0.451013 0.423188 0.214173
C240  C     C_R   0.352341 0.402923 0.422067 -0.038061
C241  C     C_R   0.377456 0.384078 0.382191 -0.148775
C242  C     C_R   0.358982 0.412178 0.342948 -0.139589
C243  C     C_R   0.315694 0.459505 0.343542 -0.148954
C244  C     C_R   0.290911 0.478791 0.383382 -0.095762
H86   H     H_    0.368345 0.381828 0.452002 0.104763
H87   H     H_    0.411658 0.348061 0.381696 0.116958
H88   H     H_    0.378354 0.397402 0.312109 0.123130
H89   H     H_    0.301287 0.481270 0.313132 0.121804
H90   H     H_    0.257099 0.515236 0.383249 0.106124
C245  C     C_R   0.404006 0.686280 0.452478 0.143088
C246  C     C_R   0.343464 0.691478 0.467690 -0.102629
C247  C     C_R   0.294542 0.670623 0.442365 -0.104201
C248  C     C_R   0.305390 0.643174 0.401812 -0.143825
C249  C     C_R   0.365529 0.637012 0.386532 -0.131201
C250  C     C_R   0.414674 0.659459 0.411375 -0.044214
H91   H     H_    0.333976 0.713797 0.498565 0.145491
H92   H     H_    0.248432 0.677596 0.454152 0.138526
H93   H     H_    0.267348 0.627686 0.381817 0.116067
H94   H     H_    0.373923 0.616302 0.354943 0.118680
H95   H     H_    0.460712 0.656959 0.398153 0.110976
C251  C     C_R   0.689355 0.556791 0.425221 0.205517
C252  C     C_R   0.644215 0.602852 0.427295 -0.051372
C253  C     C_R   0.616970 0.625999 0.388994 -0.142004
C254  C     C_R   0.635779 0.604971 0.348047 -0.143928
C255  C     C_R   0.681471 0.560221 0.345357 -0.153098
C256  C     C_R   0.707973 0.536138 0.383632 -0.098357
H96   H     H_    0.627923 0.618605 0.458492 0.106085
H97   H     H_    0.580739 0.659718 0.391066 0.115539
H98   H     H_    0.614808 0.623211 0.318435 0.122301
H99   H     H_    0.696285 0.544065 0.313603 0.124347
H100  H     H_    0.743438 0.501631 0.380825 0.128264
C257  C     C_R   0.602536 0.685257 0.540413 0.144213
C258  C     C_R   0.660582 0.689469 0.520434 -0.109669
C259  C     C_R   0.710296 0.656546 0.537453 -0.135872
C260  C     C_R   0.702713 0.620009 0.574930 -0.133823
C261  C     C_R   0.645615 0.617545 0.595961 -0.131023
C262  C     C_R   0.596280 0.651656 0.579630 -0.052504
H101  H     H_    0.666926 0.716673 0.490872 0.147521
H102  H     H_    0.754278 0.658496 0.521008 0.165608
H103  H     H_    0.741174 0.593845 0.587491 0.130870
H104  H     H_    0.638807 0.588817 0.624600 0.118288
H105  H     H_    0.552832 0.650571 0.596930 0.121448
C263  C     C_R   0.311517 0.560803 0.572324 0.205972
C264  C     C_R   0.356681 0.606780 0.568110 -0.054497
C265  C     C_R   0.386075 0.630129 0.605254 -0.132620
C266  C     C_R   0.369035 0.609799 0.647089 -0.145687
C267  C     C_R   0.323045 0.565326 0.651824 -0.156125
C268  C     C_R   0.294584 0.540799 0.614703 -0.096910
H106  H     H_    0.371110 0.622361 0.536100 0.095634
H107  H     H_    0.422717 0.663295 0.601549 0.118222
H108  H     H_    0.391654 0.628302 0.675786 0.123064
H109  H     H_    0.309669 0.549550 0.684233 0.124470
H110  H     H_    0.259121 0.506313 0.618986 0.125035
C269  C     C_R   0.398790 0.314143 0.540370 0.137342
C270  C     C_R   0.341812 0.314146 0.518695 -0.105200
C271  C     C_R   0.292601 0.347464 0.535428 -0.138646
C272  C     C_R   0.299735 0.380710 0.574055 -0.133424
C273  C     C_R   0.355887 0.379466 0.596529 -0.131068
C274  C     C_R   0.404773 0.344962 0.580394 -0.073370
H111  H     H_    0.335905 0.289498 0.488245 0.149977
H112  H     H_    0.249399 0.348354 0.517886 0.170736
H113  H     H_    0.261676 0.407248 0.586416 0.131259
H114  H     H_    0.362004 0.405422 0.626281 0.115785
H115  H     H_    0.447782 0.343776 0.598368 0.117351
C275  C     C_R   0.689353 0.442556 0.575131 0.204696
C276  C     C_R   0.642302 0.398127 0.573335 -0.054302
C277  C     C_R   0.614000 0.376816 0.611746 -0.140119
C278  C     C_R   0.634211 0.397239 0.652588 -0.136664
C279  C     C_R   0.682191 0.439786 0.655058 -0.159046
C280  C     C_R   0.709393 0.462485 0.616649 -0.102541
H116  H     H_    0.624988 0.382750 0.542242 0.107209
H117  H     H_    0.575688 0.345211 0.609847 0.117408
H118  H     H_    0.612476 0.380349 0.682282 0.121757
H119  H     H_    0.698027 0.455511 0.686743 0.129940
H120  H     H_    0.746413 0.495504 0.619263 0.127477
C281  C     C_R   0.068046 0.812312 0.929887 0.195385
C282  C     C_R   0.132233 0.805859 0.927792 -0.097740
C283  C     C_R   0.165620 0.831819 0.893111 -0.155325
C284  C     C_R   0.135246 0.863335 0.859419 -0.124586
C285  C     C_R   0.071184 0.866965 0.859646 -0.145590
C286  C     C_R   0.037755 0.840277 0.894071 -0.043307
H121  H     H_    0.156085 0.778239 0.951991 0.138833
H122  H     H_    0.214876 0.826221 0.891836 0.128984
H123  H     H_    0.161211 0.883432 0.832589 0.119350
H124  H     H_    0.047327 0.889738 0.832873 0.113989
H125  H     H_    0.988371 0.841949 0.892874 0.124147
C287  C     C_R   0.812269 0.922468 0.939908 0.211054
C288  C     C_R   0.848275 0.872431 0.952963 -0.059807
C289  C     C_R   0.873442 0.833812 0.921565 -0.160940
C290  C     C_R   0.863466 0.845516 0.876825 -0.138143
C291  C     C_R   0.828350 0.896071 0.863580 -0.133231
C292  C     C_R   0.802589 0.934441 0.895023 -0.096698
H126  H     H_    0.856514 0.863569 0.987328 0.094411
H127  H     H_    0.901204 0.795347 0.932223 0.125852
H128  H     H_    0.883285 0.815996 0.852285 0.117298
H129  H     H_    0.820774 0.905287 0.829019 0.122000
H130  H     H_    0.774587 0.973051 0.884551 0.111508
C293  C     C_R   0.945619 0.189929 0.924888 0.213331
C294  C     C_R   0.899493 0.144607 0.926454 -0.041496
C295  C     C_R   0.882280 0.113375 0.888538 -0.141080
C296  C     C_R   0.909074 0.128860 0.848263 -0.159358
C297  C     C_R   0.952557 0.176122 0.845876 -0.151113
C298  C     C_R   0.970895 0.206460 0.883983 -0.096298
H131  H     H_    0.880209 0.130290 0.957346 0.102052
H132  H     H_    0.848769 0.076617 0.890669 0.126105
H133  H     H_    0.895947 0.104514 0.818864 0.127620
H134  H     H_    0.972916 0.188525 0.814627 0.122415
H135  H     H_    0.005924 0.241848 0.881767 0.106998
C299  C     C_R   0.185730 0.078044 0.938283 0.197127
C300  C     C_R   0.163651 0.137376 0.946595 -0.101019
C301  C     C_R   0.127240 0.167644 0.915332 -0.126961
C302  C     C_R   0.113744 0.139332 0.875433 -0.116782
C303  C     C_R   0.137553 0.081330 0.866283 -0.144781
C304  C     C_R   0.173618 0.050791 0.897497 -0.075305
H136  H     H_    0.174543 0.160084 0.977037 0.131786
H137  H     H_    0.109095 0.212794 0.922109 0.117930
H138  H     H_    0.085391 0.162539 0.851304 0.113587
H139  H     H_    0.127369 0.059669 0.835250 0.116171
H140  H     H_    0.190160 0.005031 0.890523 0.107448
C305  C     C_R   0.060340 0.188252 0.072695 0.208109
C306  C     C_R   0.107064 0.144169 0.068707 -0.046003
C307  C     C_R   0.130292 0.114190 0.105916 -0.127339
C308  C     C_R   0.109271 0.129648 0.147620 -0.147348
C309  C     C_R   0.064180 0.174703 0.152154 -0.159270
C310  C     C_R   0.039671 0.203705 0.114946 -0.094421
H141  H     H_    0.123510 0.130999 0.036839 0.085401
H142  H     H_    0.163903 0.078304 0.102299 0.116187
H143  H     H_    0.127732 0.106538 0.176360 0.122460
H144  H     H_    0.047892 0.186897 0.184463 0.124993
H145  H     H_    0.004659 0.238382 0.119085 0.125625
C311  C     C_R   0.814893 0.102073 0.042314 0.148469
C312  C     C_R   0.811667 0.159961 0.021612 -0.113971
C313  C     C_R   0.844247 0.209833 0.038404 -0.131923
C314  C     C_R   0.879171 0.202745 0.076564 -0.131551
C315  C     C_R   0.880792 0.145831 0.098342 -0.139844
C316  C     C_R   0.847820 0.095879 0.081758 -0.054093
H146  H     H_    0.785286 0.165966 0.991672 0.147465
H147  H     H_    0.842993 0.253658 0.021389 0.165587
H148  H     H_    0.904588 0.241530 0.089224 0.131665
H149  H     H_    0.907667 0.140186 0.127988 0.116065
H150  H     H_    0.848774 0.052279 0.099213 0.122168
C317  C     C_R   0.928114 0.809384 0.066428 0.170283
C318  C     C_R   0.863956 0.802258 0.063735 -0.112088
C319  C     C_R   0.826166 0.822978 0.097474 -0.137430
C320  C     C_R   0.851863 0.851750 0.134022 -0.130079
C321  C     C_R   0.915603 0.857812 0.137546 -0.155683
C322  C     C_R   0.953607 0.835494 0.104403 -0.022793
H151  H     H_    0.843365 0.778948 0.036058 0.145849
H152  H     H_    0.776958 0.816278 0.095357 0.138952
H153  H     H_    0.822509 0.868623 0.159871 0.123897
H154  H     H_    0.935640 0.878893 0.166290 0.113694
H155  H     H_    0.002750 0.838526 0.108424 0.127247
C323  C     C_R   0.184869 0.905820 0.049312 0.171450
C324  C     C_R   0.178550 0.848794 0.028984 -0.093790
C325  C     C_R   0.146634 0.800855 0.049574 -0.131658
C326  C     C_R   0.121546 0.809463 0.091143 -0.139318
C327  C     C_R   0.128808 0.865942 0.112253 -0.165673
C328  C     C_R   0.160418 0.914134 0.091434 -0.065095
H156  H     H_    0.199875 0.841893 0.997514 0.124849
H157  H     H_    0.141328 0.757182 0.033288 0.135732
H158  H     H_    0.096426 0.772358 0.106925 0.135668
H159  H     H_    0.109469 0.872508 0.144570 0.114061
H160  H     H_    0.164876 0.957844 0.107783 0.102153
C329  C     C_R   0.569539 0.089772 0.866678 0.134450
C330  C     C_R   0.623003 0.078525 0.891511 -0.141164
C331  C     C_R   0.649998 0.125712 0.915759 -0.054764
C332  C     C_R   0.622859 0.183893 0.916485 -0.061352
C333  C     C_R   0.568825 0.195040 0.892767 -0.174036
C334  C     C_R   0.542103 0.148167 0.867943 -0.101763
H161  H     H_    0.644418 0.033776 0.891153 0.158279
H162  H     H_    0.692020 0.117154 0.933887 0.134610
H163  H     H_    0.643735 0.220348 0.935391 0.146226
H164  H     H_    0.547763 0.240066 0.893492 0.131244
H165  H     H_    0.500199 0.157194 0.849741 0.133478
C335  C     C_R   0.096927 0.433955 0.870388 0.136821
C336  C     C_R   0.091681 0.377916 0.893466 -0.129606
C337  C     C_R   0.138703 0.358652 0.921748 -0.087767
C338  C     C_R   0.191031 0.395191 0.927376 -0.082652
C339  C     C_R   0.196403 0.451249 0.904873 -0.147458
C340  C     C_R   0.149439 0.470859 0.876659 -0.087595
H166  H     H_    0.051678 0.349056 0.889205 0.150955
H167  H     H_    0.134385 0.315700 0.939655 0.128769
H168  H     H_    0.227295 0.380191 0.949348 0.133009
H169  H     H_    0.236782 0.479691 0.909484 0.125311
H170  H     H_    0.153527 0.514882 0.859964 0.133300
C341  C     C_R   0.416688 0.920726 0.869339 0.105013
C342  C     C_R   0.358339 0.946520 0.875814 -0.133615
C343  C     C_R   0.315703 0.917041 0.903186 -0.179371
C344  C     C_R   0.330964 0.861784 0.924244 -0.081133
C345  C     C_R   0.388607 0.835386 0.917605 -0.086715
C346  C     C_R   0.431353 0.864572 0.890243 -0.059155
H171  H     H_    0.345988 0.989200 0.859529 0.168527
H172  H     H_    0.270901 0.937054 0.908304 0.134569
H173  H     H_    0.298023 0.839294 0.945602 0.149443
H174  H     H_    0.400297 0.792478 0.933823 0.125027
H175  H     H_    0.476316 0.844224 0.885866 0.138380
C347  C     C_R   0.916464 0.572322 0.863518 0.082589
C348  C     C_R   0.938173 0.632735 0.859679 -0.126681
C349  C     C_R   0.908458 0.680290 0.881360 -0.141300
C350  C     C_R   0.855865 0.668205 0.906364 -0.123350
C351  C     C_R   0.832824 0.608284 0.909483 -0.116694
C352  C     C_R   0.862685 0.560422 0.887929 -0.045926
H176  H     H_    0.978389 0.642737 0.839954 0.176685
H177  H     H_    0.926934 0.726214 0.878727 0.140843
H178  H     H_    0.832722 0.705118 0.923150 0.152029
H179  H     H_    0.791846 0.598922 0.928525 0.130312
H180  H     H_    0.844546 0.514087 0.890546 0.152928
C353  C     C_R   0.605463 0.957560 0.136309 0.077419
C354  C     C_R   0.656280 0.993661 0.148552 -0.092702
C355  C     C_R   0.713934 0.983591 0.129843 -0.090350
C356  C     C_R   0.721109 0.938350 0.098124 -0.167959
C357  C     C_R   0.671292 0.901285 0.086336 -0.143515
C358  C     C_R   0.613819 0.910257 0.105684 -0.084461
H181  H     H_    0.651173 0.029572 0.172676 0.137876
H182  H     H_    0.752781 0.011730 0.139328 0.134599
H183  H     H_    0.765265 0.932350 0.082529 0.154368
H184  H     H_    0.677251 0.865451 0.062305 0.164853
H185  H     H_    0.576570 0.879280 0.097644 0.162847
C359  C     C_R   0.106373 0.546432 0.133564 0.140312
C360  C     C_R   0.107351 0.600593 0.107882 -0.118273
C361  C     C_R   0.159283 0.615540 0.082993 -0.077318
C362  C     C_R   0.210161 0.576407 0.083103 -0.111104
C363  C     C_R   0.209075 0.521974 0.107878 -0.145983
C364  C     C_R   0.157233 0.506731 0.132817 -0.081795
H186  H     H_    0.067936 0.630801 0.107099 0.153776
H187  H     H_    0.159978 0.657247 0.063434 0.131788
H188  H     H_    0.250304 0.588094 0.063785 0.128185
H189  H     H_    0.248337 0.491486 0.107653 0.129526
H190  H     H_    0.156576 0.464121 0.151523 0.136649
C365  C     C_R   0.400444 0.058828 0.131717 0.095840
C366  C     C_R   0.344524 0.027105 0.135477 -0.083529
C367  C     C_R   0.293065 0.046926 0.111883 -0.154528
C368  C     C_R   0.296774 0.098821 0.084568 -0.127287
C369  C     C_R   0.351904 0.131539 0.081342 -0.081012
C370  C     C_R   0.403476 0.111992 0.105039 -0.081701
H191  H     H_    0.340946 0.986816 0.156516 0.150938
H192  H     H_    0.250675 0.021396 0.114575 0.122869
H193  H     H_    0.257108 0.113698 0.065832 0.143509
H194  H     H_    0.354643 0.172136 0.060607 0.150076
H195  H     H_    0.445539 0.138620 0.103021 0.147042
C371  C     C_R   0.896384 0.449451 0.134716 0.139987
C372  C     C_R   0.894812 0.397263 0.107717 -0.089182
C373  C     C_R   0.841135 0.382329 0.084843 -0.096675
C374  C     C_R   0.788778 0.418975 0.088756 -0.124265
C375  C     C_R   0.790018 0.470872 0.115477 -0.155668
C376  C     C_R   0.843646 0.486239 0.138318 -0.110891
H196  H     H_    0.934937 0.368430 0.104475 0.150118
H197  H     H_    0.840120 0.342425 0.064058 0.128526
H198  H     H_    0.747259 0.407185 0.071039 0.133049
H199  H     H_    0.749466 0.499285 0.118411 0.134414
H200  H     H_    0.844266 0.526813 0.158685 0.141419
C377  C     C_R   0.060429 0.597765 0.368366 0.132631
C378  C     C_R   0.117343 0.581481 0.386572 -0.169855
C379  C     C_R   0.144291 0.618183 0.418493 -0.122642
C380  C     C_R   0.116375 0.673190 0.430942 -0.071734
C381  C     C_R   0.060557 0.690880 0.411870 -0.135760
C382  C     C_R   0.031956 0.652798 0.381193 -0.047811
H201  H     H_    0.139725 0.539529 0.376793 0.164758
H202  H     H_    0.185779 0.602411 0.434347 0.125786
H203  H     H_    0.137397 0.701604 0.455818 0.133014
H204  H     H_    0.038594 0.733126 0.421797 0.120653
H205  H     H_    0.987154 0.665095 0.368279 0.133794
C383  C     C_R   0.553922 0.900022 0.368049 0.077407
C384  C     C_R   0.519610 0.845481 0.365596 -0.102617
C385  C     C_R   0.539699 0.792477 0.387496 -0.143590
C386  C     C_R   0.593741 0.793679 0.412333 -0.137673
C387  C     C_R   0.628097 0.847826 0.415110 -0.059703
C388  C     C_R   0.608432 0.900845 0.393027 -0.078947
H206  H     H_    0.478058 0.843804 0.345976 0.163869
H207  H     H_    0.513374 0.750495 0.385045 0.138484
H208  H     H_    0.609086 0.752659 0.429299 0.129460
H209  H     H_    0.670444 0.848505 0.433806 0.161741
H210  H     H_    0.636465 0.942027 0.394374 0.146046
C389  C     C_R   0.946411 0.399189 0.365142 0.134790
C390  C     C_R   0.894921 0.396326 0.392987 -0.095351
C391  C     C_R   0.881558 0.342077 0.416045 -0.095908
C392  C     C_R   0.919055 0.290454 0.411455 -0.121128
C393  C     C_R   0.970290 0.293001 0.383892 -0.154194
C394  C     C_R   0.984137 0.347211 0.360902 -0.109352
H211  H     H_    0.865452 0.435868 0.396785 0.148428
H212  H     H_    0.842283 0.340056 0.437568 0.128751
H213  H     H_    0.908470 0.248513 0.429336 0.133867
H214  H     H_    0.999407 0.253042 0.380459 0.134965
H215  H     H_    0.024295 0.348899 0.339948 0.138767
C395  C     C_R   0.450256 0.103804 0.367013 0.073409
C396  C     C_R   0.485955 0.157336 0.362096 -0.101740
C397  C     C_R   0.468988 0.211546 0.383253 -0.126831
C398  C     C_R   0.416773 0.212526 0.409848 -0.156604
C399  C     C_R   0.381119 0.159488 0.415107 -0.080687
C400  C     C_R   0.397543 0.105383 0.393715 -0.081574
H216  H     H_    0.526359 0.157231 0.341374 0.154192
H217  H     H_    0.496382 0.252792 0.379068 0.141016
H218  H     H_    0.403934 0.254339 0.426397 0.130483
H219  H     H_    0.340232 0.160504 0.435249 0.169243
H220  H     H_    0.368194 0.065304 0.396904 0.151335
C401  C     C_R   0.054216 0.394426 0.633253 0.142439
C402  C     C_R   0.105700 0.395927 0.605368 -0.102302
C403  C     C_R   0.122018 0.343653 0.581797 -0.090496
C404  C     C_R   0.087492 0.289630 0.585907 -0.117401
C405  C     C_R   0.036293 0.287804 0.613527 -0.161357
C406  C     C_R   0.019522 0.340033 0.637049 -0.108952
H221  H     H_    0.132958 0.437322 0.601975 0.147858
H222  H     H_    0.161269 0.345069 0.560244 0.130060
H223  H     H_    0.100356 0.249220 0.567625 0.135730
H224  H     H_    0.009496 0.245971 0.616623 0.134613
H225  H     H_    0.979493 0.338262 0.658126 0.138952
C407  C     C_R   0.553935 0.100421 0.634092 0.083908
C408  C     C_R   0.521121 0.154837 0.641581 -0.084649
C409  C     C_R   0.538293 0.209603 0.620455 -0.134450
C410  C     C_R   0.588824 0.210589 0.592205 -0.147723
C411  C     C_R   0.622591 0.157079 0.585347 -0.084003
C412  C     C_R   0.605254 0.102166 0.606018 -0.083499
H226  H     H_    0.481973 0.154653 0.663503 0.144918
H227  H     H_    0.512235 0.251147 0.625890 0.123798
H228  H     H_    0.601991 0.252683 0.575593 0.130399
H229  H     H_    0.662762 0.158272 0.564505 0.174398
H230  H     H_    0.633106 0.061590 0.601326 0.157473
C413  C     C_R   0.949189 0.600149 0.637605 0.138366
C414  C     C_R   0.897838 0.602239 0.609409 -0.090994
C415  C     C_R   0.881890 0.657223 0.588242 -0.095185
C416  C     C_R   0.916798 0.710364 0.594979 -0.119074
C417  C     C_R   0.967965 0.708581 0.622801 -0.151913
C418  C     C_R   0.984306 0.653644 0.643952 -0.111142
H231  H     H_    0.870333 0.561539 0.603974 0.147859
H232  H     H_    0.842558 0.658629 0.566582 0.127905
H233  H     H_    0.904252 0.752902 0.578582 0.132960
H234  H     H_    0.995063 0.749740 0.627898 0.133387
H235  H     H_    0.024296 0.652666 0.665207 0.137968
C419  C     C_R   0.444010 0.899175 0.631019 0.076207
C420  C     C_R   0.478280 0.844641 0.631420 -0.116109
C421  C     C_R   0.457580 0.793429 0.608233 -0.159167
C422  C     C_R   0.402681 0.796391 0.584351 -0.129241
C423  C     C_R   0.368277 0.850522 0.583749 -0.054322
C424  C     C_R   0.388731 0.901784 0.606973 -0.079147
H236  H     H_    0.520575 0.841709 0.650145 0.167771
H237  H     H_    0.484422 0.751636 0.608676 0.144284
H238  H     H_    0.386826 0.756919 0.566166 0.135141
H239  H     H_    0.325493 0.852630 0.565604 0.158178
H240  H     H_    0.361047 0.943118 0.606934 0.146800

loop_
_geom_bond_atom_site_label_1
_geom_bond_atom_site_label_2
_geom_bond_distance
_ccdc_geom_bond_type
C165  H24   1.082426 S    
O46   Zn12  2.033049 S    
C174  H31   1.083081 S    
O27   C21   1.285799 A    
C254  C255  1.395298 A    
C153  C154  1.395937 A    
C187  H42   1.082099 S    
C331  C332  1.397369 A    
C267  C268  1.397341 A    
C334  H165  1.082959 S    
C65   C91   1.416860 A    
C106  C117  1.400386 A    
C57   C329  1.489210 S    
C213  C214  1.393318 A    
C195  C196  1.397598 A    
C66   C92   1.419689 A    
N2    O51   1.301339 A    
C114  C191  1.491088 S    
C140  H3    1.082186 S    
C87   C99   1.421187 A    
C292  H130  1.083390 S    
N11   O70   1.299983 A    
C14   C134  1.414126 A    
C98   C103  1.413624 A    
C16   C132  1.410754 A    
C343  C344  1.396890 A    
C330  H161  1.079704 S    
N9    O66   1.301104 A    
C346  H175  1.083100 S    
C99   C102  1.417621 A    
C58   C74   1.417970 A    
C17   C80   1.454189 S    
C276  C277  1.398002 A    
C417  C418  1.398048 A    
C47   C54   1.452450 S    
C401  C406  1.404826 A    
C19   C78   1.460538 S    
C315  C316  1.397397 A    
C179  C180  1.405605 A    
C237  C238  1.395773 A    
O23   Zn3   2.047118 S    
C385  H207  1.079042 S    
C324  C325  1.395341 A    
C55   O47   1.293528 A    
C344  C345  1.395718 A    
O24   C20   1.285249 A    
C201  H54   1.082112 S    
C327  C328  1.399252 A    
C204  H56   1.083006 S    
C168  H26   1.082592 S    
C13   C135  1.396341 A    
C293  C294  1.404570 A    
C11   C123  1.407954 A    
C397  C398  1.396562 A    
C291  H129  1.082355 S    
C140  C141  1.397272 A    
C192  H46   1.082988 S    
O3    C3    1.282323 A    
C156  H16   1.083009 S    
C44   C51   1.450639 S    
C123  N3    1.439888 S    
C164  C165  1.397427 A    
N16   O80   1.299289 A    
C36   C132  1.390663 A    
C67   C89   1.407104 A    
C313  H147  1.080698 S    
C48   C55   1.444415 S    
C357  H184  1.082169 S    
C109  C114  1.405551 A    
C65   C377  1.483254 S    
C314  H148  1.080526 S    
C66   C78   1.406876 A    
O25   C21   1.292927 A    
C40   C136  1.393534 A    
O13   Zn5   2.026006 S    
C239  C244  1.407144 A    
C279  H119  1.082268 S    
O7    Zn3   2.026009 S    
C407  C408  1.403714 A    
C421  H237  1.081034 S    
C241  C242  1.396230 A    
O30   Zn8   2.044466 S    
C236  H83   1.080608 S    
C95   C119  1.419319 A    
C210  C211  1.397506 A    
C285  H124  1.082316 S    
C31   C127  1.390431 A    
C420  C421  1.396919 A    
C215  C216  1.404211 A    
C32   C128  1.396247 A    
O43   Zn11  2.029232 S    
C418  H235  1.083127 S    
C72   C80   1.405769 A    
C221  C226  1.402060 A    
C390  C391  1.397217 A    
C356  H183  1.080887 S    
C309  C310  1.397219 A    
O10   C6    1.276169 A    
C18   C79   1.471230 S    
C413  C414  1.407794 A    
C34   C287  1.477123 S    
C342  H171  1.082217 S    
C175  H32   1.082182 S    
C423  C424  1.396667 A    
C68   C78   1.404899 A    
C26   C42   1.425190 A    
C290  H128  1.080830 S    
C225  C226  1.394609 A    
C348  C349  1.392973 A    
O14   Zn8   2.024514 S    
C284  C285  1.395372 A    
C275  C276  1.406355 A    
C228  C229  1.398257 A    
C199  C200  1.397859 A    
C14   C130  1.402619 A    
O15   Zn7   2.026009 S    
C350  C351  1.396792 A    
C32   C44   1.429207 A    
C85   C109  1.423177 A    
C127  N7    1.438347 S    
C203  C208  1.407680 A    
C261  H104  1.078494 S    
C239  C240  1.406141 A    
C115  C197  1.492883 S    
C139  H2    1.082139 S    
O26   C22   1.281515 A    
C323  C328  1.403586 A    
C113  C185  1.489006 S    
C357  C358  1.397744 A    
C61   C75   1.399523 A    
N12   O72   1.300163 A    
C193  C194  1.398133 A    
C355  C356  1.394428 A    
C25   C233  1.485994 S    
C39   C45   1.424082 A    
C245  C250  1.406178 A    
C243  C244  1.397461 A    
C28   C251  1.501429 S    
C374  H198  1.082189 S    
C124  N4    1.441464 S    
C219  H69   1.082357 S    
C31   C269  1.483040 S    
O36   Zn9   2.026127 S    
C257  C258  1.404820 A    
C257  C262  1.401269 A    
C72   C94   1.419136 A    
C363  C364  1.398159 A    
C312  H146  1.083479 S    
C110  C167  1.489423 S    
C136  N16   1.440618 S    
C302  H138  1.080584 S    
C217  H67   1.082148 S    
C96   C120  1.413771 A    
C318  C319  1.396000 A    
O18   C18   1.293504 A    
C354  C355  1.396828 A    
C40   C48   1.410570 A    
C230  C231  1.397426 A    
C301  C302  1.397781 A    
O9    C5    1.282999 A    
C420  H236  1.082807 S    
C299  C300  1.402802 A    
C130  N10   1.440426 S    
C169  H27   1.082103 S    
C10   C122  1.404015 A    
C264  H106  1.076530 S    
O11   C7    1.281434 A    
C270  C271  1.393777 A    
C45   C56   1.453510 S    
C258  H101  1.081737 S    
C304  H140  1.081698 S    
C347  C352  1.409270 A    
C82   C106  1.412746 A    
C247  C248  1.397803 A    
C30   C42   1.424620 A    
C121  N1    1.439240 S    
C69   C401  1.488917 S    
C198  H51   1.083001 S    
C353  C358  1.407248 A    
O4    C4    1.280325 A    
C147  C148  1.397431 A    
O25   Zn5   2.047074 S    
C163  H22   1.082137 S    
C388  H210  1.082696 S    
C251  C256  1.408760 A    
C300  H136  1.080177 S    
C387  C388  1.396653 A    
O27   Zn7   2.048767 S    
C333  C334  1.398904 A    
O28   Zn8   2.051326 S    
C231  H79   1.082319 S    
C54   O42   1.294795 A    
C206  H58   1.082210 S    
C29   C125  1.390058 A    
C167  C168  1.408049 A    
N5    O58   1.301533 A    
C354  H181  1.083187 S    
C319  C320  1.396954 A    
C195  H49   1.082443 S    
C182  H38   1.082213 S    
C85   C99   1.425705 A    
C27   C43   1.410969 A    
C143  C148  1.408307 A    
C396  C397  1.399129 A    
C69   C95   1.413449 A    
N11   O69   1.301330 A    
C160  H20   1.083091 S    
C70   C96   1.411308 A    
C372  C373  1.397029 A    
N15   O77   1.300752 A    
C36   C299  1.484552 S    
C336  C337  1.398097 A    
C316  H150  1.082668 S    
O41   Zn11  2.030894 S    
C312  C313  1.394049 A    
C342  C343  1.398515 A    
C58   C84   1.424692 A    
C226  H75   1.083221 S    
C405  C406  1.397798 A    
C42   C49   1.451391 S    
C299  C304  1.405619 A    
C50   O34   1.288999 A    
C33   C281  1.499379 S    
C326  H158  1.082465 S    
C9    C121  1.411498 A    
N14   O75   1.299749 A    
C62   C88   1.417296 A    
C176  H33   1.082233 S    
C2    C10   1.429805 S    
C64   C371  1.490558 S    
C422  C423  1.395929 A    
O12   Zn8   2.026467 S    
C29   C257  1.484584 S    
C227  C228  1.404179 A    
C240  H86   1.074604 S    
C408  H226  1.083075 S    
C229  C230  1.397986 A    
O13   C7    1.279641 A    
C71   C79   1.410876 A    
C197  C202  1.407627 A    
C134  N14   1.439619 S    
C81   C97   1.430140 A    
C220  H70   1.082605 S    
C305  C306  1.404610 A    
C347  C348  1.398264 A    
C411  C412  1.395817 A    
C87   C111  1.413516 A    
C149  C154  1.402720 A    
C231  C232  1.397618 A    
C41   C52   1.440262 S    
C395  C400  1.407645 A    
C88   C112  1.426984 A    
C207  H59   1.082040 S    
N6    O59   1.300552 A    
O7    C1    1.281767 A    
C116  C203  1.488815 S    
C263  C268  1.408039 A    
C305  C310  1.408244 A    
N15   O78   1.300933 A    
C251  C252  1.405848 A    
C158  C159  1.396593 A    
C68   C90   1.418847 A    
C91   C101  1.424413 A    
O8    Zn2   2.024516 S    
C20   C77   1.471864 S    
C95   C103  1.415025 A    
C146  H8    1.082185 S    
C234  H81   1.082615 S    
C64   C76   1.409011 A    
C182  C183  1.396840 A    
C155  C156  1.407199 A    
O17   Zn1   2.047074 S    
C122  N2    1.443993 S    
C107  C120  1.403082 A    
C422  H238  1.080913 S    
C150  C151  1.395655 A    
C4    C12   1.430122 S    
N2    O52   1.299577 A    
C398  C399  1.395805 A    
C5    C13   1.426816 S    
C166  H25   1.082812 S    
O20   Zn4   2.051326 S    
C282  H121  1.079209 S    
C286  H125  1.074990 S    
C7    C15   1.428423 S    
C164  H23   1.082210 S    
C205  H57   1.082126 S    
C179  C184  1.406328 A    
C8    C16   1.439439 S    
C60   C74   1.405916 A    
C212  C213  1.397345 A    
C68   C395  1.494004 S    
N8    O63   1.301253 A    
C266  H108  1.082404 S    
C322  H155  1.077144 S    
C318  H151  1.083164 S    
C11   C125  1.410608 A    
O48   Zn12  2.026117 S    
C204  C205  1.398521 A    
C393  H214  1.082179 S    
C246  C247  1.390167 A    
C133  N13   1.441087 S    
C229  H77   1.082165 S    
C151  C152  1.395668 A    
C46   C53   1.444602 S    
O1    Zn1   2.024051 S    
C126  N6    1.440892 S    
C161  C166  1.407832 A    
C300  C301  1.398075 A    
C394  H215  1.083125 S    
C129  N9    1.440651 S    
C209  C214  1.400917 A    
C410  H228  1.079847 S    
C66   C383  1.489512 S    
C335  C336  1.405328 A    
O4    Zn4   2.026467 S    
O45   Zn12  2.029237 S    
C144  C145  1.397936 A    
C386  H208  1.079737 S    
O33   Zn9   2.030894 S    
C137  C142  1.407914 A    
C90   C114  1.424041 A    
C62   C359  1.487934 S    
C332  C333  1.398437 A    
C33   C45   1.431530 A    
C407  C412  1.407656 A    
C232  H80   1.082370 S    
C230  H78   1.082198 S    
C35   C47   1.424486 A    
C236  C237  1.398141 A    
C94   C118  1.419763 A    
C97   C104  1.419377 A    
C381  C382  1.398060 A    
C183  H39   1.079712 S    
C288  H126  1.077467 S    
C234  C235  1.394365 A    
C196  H50   1.082727 S    
C60   C347  1.492721 S    
C215  C220  1.408427 A    
C15   C131  1.403431 A    
C283  C284  1.394790 A    
N4    O55   1.301262 A    
C369  C370  1.397253 A    
C186  H41   1.082557 S    
C389  C394  1.405052 A    
O21   C19   1.288190 A    
C340  H170  1.083095 S    
N7    O62   1.299619 A    
O22   C20   1.294018 A    
C313  C314  1.394759 A    
O29   Zn5   2.048724 S    
C50   O40   1.293140 A    
C296  C297  1.395862 A    
C361  H187  1.080370 S    
C336  H166  1.079380 S    
O23   C19   1.285833 A    
N10   O67   1.301175 A    
C261  C262  1.393902 A    
C212  H63   1.082207 S    
C387  H209  1.081745 S    
C33   C129  1.395719 A    
C290  C291  1.395801 A    
C72   C419  1.490025 S    
C311  C312  1.404176 A    
C23   C74   1.468323 S    
C278  C279  1.394696 A    
C255  C256  1.397569 A    
O12   C8    1.283640 A    
O1    C1    1.286828 A    
C275  C280  1.408620 A    
C141  C142  1.397346 A    
C135  N15   1.439033 S    
C142  H5    1.082906 S    
C148  H10   1.081750 S    
C37   C133  1.393576 A    
O14   C6    1.290422 A    
N13   O73   1.301242 A    
C350  H178  1.081426 S    
C57   C83   1.418362 A    
C70   C407  1.493388 S    
N9    O65   1.299632 A    
C89   C113  1.417422 A    
C86   C110  1.417483 A    
C352  H180  1.082996 S    
C157  H17   1.082099 S    
C25   C121  1.390495 A    
C377  C382  1.407372 A    
O34   Zn9   2.033057 S    
C61   C87   1.410313 A    
C27   C245  1.485117 S    
C381  H204  1.082083 S    
C259  H102  1.081127 S    
C93   C117  1.421471 A    
C193  H47   1.082141 S    
C265  C266  1.395668 A    
C63   C85   1.422295 A    
C398  H218  1.081084 S    
C30   C263  1.496945 S    
O28   C22   1.292341 A    
C243  H89   1.082446 S    
C94   C104  1.425641 A    
C317  C318  1.405446 A    
O29   C23   1.289094 A    
C252  C253  1.397624 A    
C108  C155  1.491680 S    
C181  C182  1.396611 A    
C37   C47   1.424863 A    
C276  H116  1.074456 S    
C269  C270  1.402575 A    
C183  C184  1.398321 A    
C39   C135  1.391139 A    
C390  H211  1.080659 S    
C165  C166  1.397500 A    
C273  C274  1.395476 A    
C378  H201  1.079461 S    
C253  H97   1.079786 S    
C40   C323  1.483207 S    
O19   C17   1.286982 A    
C345  H174  1.082062 S    
C61   C353  1.493880 S    
C31   C41   1.411403 A    
C308  H143  1.082366 S    
C38   C46   1.411568 A    
C295  H132  1.081552 S    
C287  C292  1.405152 A    
C268  H110  1.081246 S    
C265  H107  1.078472 S    
C273  H114  1.079898 S    
C170  H28   1.081994 S    
C266  C267  1.395783 A    
O24   Zn2   2.051342 S    
C278  H118  1.082322 S    
C65   C77   1.418723 A    
O37   Zn10  2.029237 S    
C12   C124  1.400922 A    
C67   C389  1.489340 S    
C223  C224  1.396422 A    
N3    O53   1.301014 A    
C158  H18   1.082244 S    
C39   C317  1.490946 S    
C280  H120  1.080337 S    
C10   C126  1.403029 A    
C138  C139  1.398333 A    
C260  C261  1.399012 A    
C84   C108  1.429917 A    
C363  H189  1.082157 S    
C53   O41   1.289806 A    
C374  C375  1.397450 A    
C56   O46   1.300001 A    
O42   Zn11  2.033057 S    
C84   C98   1.427921 A    
C373  C374  1.397092 A    
N16   O79   1.300337 A    
N1    O50   1.300524 A    
C281  C282  1.404654 A    
C233  C238  1.402917 A    
C29   C43   1.412200 A    
C89   C101  1.424325 A    
C294  H131  1.074284 S    
C163  C164  1.398148 A    
O26   Zn6   2.044471 S    
C37   C305  1.496235 S    
C303  C304  1.395576 A    
C192  C193  1.398546 A    
C333  H164  1.082118 S    
C249  H94   1.082344 S    
C35   C293  1.494249 S    
C424  H240  1.082788 S    
C327  H159  1.082280 S    
C30   C126  1.394499 A    
O31   C23   1.288719 A    
C221  C222  1.406561 A    
C143  C144  1.404547 A    
O32   C24   1.293710 A    
C110  C113  1.395427 A    
C384  H206  1.082918 S    
C24   C73   1.470742 S    
C399  C400  1.397482 A    
C412  H230  1.081976 S    
C269  C274  1.402372 A    
C128  N8    1.441813 S    
C411  H229  1.081095 S    
C382  H205  1.082980 S    
C111  C173  1.493426 S    
C227  C232  1.406932 A    
C321  C322  1.397362 A    
C207  C208  1.397686 A    
C281  C286  1.407326 A    
C393  C394  1.397699 A    
C295  C296  1.397423 A    
C51   O35   1.294605 A    
C319  H152  1.081259 S    
O10   Zn6   2.026467 S    
C38   C311  1.485023 S    
C194  H48   1.082212 S    
C49   O33   1.291523 A    
C263  C264  1.404505 A    
C3    C11   1.441335 S    
C167  C172  1.402839 A    
C253  C254  1.395088 A    
C200  H53   1.082168 S    
C380  H203  1.081855 S    
C117  C209  1.481184 S    
C277  H117  1.080140 S    
C364  H190  1.083086 S    
C415  H232  1.079341 S    
C28   C44   1.428285 A    
O38   Zn10  2.033049 S    
C402  H221  1.080442 S    
C359  C360  1.407713 A    
C82   C98   1.418569 A    
C106  C143  1.494596 S    
C403  C404  1.396893 A    
C349  H177  1.077455 S    
C419  C420  1.401779 A    
C329  C330  1.406271 A    
C151  H12   1.082171 S    
C71   C413  1.487196 S    
C249  C250  1.397589 A    
C108  C119  1.409487 A    
C274  H115  1.082854 S    
C325  H157  1.081012 S    
C63   C75   1.410991 A    
C307  C308  1.395532 A    
C408  C409  1.398359 A    
C180  H36   1.083132 S    
C379  C380  1.398292 A    
C112  C115  1.404232 A    
C177  C178  1.397658 A    
C22   C75   1.459068 S    
C414  C415  1.396965 A    
C162  C163  1.398530 A    
C339  H169  1.082120 S    
C155  C160  1.404295 A    
O8    C4    1.281042 A    
C111  C116  1.402332 A    
C100  C101  1.411858 A    
O18   Zn2   2.044471 S    
C368  C369  1.395372 A    
C379  H202  1.077588 S    
N8    O64   1.300523 A    
C360  H186  1.081087 S    
C6    C14   1.438702 S    
O21   Zn1   2.048724 S    
C255  H99   1.082263 S    
C252  H96   1.074372 S    
O9    Zn5   2.024051 S    
C159  C160  1.398425 A    
C13   C129  1.400601 A    
O47   Zn12  2.030907 S    
C149  C150  1.405768 A    
C59   C341  1.493695 S    
C308  C309  1.395569 A    
C69   C79   1.416698 A    
C371  C372  1.407722 A    
C365  C366  1.400588 A    
C51   O39   1.294614 A    
C83   C97   1.430616 A    
C366  H191  1.083217 S    
C282  C283  1.397150 A    
C270  H111  1.082800 S    
C217  C218  1.398074 A    
C35   C131  1.393074 A    
C416  H233  1.082194 S    
C131  N11   1.442564 S    
C359  C364  1.404863 A    
C59   C73   1.413148 A    
C199  H52   1.082141 S    
O2    Zn2   2.026467 S    
C376  H200  1.083111 S    
O5    C3    1.286161 A    
C329  C334  1.404858 A    
C423  H239  1.081887 S    
C256  H100  1.081252 S    
C254  H98   1.082367 S    
O11   Zn7   2.024059 S    
C189  H44   1.079368 S    
C206  C207  1.397342 A    
O5    Zn1   2.026006 S    
C262  H105  1.082883 S    
C173  C178  1.407950 A    
C415  C416  1.397017 A    
C169  C170  1.396459 A    
N14   O76   1.300935 A    
C293  C298  1.406382 A    
C386  C387  1.395519 A    
C96   C104  1.423568 A    
C211  C212  1.396726 A    
C27   C123  1.392949 A    
C267  H109  1.082411 S    
C188  C189  1.397816 A    
C105  C118  1.403027 A    
C218  C219  1.397298 A    
C26   C239  1.496809 S    
C384  C385  1.396629 A    
C328  H160  1.080892 S    
C213  H64   1.076262 S    
C405  H224  1.082185 S    
C157  C158  1.395824 A    
C365  C370  1.408171 A    
C141  H4    1.081595 S    
C233  C234  1.404494 A    
C88   C100  1.425814 A    
C409  C410  1.397162 A    
O17   C17   1.284144 A    
C16   C136  1.410239 A    
C389  C390  1.407059 A    
C245  C246  1.401707 A    
N6    O60   1.301262 A    
C337  C338  1.397009 A    
C200  C201  1.397304 A    
C138  H1    1.083010 S    
O35   Zn9   2.029232 S    
C361  C362  1.397221 A    
C9    C127  1.409439 A    
O44   Zn11  2.026127 S    
O19   Zn3   2.048767 S    
C247  H92   1.077259 S    
C385  C386  1.396487 A    
N1    O49   1.300005 A    
C55   O43   1.290456 A    
C344  H173  1.081545 S    
C67   C77   1.405721 A    
C145  H7    1.082230 S    
C54   O48   1.294862 A    
C421  C422  1.397880 A    
C34   C130  1.388033 A    
C311  C316  1.403004 A    
C362  C363  1.397754 A    
C201  C202  1.397467 A    
C248  C249  1.396135 A    
C309  H144  1.082364 S    
O2    C2    1.281971 A    
C209  C210  1.406259 A    
C345  C346  1.397063 A    
C38   C134  1.394554 A    
C343  H172  1.080126 S    
C271  H112  1.079815 S    
C188  H43   1.082079 S    
C402  C403  1.396805 A    
N7    O61   1.300476 A    
C348  H176  1.082557 S    
C277  C278  1.394718 A    
C397  H217  1.081804 S    
C338  H168  1.082167 S    
C26   C122  1.393325 A    
C174  C175  1.397928 A    
C86   C100  1.422328 A    
C185  C186  1.408315 A    
C119  C221  1.488104 S    
C324  H156  1.077842 S    
C216  C217  1.398502 A    
C321  H154  1.082301 S    
C289  H127  1.079657 S    
C118  C215  1.492016 S    
C186  C187  1.396860 A    
C320  C321  1.395779 A    
N3    O54   1.299937 A    
C181  H37   1.082131 S    
C317  C322  1.405570 A    
C224  H73   1.081882 S    
C260  H103  1.079946 S    
C367  H192  1.077490 S    
C175  C176  1.397294 A    
O32   Zn6   2.051342 S    
C383  C384  1.401604 A    
C208  H60   1.082948 S    
C177  H34   1.080859 S    
C378  C379  1.391030 A    
C310  H145  1.081128 S    
C216  H66   1.082996 S    
C152  H13   1.079992 S    
C219  C220  1.397508 A    
C159  H19   1.077403 S    
C92   C116  1.428697 A    
C25   C41   1.411664 A    
C235  C236  1.395196 A    
C59   C81   1.421343 A    
C320  H153  1.082088 S    
C172  H30   1.083168 S    
C287  C288  1.396146 A    
O22   Zn4   2.044466 S    
C178  H35   1.082429 S    
C404  H223  1.082195 S    
C341  C342  1.403460 A    
C413  C418  1.404071 A    
N13   O74   1.300603 A    
C288  C289  1.392426 A    
C12   C128  1.402188 A    
C60   C82   1.403963 A    
C241  H87   1.081461 S    
C21   C76   1.467175 S    
C279  C280  1.397651 A    
C298  H135  1.082839 S    
C171  H29   1.080233 S    
C294  C295  1.395227 A    
C52   O36   1.289999 A    
C400  H220  1.082334 S    
C403  H222  1.078189 S    
C335  C340  1.407374 A    
O16   C8    1.283042 A    
O40   Zn10  2.026117 S    
C222  H71   1.082808 S    
C222  C223  1.396682 A    
C373  H197  1.078844 S    
C137  C138  1.404634 A    
O16   Zn6   2.024516 S    
C303  H139  1.082317 S    
C417  H234  1.082187 S    
C90   C102  1.427381 A    
C404  C405  1.397222 A    
C53   O45   1.294864 A    
C416  C417  1.397524 A    
C238  H85   1.082625 S    
C92   C102  1.430244 A    
C362  H188  1.082169 S    
O6    C2    1.279503 A    
C406  H225  1.083135 S    
C93   C103  1.426009 A    
C125  N5    1.438379 S    
C323  C324  1.397139 A    
C351  H179  1.082116 S    
C237  H84   1.079756 S    
C190  H45   1.083192 S    
O6    Zn4   2.024514 S    
C154  H15   1.083116 S    
C409  H227  1.081593 S    
C62   C76   1.417825 A    
C325  C326  1.394443 A    
C395  C396  1.404111 A    
C264  C265  1.397269 A    
N10   O68   1.300654 A    
C337  H167  1.080977 S    
C289  C290  1.400826 A    
C70   C80   1.400413 A    
C358  H185  1.081046 S    
C194  C195  1.397382 A    
O20   C18   1.287527 A    
C153  H14   1.079993 S    
C71   C93   1.413465 A    
C355  H182  1.081905 S    
C401  C402  1.406927 A    
C184  H40   1.082936 S    
C185  C190  1.402116 A    
C28   C124  1.394321 A    
C228  H76   1.083026 S    
C326  C327  1.399648 A    
C242  C243  1.396457 A    
C58   C335  1.489091 S    
C15   C133  1.402142 A    
C366  C367  1.395510 A    
C146  C147  1.397146 A    
C105  C137  1.489633 S    
C203  C204  1.404493 A    
C168  C169  1.396843 A    
C144  H6    1.083105 S    
C32   C275  1.503435 S    
C147  H9    1.082175 S    
C259  C260  1.394627 A    
O15   C5    1.277095 A    
C297  C298  1.397339 A    
C171  C172  1.396198 A    
C302  C303  1.394984 A    
C214  H65   1.082955 S    
O30   C24   1.284324 A    
C391  H212  1.078369 S    
C120  C227  1.493341 S    
C301  H137  1.080595 S    
C34   C46   1.410360 A    
C218  H68   1.082202 S    
C49   O37   1.297895 A    
C392  C393  1.397216 A    
C248  H93   1.081050 S    
C109  C161  1.490594 S    
C380  C381  1.397718 A    
C180  C181  1.397248 A    
C83   C107  1.427761 A    
C246  H91   1.082859 S    
C224  C225  1.398234 A    
C187  C188  1.396352 A    
C56   O44   1.290681 A    
C396  H216  1.082980 S    
O39   Zn10  2.030907 S    
C81   C105  1.427939 A    
C57   C73   1.406853 A    
C170  C171  1.398049 A    
C250  H95   1.081515 S    
C410  C411  1.394739 A    
C198  C199  1.398181 A    
C189  C190  1.395754 A    
C353  C354  1.405269 A    
C211  H62   1.082065 S    
C419  C424  1.407174 A    
N12   O71   1.300819 A    
C43   C50   1.439466 S    
C36   C48   1.412086 A    
C332  H163  1.082182 S    
C191  C192  1.404264 A    
N4    O56   1.300500 A    
C392  H213  1.082192 S    
C369  H194  1.082111 S    
C383  C388  1.407212 A    
C223  H72   1.082098 S    
C307  H142  1.076878 S    
C272  H113  1.080427 S    
C314  C315  1.398923 A    
C370  H195  1.082626 S    
C283  H122  1.078994 S    
C377  C378  1.399950 A    
C244  H90   1.082193 S    
C242  H88   1.082341 S    
C341  C346  1.408553 A    
C235  H82   1.080560 S    
C63   C365  1.490014 S    
C91   C115  1.426657 A    
C338  C339  1.397397 A    
O31   Zn7   2.047118 S    
C162  H21   1.082987 S    
C258  C259  1.394316 A    
C375  C376  1.397878 A    
C296  H133  1.081944 S    
C271  C272  1.394854 A    
C205  C206  1.398066 A    
C173  C174  1.404593 A    
C372  H196  1.080786 S    
C351  C352  1.397612 A    
C368  H193  1.081713 S    
C112  C179  1.490618 S    
C360  C361  1.397442 A    
C191  C196  1.407958 A    
C297  H134  1.082374 S    
C414  H231  1.080386 S    
C161  C162  1.404258 A    
C399  H219  1.081718 S    
C356  C357  1.396570 A    
C331  H162  1.082211 S    
C339  C340  1.398148 A    
C330  C331  1.396886 A    
C150  H11   1.082875 S    
C225  H74   1.078917 S    
C139  C140  1.397885 A    
C306  H141  1.076897 S    
C145  C146  1.397532 A    
C391  C392  1.397038 A    
C152  C153  1.399484 A    
C1    C9    1.441740 S    
C107  C149  1.486083 S    
C176  C177  1.396809 A    
C371  C376  1.404790 A    
C52   O38   1.292161 A    
C210  H61   1.082846 S    
C375  H199  1.082184 S    
C64   C86   1.405614 A    
C291  C292  1.395242 A    
N5    O57   1.301118 A    
C240  C241  1.398326 A    
C272  C273  1.398645 A    
C156  C157  1.396716 A    
C315  H149  1.080869 S    
C197  C198  1.404588 A    
C202  H55   1.082911 S    
C132  N12   1.439178 S    
C367  C368  1.397825 A    
C284  H123  1.082503 S    
C349  C350  1.398401 A    
C285  C286  1.398120 A    
O3    Zn3   2.024059 S    
C306  C307  1.396541 A    
