data_mof_unit_30391.cif
_audit_creation_date              2012-12-10T16:44:41-0500
_audit_creation_method            fapswitch 2.2
_symmetry_space_group_name_H-M    P1
_symmetry_Int_Tables_number       1
_space_group_crystal_system       triclinic
_cell_length_a                    15.019681
_cell_length_b                    8.67497
_cell_length_c                    7.446185
_cell_angle_alpha                 103.102431
_cell_angle_beta                  93.745037
_cell_angle_gamma                 92.527033
_cell_volume                      941.193956618

loop_
_atom_site_label
_atom_site_type_symbol
_atom_type_description
_atom_site_fract_x
_atom_site_fract_y
_atom_site_fract_z
_atom_type_partial_charge
C1    C     C_R   0.497233 0.199664 0.453139 0.872830
C2    C     C_R   0.502764 0.800336 0.546861 0.872895
C3    C     C_R   0.044802 0.224383 0.358992 -0.209409
C4    C     C_R   0.955199 0.775610 0.640692 -0.209393
C5    C     C_2   0.496119 0.031638 0.426853 -0.372447
C6    C     C_2   0.503879 0.968362 0.573147 -0.372422
C7    C     C_R   0.329591 0.507486 0.504276 0.810517
C8    C     C_R   0.670409 0.492522 0.495725 0.810467
C9    C     C_R   0.816496 0.623124 0.572291 -0.277955
C10   C     C_R   0.183509 0.376859 0.427578 -0.277910
C11   C     C_R   0.766352 0.485053 0.488313 -0.050552
C12   C     C_R   0.233645 0.514916 0.511667 -0.050604
C13   C     C_R   0.807192 0.345087 0.405298 0.123123
C14   C     C_R   0.192788 0.654857 0.594682 0.123095
C15   C     C_R   0.902983 0.345341 0.420025 0.089014
C16   C     C_R   0.097004 0.654609 0.579784 0.089063
C17   C     C_R   0.952807 0.493670 0.497262 -0.014389
C18   C     C_R   0.047184 0.506287 0.502539 -0.014374
C19   C     C_R   0.908411 0.630187 0.571475 0.080447
C20   C     C_R   0.091588 0.369786 0.428324 0.080434
C21   C     C_R   0.952226 0.207038 0.361636 0.176940
C22   C     C_R   0.047771 0.792932 0.638009 0.176956
Cu1   Cu    Cu3+1 0.510010 0.517380 0.684380 0.949384
Cu2   Cu    Cu3+1 0.489990 0.482620 0.315620 0.949399
H1    H     H_    0.081957 0.120910 0.308048 0.144078
H2    H     H_    0.918052 0.879111 0.691562 0.144064
N1    N     N_2   0.474890 0.456420 0.038520 -0.215678
N2    N     N_2   0.525110 0.543580 0.961480 -0.215683
O1    O     O_R   0.506510 0.286130 0.619770 -0.581180
O2    O     O_R   0.493490 0.713870 0.380230 -0.581198
O3    O     O_R   0.489600 0.256770 0.308360 -0.593277
O4    O     O_R   0.510400 0.743230 0.691640 -0.593280
O5    O     O_R   0.378710 0.514640 0.655720 -0.591291
O6    O     O_R   0.621290 0.485360 0.344280 -0.591234
O7    O     O_R   0.361800 0.485290 0.344300 -0.575819
O8    O     O_R   0.638200 0.514710 0.655700 -0.575812
H3    H     H_    0.782720 0.728487 0.633178 0.136452
H4    H     H_    0.217292 0.271514 0.366667 0.136473
C23   C     C_3   0.748314 0.204255 0.293974 -0.857867
H5    H     H_    0.746294 0.106026 0.366020 0.228133
H6    H     H_    0.677622 0.228837 0.271301 0.239629
H7    H     H_    0.771066 0.167855 0.152759 0.236375
C24   C     C_3   0.251621 0.795640 0.706263 -0.858033
H8    H     H_    0.253799 0.893868 0.634222 0.228153
H9    H     H_    0.228694 0.832090 0.847325 0.236378
H10   H     H_    0.322271 0.770965 0.729333 0.239777
C25   C     C_3   0.913464 0.037415 0.319338 -0.858561
H11   H     H_    0.874368 0.017667 0.434105 0.229959
H12   H     H_    0.874139 0.005393 0.183962 0.237979
H13   H     H_    0.966319 0.950815 0.309293 0.234651
C26   C     C_3   0.086547 0.962529 0.679956 -0.858627
H14   H     H_    0.125796 0.994787 0.815415 0.237986
H15   H     H_    0.125739 0.982005 0.565202 0.229973
H16   H     H_    0.033694 0.049110 0.689591 0.234727
H17   H     H_    0.488950 0.959715 0.286028 0.180497
H18   H     H_    0.511048 0.040285 0.713972 0.180496
H19   H     H_    0.430031 0.377935 0.948689 0.228326
H20   H     H_    0.569969 0.622065 0.051311 0.228328

loop_
_geom_bond_atom_site_label_1
_geom_bond_atom_site_label_2
_ccdc_geom_bond_type
C1    O3    A    
C4    H2    S    
Cu1   Cu2   S    
N2    H20   S    
C25   H13   S    
C24   H9    S    
C25   H11   S    
Cu2   N1    S    
C15   C21   A    
C10   H4    S    
C26   H16   S    
Cu1   O4    S    
N1    N2    D    
C9    H3    S    
C17   C18   A    
Cu2   O3    S    
C3    C20   A    
C25   H12   S    
C16   C18   A    
C8    O6    A    
Cu1   N2    S    
C9    C11   A    
C2    C6    S    
C10   C12   A    
C8    C11   S    
C1    C5    S    
Cu1   O1    S    
C1    O1    A    
C17   C19   A    
C12   C14   A    
C23   H7    S    
C18   C20   A    
C13   C15   A    
C24   H8    S    
C8    O8    A    
C5    C6    D    
C24   H10   S    
C14   C16   A    
C7    C12   S    
C3    C21   A    
Cu2   O7    S    
C13   C23   S    
C2    O2    A    
C7    O5    A    
Cu2   O2    S    
C26   H14   S    
C11   C13   A    
C3    H1    S    
C4    C22   A    
C23   H6    S    
C2    O4    A    
Cu1   O8    S    
N1    H19   S    
C10   C20   A    
C23   H5    S    
C15   C17   A    
C21   C25   S    
C22   C26   S    
C16   C22   A    
Cu1   O5    S    
C4    C19   A    
C7    O7    A    
C5    H17   S    
Cu2   O6    S    
C9    C19   A    
C6    H18   S    
C14   C24   S    
C26   H15   S    
