data_mof_unit_48314.cif
_audit_creation_date              2012-10-26T18:32:01-0400
_audit_creation_method            fapswitch 2.2
_symmetry_space_group_name_H-M    P1
_symmetry_Int_Tables_number       1
_space_group_crystal_system       triclinic
_cell_length_a                    12.353373
_cell_length_b                    13.268413
_cell_length_c                    14.2727
_cell_angle_alpha                 93.288327
_cell_angle_beta                  107.636457
_cell_angle_gamma                 117.020444
_cell_volume                      1933.01220216

loop_
_atom_site_label
_atom_site_type_symbol
_atom_type_description
_atom_site_fract_x
_atom_site_fract_y
_atom_site_fract_z
_atom_type_partial_charge
C1    C     C_R   0.650790 0.714032 0.508533 0.532132
C2    C     C_R   0.219951 0.510757 0.012628 0.051147
C3    C     C_R   0.164560 0.519627 0.084265 0.031985
C4    C     C_R   0.619742 0.518592 0.686836 0.545341
C5    C     C_R   0.327411 0.492161 0.039792 -0.135002
C6    C     C_R   0.380143 0.481463 0.137367 -0.141070
C7    C     C_R   0.215420 0.502771 0.180335 -0.132565
C8    C     C_R   0.140055 0.966504 0.363149 -0.129655
C9    C     C_R   0.248954 0.162350 0.463161 -0.001927
C10   C     C_R   0.730095 0.921052 0.573501 -0.131400
C11   C     C_R   0.820167 0.037936 0.592143 -0.138775
C12   C     C_R   0.881466 0.547552 0.924647 0.031302
C13   C     C_R   0.921134 0.072554 0.556005 -0.120335
C14   C     C_R   0.931237 0.990120 0.496657 0.032526
C15   C     C_R   0.829825 0.872650 0.467478 0.024145
C16   C     C_R   0.345229 0.285290 0.484961 0.550844
C17   C     C_R   0.037993 0.020598 0.464501 0.028837
C18   C     C_R   0.035157 0.937091 0.395511 0.052030
C19   C     C_R   0.926572 0.826034 0.357969 -0.138470
C20   C     C_R   0.824604 0.794571 0.392342 -0.122165
C21   C     C_R   0.148627 0.131496 0.500028 -0.135145
C22   C     C_R   0.246272 0.079089 0.396289 -0.135138
C23   C     C_R   0.835767 0.570571 0.998739 0.053188
C24   C     C_R   0.735611 0.837173 0.513555 -0.001655
C25   C     C_R   0.253832 0.685124 0.661610 -0.152372
C26   C     C_R   0.654795 0.342250 0.363731 0.045389
C27   C     C_R   0.732558 0.307929 0.333530 -0.159797
C28   C     C_R   0.382603 0.484691 0.313483 0.543302
C29   C     C_R   0.867888 0.367296 0.384587 -0.138441
C30   C     C_R   0.927867 0.462579 0.467156 -0.006850
C31   C     C_R   0.843809 0.494841 0.495302 0.180163
C32   C     C_R   0.067453 0.526825 0.522827 -0.014246
C33   C     C_R   0.119012 0.621125 0.605170 0.034745
C34   C     C_R   0.998270 0.540644 0.954441 0.030804
C35   C     C_R   0.036020 0.651425 0.630966 -0.182969
C36   C     C_R   0.902043 0.590069 0.577366 -0.105768
C37   C     C_R   0.159329 0.502261 0.501088 0.036928
C38   C     C_R   0.338289 0.656480 0.636519 0.036852
C39   C     C_R   0.692043 0.536086 0.794487 -0.003971
C40   C     C_R   0.324214 0.486945 0.208109 -0.003395
C41   C     C_R   0.721996 0.579645 0.970395 -0.135239
C42   C     C_R   0.650956 0.563275 0.868830 -0.138099
C43   C     C_R   0.805768 0.527682 0.822748 -0.140925
C44   C     C_R   0.058320 0.542135 0.056980 0.031862
C45   C     C_R   0.011756 0.568193 0.129058 -0.141473
C46   C     C_R   0.903328 0.583331 0.100226 -0.135916
C47   C     C_R   0.057967 0.533922 0.885567 -0.142568
C48   C     C_R   0.167634 0.520537 0.914750 -0.135458
Cu1   Cu    Cu3+1 0.416420 0.526630 0.522910 0.923749
Cu2   Cu    Cu3+1 0.583580 0.473370 0.477090 0.912044
H1    H     H_    0.870599 0.602825 0.157715 0.100715
H2    H     H_    0.442301 0.705783 0.679978 0.117432
H3    H     H_    0.170384 0.499589 0.234744 0.119247
H4    H     H_    0.075140 0.723704 0.693856 0.112410
H5    H     H_    0.293748 0.757119 0.724902 0.094692
H6    H     H_    0.128601 0.432164 0.439741 0.116786
H7    H     H_    0.549988 0.295466 0.323459 0.123523
H8    H     H_    0.923102 0.336828 0.357992 0.100178
H9    H     H_    0.687658 0.234850 0.270197 0.105742
H10   H     H_    0.464964 0.469876 0.157553 0.124544
H11   H     H_    0.210566 0.516103 0.859757 0.110569
H12   H     H_    0.323393 0.102098 0.366716 0.123034
H13   H     H_    0.687438 0.598514 0.026803 0.101322
H14   H     H_    0.563396 0.570656 0.848559 0.124136
H15   H     H_    0.831379 0.501919 0.763570 0.124239
H16   H     H_    0.059380 0.581029 0.209162 0.106165
H17   H     H_    0.024745 0.542405 0.808976 0.110632
H18   H     H_    0.371216 0.486752 0.985735 0.102716
H19   H     H_    0.847755 0.620638 0.603473 0.182898
H20   H     H_    0.920548 0.762957 0.302007 0.100372
H21   H     H_    0.138234 0.903276 0.310203 0.110528
H22   H     H_    0.159284 0.196611 0.556192 0.118396
H23   H     H_    0.657528 0.896152 0.608065 0.128832
H24   H     H_    0.987607 0.164736 0.573893 0.104719
H25   H     H_    0.814118 0.102005 0.637583 0.122208
H26   H     H_    0.740427 0.709155 0.356931 0.148798
N1    N     N_R   0.290690 0.566960 0.557640 -0.231493
N2    N     N_R   0.709100 0.433710 0.442970 -0.234625
O1    O     O_R   0.545970 0.684450 0.528810 -0.499990
O2    O     O_R   0.687130 0.639470 0.490120 -0.527117
O3    O     O_R   0.519670 0.535100 0.660030 -0.501918
O4    O     O_R   0.660830 0.490120 0.621340 -0.520390
O5    O     O_R   0.312870 0.360530 0.509880 -0.506866
O6    O     O_R   0.454030 0.315550 0.471190 -0.500612
O7    O     O_R   0.339170 0.509880 0.378660 -0.506599
O8    O     O_R   0.480330 0.464900 0.339970 -0.513752

loop_
_geom_bond_atom_site_label_1
_geom_bond_atom_site_label_2
_ccdc_geom_bond_type
C27   C29   A    
C41   C42   A    
C19   C20   A    
Cu2   O6    S    
C45   C46   A    
C44   C45   A    
C12   C23   A    
C26   C27   A    
C26   N2    A    
C9    C16   S    
C12   C43   A    
C3    C7    A    
C30   C31   A    
C10   H23   S    
C9    C22   A    
C38   H2    S    
C28   C40   S    
C16   O6    A    
C20   H26   S    
C18   C19   A    
Cu1   O3    S    
C37   H6    S    
C4    O3    A    
C35   C36   A    
C8    C22   A    
C7    C40   A    
C23   C46   A    
C13   C14   A    
C35   H4    S    
C14   C17   A    
C5    H18   S    
Cu2   N2    S    
C47   H17   S    
C39   C42   A    
C15   C20   A    
C3    C44   A    
C21   H22   S    
Cu1   O7    S    
C34   C44   A    
C39   C43   A    
C2    C48   A    
C37   N1    A    
C46   H1    S    
C16   O5    A    
C17   C21   A    
Cu1   O1    S    
C29   C30   A    
C6    H10   S    
C25   C38   A    
C22   H12   S    
C47   C48   A    
C4    C39   S    
C43   H15   S    
C17   C18   A    
C32   C37   A    
C13   H24   S    
C15   C24   A    
C28   O8    A    
C1    O1    A    
C6    C40   A    
C2    C5    A    
C7    H3    S    
C12   C34   A    
C42   H14   S    
C28   O7    A    
C36   H19   S    
Cu2   O4    S    
C31   N2    A    
C8    H21   S    
C14   C15   A    
C25   H5    S    
Cu2   O2    S    
C38   N1    A    
C23   C41   A    
C10   C24   A    
C32   C33   A    
Cu1   O5    S    
C2    C3    A    
C27   H9    S    
C30   C32   A    
C11   C13   A    
C9    C21   A    
C48   H11   S    
C5    C6    A    
C33   C35   A    
Cu1   N1    S    
C26   H7    S    
C8    C18   A    
C10   C11   A    
Cu2   O8    S    
C4    O4    A    
C29   H8    S    
C1    C24   S    
Cu1   Cu2   S    
C45   H16   S    
C1    O2    A    
C41   H13   S    
C31   C36   A    
C19   H20   S    
C11   H25   S    
C34   C47   A    
C25   C33   A    
