data_mof_unit_62300.cif
_audit_creation_date              2012-10-26T18:36:07-0400
_audit_creation_method            fapswitch 2.2
_symmetry_space_group_name_H-M    P1
_symmetry_Int_Tables_number       1
_space_group_crystal_system       triclinic
_cell_length_a                    10.7557
_cell_length_b                    12.750965
_cell_length_c                    13.906626
_cell_angle_alpha                 97.967854
_cell_angle_beta                  90.235632
_cell_angle_gamma                 93.127218
_cell_volume                      1885.87536403

loop_
_atom_site_label
_atom_site_type_symbol
_atom_type_description
_atom_site_fract_x
_atom_site_fract_y
_atom_site_fract_z
_atom_type_partial_charge
Br1   Br    Br    0.504387 0.687389 0.049117 -0.487505
C1    C     C_R   0.498523 0.483560 0.315875 0.537552
C2    C     C_1   0.498509 0.474302 0.212650 0.007699
C3    C     C_2   0.464485 0.028189 0.473544 -0.156127
C4    C     C_R   0.259473 0.500189 0.500101 0.538887
C5    C     C_2   0.535537 0.971806 0.526412 -0.158312
C6    C     C_1   0.525539 0.854621 0.519109 0.151109
C7    C     C_1   0.474470 0.145377 0.480869 0.140848
C8    C     C_R   0.501488 0.516468 0.684132 0.536950
C9    C     C_R   0.740449 0.499535 0.499900 0.538448
C10   C     C_3   0.063472 0.384409 0.490985 -0.225882
C11   C     C_3   0.921415 0.384322 0.495592 -0.228426
C12   C     C_3   0.878080 0.499015 0.498785 0.048786
C13   C     C_3   0.075052 0.566155 0.596215 -0.120509
C14   C     C_3   0.076409 0.550601 0.412917 -0.228287
C15   C     C_3   0.121680 0.500099 0.501206 0.048492
C16   C     C_3   0.122235 0.529356 0.690202 -0.407568
C17   C     C_3   0.879726 0.496905 0.311286 -0.406051
C18   C     C_3   0.930742 0.565040 0.593930 -0.227373
C19   C     C_3   0.932135 0.550162 0.410556 -0.119894
C20   C     C_1   0.501427 0.526177 0.787390 -0.025935
C21   C     C_2   0.501158 0.546706 0.978277 0.176987
C22   C     C_2   0.498833 0.459606 0.021981 -0.100307
C23   C     C_1   0.498624 0.466721 0.125699 0.004026
C24   C     C_1   0.501308 0.535716 0.874431 -0.012654
Cu1   Cu    Cu3+1 0.491980 0.395330 0.493960 0.970988
Cu2   Cu    Cu3+1 0.508020 0.604670 0.506040 0.994526
H1    H     H_    0.098735 0.341257 0.548817 0.136104
H2    H     H_    0.889509 0.350952 0.561748 0.126647
H3    H     H_    0.889897 0.531945 0.657596 0.123578
H4    H     H_    0.115440 0.633852 0.417436 0.124139
H5    H     H_    0.112772 0.506872 0.344805 0.125480
H6    H     H_    0.085460 0.447704 0.696840 0.137019
H7    H     H_    0.225453 0.531969 0.692715 0.149533
H8    H     H_    0.091001 0.583261 0.754134 0.142779
H9    H     H_    0.906822 0.413640 0.295044 0.137507
H10   H     H_    0.776737 0.498186 0.308956 0.150358
H11   H     H_    0.916773 0.540985 0.253090 0.144395
H12   H     H_    0.905754 0.634212 0.418598 0.150661
H13   H     H_    0.111586 0.649866 0.597814 0.147742
H14   H     H_    0.901805 0.648148 0.599282 0.123558
H15   H     H_    0.497059 0.381315 0.979414 0.098739
H16   H     H_    0.603966 0.014129 0.577212 0.126712
H17   H     H_    0.396059 0.985867 0.422741 0.135927
H18   H     H_    0.090457 0.339733 0.420286 0.129376
H19   H     H_    0.880042 0.331030 0.432125 0.136957
N1    N     N_1   0.479930 0.238040 0.484880 -0.187720
N2    N     N_1   0.520070 0.761960 0.515120 -0.182975
O1    O     O_R   0.492240 0.399110 0.356330 -0.495264
O2    O     O_R   0.505790 0.575900 0.366540 -0.475454
O3    O     O_R   0.310920 0.411610 0.494880 -0.504602
O4    O     O_R   0.324460 0.588390 0.505090 -0.504166
O5    O     O_R   0.494210 0.424100 0.633460 -0.494946
O6    O     O_R   0.507760 0.600890 0.643670 -0.483346
O7    O     O_R   0.675540 0.411610 0.494910 -0.504071
O8    O     O_R   0.689080 0.588390 0.505120 -0.505135

loop_
_geom_bond_atom_site_label_1
_geom_bond_atom_site_label_2
_ccdc_geom_bond_type
Cu2   N2    S    
C10   C11   S    
C4    O4    A    
C14   H4    S    
C5    C6    S    
C1    O1    A    
C11   H2    S    
C9    O8    A    
C10   C15   S    
Cu2   O2    S    
C3    C7    S    
C6    N2    T    
C1    C2    S    
C2    C23   T    
C7    N1    T    
Br1   C21   S    
Cu1   O3    S    
Cu1   O7    S    
C9    O7    A    
C13   C16   S    
C8    C20   S    
Cu1   Cu2   S    
C22   H15   S    
C16   H6    S    
Cu1   N1    S    
C10   H1    S    
C11   H19   S    
C17   H10   S    
C17   C19   S    
C5    H16   S    
C17   H11   S    
C14   C19   S    
C13   C15   S    
C10   H18   S    
C8    O5    A    
C16   H7    S    
C12   C18   S    
C22   C23   S    
C13   H13   S    
C14   C15   S    
Cu1   O5    S    
Cu2   O6    S    
C16   H8    S    
C11   C12   S    
Cu2   O4    S    
C3    C5    D    
Cu1   O1    S    
C19   H12   S    
C20   C24   T    
Cu2   O8    S    
C4    O3    A    
C4    C15   S    
C8    O6    A    
C1    O2    A    
C12   C19   S    
C21   C22   D    
C18   H3    S    
C17   H9    S    
C13   C18   S    
C9    C12   S    
C18   H14   S    
C3    H17   S    
C21   C24   S    
C14   H5    S    
