data_mof_unit_33118.cif
_audit_creation_date              2012-12-11T15:45:19-0500
_audit_creation_method            fapswitch 2.2
_symmetry_space_group_name_H-M    P1
_symmetry_Int_Tables_number       1
_space_group_crystal_system       triclinic
_cell_length_a                    8.351475
_cell_length_b                    19.219962
_cell_length_c                    22.919193
_cell_angle_alpha                 96.442696
_cell_angle_beta                  90.35818
_cell_angle_gamma                 95.165149
_cell_volume                      3640.29995145

loop_
_atom_site_label
_atom_site_type_symbol
_atom_type_description
_atom_site_fract_x
_atom_site_fract_y
_atom_site_fract_z
_atom_type_partial_charge
Ba1   Ba    Ba6+2 0.850680 0.532880 0.472010 1.687012
Ba2   Ba    Ba6+2 0.339140 0.467180 0.527990 1.664214
C1    C     C_3   0.726513 0.788029 0.308657 -0.348298
C2    C     C_R   0.113594 0.558740 0.938751 -0.052931
C3    C     C_R   0.070009 0.555021 0.877938 0.597499
C4    C     C_3   0.065907 0.675821 0.309654 0.332934
C5    C     C_R   0.952588 0.436409 0.878334 0.568941
C6    C     C_R   0.995603 0.437527 0.938291 -0.019439
C7    C     C_R   0.075285 0.498936 0.968762 -0.047401
C8    C     C_R   0.192852 0.620034 0.971109 -0.061975
C9    C     C_R   0.230129 0.620741 0.030927 -0.094465
C10   C     C_R   0.193042 0.561488 0.060750 -0.020946
C11   C     C_R   0.116247 0.500317 0.029620 -0.048330
C12   C     C_3   0.669131 0.717989 0.331520 0.284639
C13   C     C_R   0.959911 0.378283 0.968558 -0.070830
C14   C     C_R   0.002166 0.379589 0.027821 -0.068578
C15   C     C_R   0.080408 0.440403 0.059232 -0.031874
C16   C     C_3   0.043177 0.693140 0.246522 -0.266434
C17   C     C_R   0.124847 0.442248 0.119372 0.597623
C18   C     C_R   0.231926 0.562491 0.121156 0.574343
C19   C     C_2   0.783290 0.478941 0.770476 -0.042761
C20   C     C_3   0.731060 0.485245 0.707826 -0.020732
C21   C     C_1   0.010194 0.511481 0.684550 0.081244
C22   C     C_2   0.059505 0.511369 0.740168 -0.085310
C23   C     C_3   0.491109 0.363096 0.350908 0.288854
C24   C     C_2   0.940453 0.493437 0.786936 0.229649
C25   C     C_R   0.405814 0.531679 0.230791 -0.102678
C26   C     C_R   0.452009 0.536519 0.290116 0.033106
C27   C     C_R   0.190465 0.483212 0.314274 0.010621
C28   C     C_3   0.213959 0.683229 0.602766 0.316014
C29   C     C_R   0.141576 0.479482 0.254665 -0.096681
C30   C     C_R   0.248522 0.504524 0.211990 0.196806
C31   C     C_2   0.870338 0.478932 0.666635 -0.273458
C32   C     C_R   0.376465 0.705188 0.487014 -0.236247
C33   C     C_R   0.532593 0.726188 0.508499 0.038771
C34   C     C_3   0.484585 0.344254 0.284359 -0.276729
C35   C     C_R   0.588492 0.798938 0.512334 -0.106698
C36   C     C_R   0.487934 0.847341 0.491586 -0.080083
C37   C     C_R   0.335792 0.823034 0.466701 -0.081456
C38   C     C_R   0.279677 0.752096 0.464359 0.064603
C39   C     C_R   0.570231 0.955980 0.444729 -0.061599
C40   C     C_3   0.263150 0.759880 0.625481 -0.338676
C41   C     C_R   0.632218 0.026987 0.447280 -0.035429
C42   C     C_R   0.659913 0.067462 0.503147 0.027618
C43   C     C_R   0.629919 0.034284 0.554128 -0.029810
C44   C     C_R   0.570668 0.963475 0.550562 -0.030999
C45   C     C_3   0.082826 0.316361 0.688882 0.274839
C46   C     C_R   0.540221 0.923868 0.495823 0.064601
C47   C     C_R   0.850597 0.172870 0.539289 -0.113900
C48   C     C_R   0.896603 0.245485 0.545075 0.010027
C49   C     C_R   0.655426 0.264823 0.491940 -0.008987
C50   C     C_R   0.605043 0.191958 0.486872 -0.050038
C51   C     C_R   0.705016 0.145270 0.510116 -0.009402
C52   C     C_3   0.002185 0.316983 0.404641 0.269079
C53   C     C_R   0.796950 0.290602 0.522577 -0.288978
C54   C     C_3   0.054022 0.242957 0.395582 -0.309360
C55   C     C_3   0.682454 0.643077 0.658545 0.322105
C56   C     C_3   0.131418 0.302445 0.750481 -0.244989
C57   C     C_3   0.549051 0.639023 0.704173 -0.333826
C58   C     C_2   0.832118 0.674829 0.692021 0.858520
C59   C     C_2   0.496249 0.716586 0.346935 0.789927
C60   C     C_1   0.647108 0.340537 0.260822 0.342315
C61   C     C_1   0.175064 0.741721 0.228951 0.456769
C62   C     C_1   0.038103 0.240047 0.768084 0.355241
C63   C     C_1   0.238787 0.683850 0.945065 0.373409
C64   C     C_2   0.449726 0.164011 0.457816 0.868805
C65   C     C_2   0.667957 0.056075 0.390826 0.888369
C66   C     C_2   0.749361 0.825935 0.537695 0.896914
C67   C     C_3   0.580774 0.291438 0.660247 0.337847
C68   C     C_3   0.594763 0.221023 0.683070 -0.342571
C69   C     C_R   0.344233 0.512569 0.331149 -0.287711
H1    H     H_    0.739926 0.714574 0.371921 0.060938
H2    H     H_    0.699714 0.590151 0.635969 -0.078249
H3    H     H_    0.859173 0.796459 0.309067 0.136705
H4    H     H_    0.562917 0.684636 0.738874 0.107825
H5    H     H_    0.547654 0.590236 0.725672 0.090388
H6    H     H_    0.431128 0.641985 0.683755 0.148520
H7    H     H_    0.685358 0.832947 0.337738 0.113784
H8    H     H_    0.367874 0.371828 0.365947 0.012662
H9    H     H_    0.571693 0.412255 0.361791 0.026874
H10   H     H_    0.425168 0.384500 0.263293 0.030447
H11   H     H_    0.413625 0.292725 0.273076 0.135127
H12   H     H_    0.352630 0.762925 0.661925 0.138820
H13   H     H_    0.679461 0.789500 0.263401 0.159105
H14   H     H_    0.144218 0.368137 0.681487 0.084377
H15   H     H_    0.950572 0.319019 0.686259 -0.037079
H16   H     H_    0.110903 0.348620 0.782153 0.086276
H17   H     H_    0.261331 0.294473 0.751961 0.125142
H18   H     H_    0.695038 0.306653 0.638471 -0.052806
H19   H     H_    0.479271 0.284981 0.627867 0.092817
H20   H     H_    0.619359 0.181270 0.646064 0.067525
H21   H     H_    0.480760 0.203529 0.703999 0.137332
H22   H     H_    0.962655 0.641305 0.321789 0.093960
H23   H     H_    0.317077 0.788642 0.590225 0.044404
H24   H     H_    0.694792 0.225661 0.715779 0.141270
H25   H     H_    0.972630 0.332613 0.049070 0.133917
H26   H     H_    0.899202 0.330299 0.946374 0.132350
H27   H     H_    0.289892 0.668319 0.054323 0.127520
H28   H     H_    0.491958 0.549773 0.199466 0.117902
H29   H     H_    0.184116 0.526939 0.752567 0.122125
H30   H     H_    0.692567 0.469028 0.802995 0.095495
H31   H     H_    0.021460 0.457151 0.241680 0.144348
H32   H     H_    0.381971 0.515314 0.376670 0.096754
H33   H     H_    0.169982 0.644757 0.307531 -0.027810
H34   H     H_    0.157121 0.786515 0.641651 0.167058
H35   H     H_    0.858922 0.445079 0.625289 0.055108
H36   H     H_    0.549535 0.924502 0.402642 0.118013
H37   H     H_    0.649529 0.063761 0.597045 0.069380
H38   H     H_    0.548903 0.939327 0.590609 0.071788
H39   H     H_    0.929454 0.137811 0.556180 0.098897
H40   H     H_    0.261546 0.859266 0.448929 0.111520
H41   H     H_    0.834491 0.346327 0.526147 0.057072
H42   H     H_    0.038685 0.643598 0.216318 0.080179
H43   H     H_    0.332110 0.650289 0.485157 0.075314
H44   H     H_    0.929019 0.715966 0.240073 0.101404
H45   H     H_    0.870255 0.314394 0.408846 0.012801
H46   H     H_    0.322980 0.658092 0.588263 -0.008113
H47   H     H_    0.126094 0.680847 0.565851 0.043043
H48   H     H_    0.985923 0.670381 0.759302 0.352955
H49   H     H_    0.321363 0.649397 0.375772 0.275364
H50   H     H_    0.239087 0.104825 0.462477 0.319073
H51   H     H_    0.788136 0.129335 0.347866 0.322738
H52   H     H_    0.905395 0.834243 0.605883 0.317111
H53   H     H_    0.061404 0.343523 0.445702 0.061951
H54   H     H_    0.001350 0.215084 0.353950 0.143655
H55   H     H_    0.015879 0.213446 0.432714 0.105962
H56   H     H_    0.186561 0.245623 0.392395 0.169515
N1    N     N_R   0.990360 0.494569 0.848568 -0.428268
N2    N     N_R   0.199296 0.503109 0.150187 -0.425036
N3    N     N_1   0.775222 0.337634 0.242298 -0.236370
N4    N     N_1   0.278632 0.780042 0.214741 -0.217219
N5    N     N_1   0.964698 0.190823 0.782034 -0.267410
N6    N     N_1   0.275837 0.735016 0.924369 -0.242124
O1    O     O_2   0.896730 0.461690 0.361000 -0.453196
O2    O     O_2   0.229772 0.252609 0.540562 -0.458617
O3    O     O_3   0.131494 0.262851 0.647695 -0.597460
O4    O     O_3   0.137170 0.462400 0.432040 -0.497436
O5    O     O_3   0.560670 0.583970 0.528500 -0.485895
O6    O     O_2   0.373560 0.329680 0.473470 -0.464689
O7    O     O_3   0.547044 0.307218 0.377141 -0.599178
O8    O     O_2   0.395734 0.451924 0.705416 -0.503877
O9    O     O_3   0.551910 0.341770 0.707392 -0.594578
O10   O     O_2   0.100314 0.606035 0.851318 -0.585916
O11   O     O_2   0.881572 0.383327 0.852537 -0.601473
O12   O     O_3   0.639990 0.689755 0.619553 -0.607641
O13   O     O_2   0.099591 0.389136 0.143853 -0.578168
O14   O     O_2   0.294459 0.616746 0.147962 -0.608738
O15   O     O_3   0.657500 0.588540 0.395070 -0.444387
O16   O     O_2   0.783121 0.533411 0.292286 -0.515507
O17   O     O_3   0.044524 0.349517 0.354620 -0.614312
O18   O     O_3   0.692477 0.660471 0.289051 -0.635339
O19   O     O_2   0.816140 0.670340 0.526560 -0.454789
O20   O     O_3   0.069580 0.624410 0.423530 -0.520741
O21   O     O_2   0.942224 0.745326 0.452335 -0.475928
O22   O     O_2   0.897786 0.731221 0.681174 -0.557651
O23   O     O_3   0.087776 0.737226 0.350398 -0.585102
O24   O     O_R   0.887717 0.642955 0.739100 -0.794212
O25   O     O_2   0.409289 0.759683 0.332478 -0.605384
O26   O     O_R   0.438252 0.662778 0.378287 -0.805572
O27   O     O_2   0.420636 0.175748 0.407747 -0.594078
O28   O     O_R   0.339815 0.121329 0.486908 -0.746882
O29   O     O_2   0.601424 0.028044 0.345357 -0.573357
O30   O     O_R   0.778524 0.114619 0.388887 -0.776949
O31   O     O_2   0.839463 0.864402 0.510915 -0.605382
O32   O     O_R   0.794857 0.811107 0.593264 -0.704625
O33   O     O_2   0.292960 0.538340 0.639040 -0.481036
O34   O     O_3   0.052540 0.537650 0.567960 -0.493129
O35   O     O_3   0.532200 0.411510 0.604930 -0.478400
O36   O     O_3   0.143853 0.650063 0.648439 -0.617612
O37   O     O_3   0.629030 0.416090 0.471500 -0.484128
O38   O     O_3   0.120120 0.375640 0.576470 -0.497363
P1    P     P_3+3 0.067040 0.441110 0.370020 1.003381
P2    P     P_3+3 0.640420 0.660110 0.543790 1.048224
P3    P     P_3+3 0.092180 0.715906 0.423628 0.978254
P4    P     P_3+3 0.122660 0.558950 0.629980 0.994275
P5    P     P_3+3 0.093011 0.283909 0.576899 0.954541
P6    P     P_3+3 0.649542 0.578381 0.316987 0.974902
P7    P     P_3+3 0.553089 0.328158 0.453472 0.989233
P8    P     P_3+3 0.553163 0.424115 0.681390 0.959146

loop_
_geom_bond_atom_site_label_1
_geom_bond_atom_site_label_2
_ccdc_geom_bond_type
C17   N2    Am   
C19   C24   D    
O3    P5    S    
O15   P6    S    
C55   O12   S    
C45   O3    S    
C23   H9    S    
C60   N3    T    
C68   H20   S    
C18   N2    Am   
C56   H16   S    
C57   H6    S    
C64   O27   D    
Ba1   O4    S    
C5    C6    A    
C52   O17   S    
C43   C44   A    
C42   C43   A    
O23   P3    S    
O33   P4    D    
O37   P7    S    
C9    H27   S    
C32   C38   A    
Ba2   O6    S    
C45   H14   S    
C33   C35   A    
C22   C24   S    
C32   C33   A    
C59   O26   S    
C36   C37   A    
C53   H41   S    
C34   C60   S    
C16   C61   S    
O18   P6    S    
C21   P4    S    
Ba1   O34   S    
C13   C14   A    
C35   C66   S    
Ba1   O37   S    
Ba1   O19   S    
C48   P5    S    
Ba1   Ba2   S    
C54   H56   S    
C55   H2    S    
C1    H3    S    
C7    C11   A    
C30   N2    S    
O4    P1    S    
C52   H53   S    
C42   C51   S    
O17   P1    S    
C62   N5    T    
C34   H11   S    
C14   C15   A    
C21   C31   D    
C52   H45   S    
C12   O18   S    
H49   O26   S    
O7    P7    S    
C21   C22   D    
C54   H55   S    
C5    N1    Am   
C49   P7    S    
C26   P6    S    
Ba2   O33   S    
C36   C46   S    
C43   H37   S    
Ba2   O38   S    
C19   H30   S    
C66   O32   S    
C37   H40   S    
H50   O28   S    
O1    P1    D    
C19   C20   S    
C39   C41   A    
C40   H23   S    
C13   H26   S    
C67   H18   S    
C16   H42   S    
C5    O11   D    
C44   C46   A    
C66   O31   D    
C56   C62   S    
C4    C16   S    
C52   C54   S    
C14   H25   S    
C17   O13   D    
O21   P3    D    
C49   C50   A    
Ba2   O5    S    
C29   H31   S    
C23   O7    S    
C58   O24   S    
C37   C38   A    
C6    C7    A    
C55   C58   S    
C28   H47   S    
C67   O9    S    
C12   C59   S    
O20   P3    S    
H51   O30   S    
C64   O28   S    
C33   P2    S    
C41   C42   A    
C45   H15   S    
C28   O36   S    
C35   C36   A    
Ba2   P4    S    
Ba2   O35   S    
C29   C30   A    
O9    P8    S    
C34   H10   S    
H48   O24   S    
C4    H22   S    
C25   H28   S    
C10   C18   A    
O5    P2    S    
O16   P6    D    
O36   P4    S    
C18   O14   D    
C24   N1    S    
C54   H54   S    
Ba1   O20   S    
C1    C12   S    
C61   N4    T    
Ba2   O37   S    
O19   P2    D    
O12   P2    S    
C6    C13   A    
C4    H33   S    
Ba1   P2    S    
C26   C69   A    
C2    C8    A    
C67   H19   S    
C57   H4    S    
C25   C26   A    
C50   C64   S    
C50   C51   A    
O34   P4    S    
C8    C63   S    
C20   C31   S    
C69   H32   S    
C39   H36   S    
C25   C30   A    
C22   H29   S    
Ba2   O4    S    
C12   H1    S    
C68   H21   S    
C31   H35   S    
C20   P8    S    
C56   H17   S    
C16   H44   S    
C9    C10   A    
C28   H46   S    
C32   H43   S    
O35   P8    S    
O38   P5    S    
Ba1   P1    S    
C48   C53   A    
C11   C15   A    
O2    P5    D    
C68   H24   S    
C40   H12   S    
C58   O22   D    
C3    O10   D    
C27   C29   A    
O6    P7    D    
C59   O25   D    
C45   C56   S    
C38   P3    S    
C65   O29   D    
O8    P8    D    
C47   C51   A    
Ba2   O34   S    
C3    N1    Am   
C15   C17   A    
C39   C46   A    
C49   C53   A    
C27   P1    S    
C67   C68   S    
C40   H34   S    
C4    O23   S    
C23   H8    S    
C55   C57   S    
C8    C9    A    
C23   C34   S    
H52   O32   S    
C65   O30   S    
C2    C3    A    
C10   C11   A    
C41   C65   S    
C47   C48   A    
C44   H38   S    
C1    H13   S    
C28   C40   S    
Ba1   O15   S    
C2    C7    A    
C1    H7    S    
C57   H5    S    
C63   N6    T    
Ba1   O5    S    
Ba1   O1    S    
C47   H39   S    
C27   C69   A    
