data_mof_unit_35141.cif
_audit_creation_date              2012-12-11T15:27:19-0500
_audit_creation_method            fapswitch 2.2
_symmetry_space_group_name_H-M    P1
_symmetry_Int_Tables_number       1
_space_group_crystal_system       triclinic
_cell_length_a                    13.838547
_cell_length_b                    13.949155
_cell_length_c                    27.419485
_cell_angle_alpha                 89.929269
_cell_angle_beta                  89.979561
_cell_angle_gamma                 119.482524
_cell_volume                      4607.53649687

loop_
_atom_site_label
_atom_site_type_symbol
_atom_type_description
_atom_site_fract_x
_atom_site_fract_y
_atom_site_fract_z
_atom_type_partial_charge
C1    C     C_R   0.235096 0.786131 0.569045 0.540397
C2    C     C_1   0.702454 0.864326 0.859890 -0.052843
C3    C     C_3   0.399235 0.801291 0.893539 -0.370106
C4    C     C_3   0.029060 0.394080 0.862280 -0.015820
C5    C     C_3   0.975483 0.465599 0.868821 -0.354459
C6    C     C_1   0.122307 0.861939 0.855122 -0.057661
C7    C     C_1   0.114257 0.233154 0.851184 -0.046789
C8    C     C_1   0.620309 0.807989 0.659750 -0.070218
C9    C     C_1   0.188021 0.806959 0.659512 -0.074150
C10   C     C_1   0.178553 0.363697 0.656411 -0.073002
C11   C     C_1   0.595985 0.792372 0.617254 -0.012609
C12   C     C_1   0.205940 0.799815 0.617256 -0.011323
C13   C     C_1   0.193366 0.396160 0.615135 -0.011865
C14   C     C_R   0.070331 0.161764 0.941706 0.537222
C15   C     C_R   0.212630 0.446800 0.568499 0.542891
C16   C     C_R   0.780128 0.887744 0.948970 0.527274
C17   C     C_R   0.093478 0.925156 0.941416 0.527800
C18   C     C_R   0.612493 0.806645 0.385196 0.024555
C19   C     C_R   0.191811 0.807855 0.386037 0.024511
C20   C     C_R   0.187304 0.373829 0.388619 0.023557
C21   C     C_R   0.598718 0.886048 0.359296 -0.126302
C22   C     C_R   0.108203 0.718026 0.360631 -0.125921
C23   C     C_R   0.274237 0.382175 0.359256 -0.128090
C24   C     C_R   0.625592 0.903906 0.310325 -0.126957
C25   C     C_R   0.089570 0.728665 0.311865 -0.124963
C26   C     C_R   0.551787 0.764587 0.569025 0.540245
C27   C     C_R   0.251572 0.328947 0.314345 -0.122262
C28   C     C_R   0.670066 0.845332 0.286749 0.039846
C29   C     C_R   0.152245 0.829940 0.288141 0.039577
C30   C     C_R   0.141451 0.265079 0.298346 0.039808
C31   C     C_R   0.232963 0.787623 0.431715 0.541779
C32   C     C_R   0.212283 0.444946 0.431604 0.542270
C33   C     C_R   0.554208 0.766529 0.431529 0.542072
C34   C     C_R   0.695088 0.774740 0.313925 -0.115794
C35   C     C_R   0.227335 0.922708 0.314859 -0.115701
C36   C     C_R   0.054363 0.249407 0.329690 -0.116214
C37   C     C_3   0.619633 0.721035 0.794034 0.139636
C38   C     C_R   0.665115 0.754389 0.362852 -0.131048
C39   C     C_R   0.247629 0.911580 0.363592 -0.129161
C40   C     C_R   0.077132 0.304367 0.374232 -0.129259
C41   C     C_R   0.662097 0.759010 0.206523 -0.132742
C42   C     C_R   0.239898 0.899451 0.207167 -0.131778
C43   C     C_R   0.035598 0.236072 0.221335 -0.141724
C44   C     C_R   0.683239 0.767712 0.156852 -0.152980
C45   C     C_R   0.231284 0.909882 0.157262 -0.143874
C46   C     C_R   0.020461 0.212612 0.171892 -0.156780
C47   C     C_R   0.729897 0.960041 0.158902 0.245696
C48   C     C_3   0.268297 0.876609 0.795520 0.131322
C49   C     C_R   0.032290 0.783517 0.161886 0.249639
C50   C     C_R   0.174489 0.175169 0.171529 0.254035
C51   C     C_R   0.714680 0.952334 0.209294 -0.104887
C52   C     C_R   0.041091 0.777165 0.212129 -0.100864
C53   C     C_R   0.185871 0.194433 0.222211 -0.110995
C54   C     C_R   0.683329 0.852647 0.233542 -0.006003
C55   C     C_R   0.144160 0.836521 0.235141 -0.008629
C56   C     C_R   0.118552 0.227664 0.247071 -0.005240
C57   C     C_R   0.723680 0.869580 0.133349 0.028522
C58   C     C_R   0.127143 0.856767 0.134686 0.027872
C59   C     C_3   0.063871 0.331626 0.787618 0.139457
C60   C     C_R   0.089041 0.182053 0.146343 0.029749
C61   C     C_R   0.067530 0.155058 0.093949 0.608561
C62   C     C_R   0.777982 0.885145 0.086063 0.567130
C63   C     C_R   0.114818 0.893635 0.086393 0.573910
C64   C     C_3   0.587341 0.888527 0.733910 -0.193307
C65   C     C_3   0.087081 0.702591 0.733796 -0.192938
C66   C     C_3   0.275762 0.381719 0.733967 -0.188664
C67   C     C_3   0.766056 0.885852 0.723166 -0.246921
C68   C     C_3   0.124393 0.895400 0.717881 -0.244367
C69   C     C_3   0.105230 0.204657 0.711871 -0.243887
C70   C     C_3   0.587961 0.707940 0.738724 -0.182440
C71   C     C_3   0.786212 0.903022 0.778671 -0.266219
C72   C     C_3   0.113739 0.913172 0.772363 -0.259627
C73   C     C_3   0.083770 0.169845 0.765914 -0.270819
C74   C     C_1   0.732816 0.875158 0.901596 -0.055308
C75   C     C_1   0.108711 0.889286 0.894881 -0.035280
C76   C     C_1   0.096682 0.200862 0.892666 -0.045228
C77   C     C_3   0.640276 0.822153 0.712554 -0.006790
C78   C     C_3   0.170923 0.816409 0.711548 -0.000546
C79   C     C_3   0.162185 0.331137 0.707716 -0.005616
C80   C     C_3   0.595577 0.890106 0.790526 0.178568
C81   C     C_3   0.283159 0.863980 0.739685 -0.172212
C82   C     C_3   0.074106 0.715882 0.789747 0.190314
C83   C     C_3   0.256758 0.353029 0.789118 0.190550
C84   C     C_3   0.675474 0.846536 0.807726 0.070337
C85   C     C_3   0.142482 0.839814 0.804989 0.074775
C86   C     C_3   0.131035 0.271096 0.800270 0.076663
C87   C     C_3   0.713306 0.082567 0.805816 -0.001652
C88   C     C_3   0.701693 0.184612 0.812717 -0.384218
C89   C     C_3   0.884415 0.675110 0.785900 -0.004591
C90   C     C_3   0.788294 0.564170 0.770458 -0.391956
C91   C     C_3   0.328052 0.228014 0.795707 -0.004814
C92   C     C_3   0.088583 0.372021 0.733475 -0.179574
C93   C     C_3   0.442319 0.237960 0.799364 -0.391560
C94   C     C_3   0.673803 0.076851 0.129412 -0.018496
C95   C     C_3   0.711499 0.184209 0.101862 -0.369910
C96   C     C_3   0.906499 0.620955 0.128711 -0.005217
C97   C     C_3   0.791764 0.557621 0.105911 -0.364063
C98   C     C_3   0.356157 0.223790 0.154224 -0.007332
C99   C     C_3   0.423853 0.225910 0.110080 -0.353692
C100  C     C_3   0.550488 0.628133 0.869106 -0.022328
C101  C     C_3   0.482457 0.506030 0.879665 -0.343087
C102  C     C_3   0.318763 0.834597 0.871977 0.004565
Cr1   Cr    Cr6+3 0.164410 0.584450 0.499910 1.016361
Cr2   Cr    Cr6+3 0.415550 0.579960 0.499910 1.018641
Cr3   Cr    Cr6+3 0.420040 0.835590 0.499910 1.015107
Cr4   Cr    Cr6+3 0.156760 0.076070 0.017830 1.025114
Cr5   Cr    Cr6+3 0.923930 0.080690 0.017830 1.016704
Cr6   Cr    Cr6+3 0.919310 0.843240 0.017830 1.018098
H1    H     H_    0.498711 0.849149 0.722986 0.094828
H2    H     H_    0.558346 0.927908 0.375562 0.135029
H3    H     H_    0.063383 0.637021 0.377067 0.133975
H4    H     H_    0.360049 0.435407 0.369523 0.129025
H5    H     H_    0.604537 0.958204 0.290459 0.092589
H6    H     H_    0.031359 0.655725 0.292114 0.095602
H7    H     H_    0.320605 0.343810 0.290930 0.093297
H8    H     H_    0.731668 0.025791 0.229355 0.105754
H9    H     H_    0.966239 0.728099 0.233119 0.113880
H10   H     H_    0.248250 0.184869 0.242021 0.095087
H11   H     H_    0.677860 0.693987 0.382390 0.124572
H12   H     H_    0.119094 0.644125 0.728304 0.100683
H13   H     H_    0.311261 0.982412 0.382764 0.125944
H14   H     H_    0.008704 0.295247 0.396700 0.125037
H15   H     H_    0.805975 0.839068 0.708884 0.116574
H16   H     H_    0.180382 0.976135 0.700254 0.118923
H17   H     H_    0.025011 0.166118 0.691723 0.121579
H18   H     H_    0.832806 0.991009 0.787171 0.101706
H19   H     H_    0.030278 0.902178 0.780545 0.112228
H20   H     H_    0.115318 0.113876 0.774788 0.106199
H21   H     H_    0.840847 0.869778 0.790294 0.085106
H22   H     H_    0.174643 0.999606 0.780813 0.077839
H23   H     H_    0.320492 0.472877 0.729362 0.102059
H24   H     H_    0.993450 0.120791 0.771423 0.088965
H25   H     H_    0.496085 0.665719 0.734633 0.149281
H26   H     H_    0.317906 0.807988 0.734040 0.151162
H27   H     H_    0.131294 0.463600 0.732003 0.151296
H28   H     H_    0.748526 0.088041 0.768923 0.112475
H29   H     H_    0.771918 0.084451 0.833964 0.136908
H30   H     H_    0.669892 0.184988 0.849876 0.156763
H31   H     H_    0.783669 0.259788 0.807979 0.086586
H32   H     H_    0.643186 0.185663 0.785290 0.151584
H33   H     H_    0.913864 0.729893 0.753690 0.115252
H34   H     H_    0.511606 0.826092 0.802527 0.206364
H35   H     H_    0.853744 0.713063 0.812823 0.138930
H36   H     H_    0.747835 0.512604 0.803111 0.150026
H37   H     H_    0.726049 0.575924 0.749831 0.090717
H38   H     H_    0.819085 0.520546 0.746674 0.150300
H39   H     H_    0.299170 0.204495 0.757647 0.119727
H40   H     H_    0.272091 0.162471 0.821353 0.141713
H41   H     H_    0.472183 0.254749 0.837658 0.151237
H42   H     H_    0.438217 0.160144 0.787278 0.092316
H43   H     H_    0.502086 0.306210 0.775711 0.151024
H44   H     H_    0.632511 0.679716 0.223955 0.110282
H45   H     H_    0.116004 0.674480 0.807343 0.194146
H46   H     H_    0.321091 0.942522 0.223992 0.105698
H47   H     H_    0.984237 0.264386 0.238992 0.112829
H48   H     H_    0.674057 0.696255 0.137346 0.136596
H49   H     H_    0.305211 0.963668 0.136702 0.125784
H50   H     H_    0.956313 0.221435 0.153356 0.184057
H51   H     H_    0.638883 0.082936 0.165143 0.113423
H52   H     H_    0.607709 0.008732 0.107606 0.122284
H53   H     H_    0.746431 0.180617 0.065863 0.160132
H54   H     H_    0.639856 0.197950 0.096011 0.082453
H55   H     H_    0.776042 0.254182 0.123129 0.142606
H56   H     H_    0.274668 0.431468 0.807116 0.194319
H57   H     H_    0.907986 0.575113 0.161787 0.110199
H58   H     H_    0.968461 0.624356 0.101753 0.122212
H59   H     H_    0.787054 0.601425 0.072914 0.168639
H60   H     H_    0.774913 0.473964 0.095299 0.080253
H61   H     H_    0.727644 0.549491 0.132532 0.136439
H62   H     H_    0.387254 0.199650 0.186745 0.114727
H63   H     H_    0.370325 0.309184 0.159366 0.114191
H64   H     H_    0.393486 0.248533 0.076909 0.165218
H65   H     H_    0.512579 0.287713 0.115754 0.072566
H66   H     H_    0.416873 0.143981 0.104561 0.142976
H67   H     H_    0.681258 0.692366 0.797866 0.101830
H68   H     H_    0.733364 0.731700 0.296896 0.106666
H69   H     H_    0.273771 0.002565 0.297532 0.101513
H70   H     H_    0.968591 0.198332 0.318872 0.107596
H71   H     H_    0.627463 0.972538 0.717982 0.129206
H72   H     H_    0.007121 0.666388 0.713849 0.123314
H73   H     H_    0.329458 0.352642 0.716886 0.131101
H74   H     H_    0.805504 0.967290 0.704464 0.118075
H75   H     H_    0.042081 0.861724 0.699808 0.115188
H76   H     H_    0.158130 0.173984 0.695109 0.117103
H77   H     H_    0.616322 0.654623 0.720801 0.095697
H78   H     H_    0.321147 0.965386 0.804806 0.111550
H79   H     H_    0.344064 0.945513 0.724175 0.093547
H80   H     H_    0.008861 0.341455 0.713400 0.091370
H81   H     H_    0.529830 0.672175 0.897343 0.142591
H82   H     H_    0.639315 0.651077 0.873757 0.121093
H83   H     H_    0.506026 0.460364 0.853579 0.198190
H84   H     H_    0.500401 0.488934 0.917160 0.089123
H85   H     H_    0.392652 0.478971 0.877211 0.192741
H86   H     H_    0.238109 0.782536 0.890459 0.149004
H87   H     H_    0.349808 0.923048 0.880556 0.137054
H88   H     H_    0.485689 0.861878 0.883534 0.185664
H89   H     H_    0.972893 0.271963 0.789220 0.089556
H90   H     H_    0.393096 0.799280 0.933952 0.088430
H91   H     H_    0.378883 0.718150 0.880411 0.185373
H92   H     H_    0.086022 0.409358 0.893469 0.168744
H93   H     H_    0.962321 0.306318 0.864552 0.111063
H94   H     H_    0.923838 0.457768 0.836494 0.189657
H95   H     H_    0.921669 0.438758 0.901727 0.096437
H96   H     H_    0.040473 0.552809 0.873750 0.176064
O1    O     O_R   0.137310 0.468260 0.552980 -0.511846
O2    O     O_R   0.139940 0.470480 0.446230 -0.521189
O3    O     O_R   0.529520 0.669460 0.446230 -0.520639
O4    O     O_R   0.330540 0.860060 0.446230 -0.521969
O5    O     O_R   0.176560 0.690850 0.450770 -0.506211
O6    O     O_R   0.309150 0.485710 0.450770 -0.503717
O7    O     O_R   0.514290 0.823440 0.450770 -0.506162
O8    O     O_3   0.333333 0.666667 0.499990 -0.264455
O9    O     O_3   0.000000 0.000000 0.017910 -0.291271
O10   O     O_R   0.149710 0.171070 0.967700 -0.491980
O11   O     O_R   0.828930 0.978640 0.967700 -0.520804
O12   O     O_R   0.531740 0.669050 0.552980 -0.510856
O13   O     O_R   0.021360 0.850290 0.967700 -0.488592
O14   O     O_R   0.178510 0.985930 0.071830 -0.491540
O15   O     O_R   0.014070 0.192580 0.071830 -0.507596
O16   O     O_R   0.807420 0.821490 0.071830 -0.500346
O17   O     O_R   0.147830 0.173300 0.066650 -0.449009
O18   O     O_R   0.826700 0.974530 0.066650 -0.468079
O19   O     O_R   0.025470 0.852170 0.066650 -0.450522
O20   O     O_3   0.608274 0.988192 0.812570 -0.570306
O21   O     O_3   0.964954 0.657370 0.809343 -0.585828
O22   O     O_3   0.335972 0.328515 0.810278 -0.587896
O23   O     O_R   0.330950 0.862690 0.552980 -0.509879
O24   O     O_3   0.765581 0.060202 0.136017 -0.563271
O25   O     O_3   0.928199 0.728046 0.140874 -0.533890
O26   O     O_3   0.243038 0.145767 0.146415 -0.534789
O27   O     O_3   0.523383 0.653348 0.822480 -0.576981
O28   O     O_3   0.306113 0.812228 0.821295 -0.581180
O29   O     O_3   0.092361 0.423676 0.818537 -0.581673
O30   O     O_R   0.180530 0.983530 0.965090 -0.525824
O31   O     O_R   0.016470 0.197000 0.965090 -0.508393
O32   O     O_R   0.803000 0.819470 0.965090 -0.525158
O33   O     O_R   0.174120 0.688790 0.549730 -0.500028
O34   O     O_R   0.311210 0.485330 0.549730 -0.499884
O35   O     O_R   0.514670 0.825880 0.549730 -0.498408

loop_
_geom_bond_atom_site_label_1
_geom_bond_atom_site_label_2
_ccdc_geom_bond_type
C35   H69   S    
C87   C88   S    
Cr6   O32   S    
C68   H75   S    
C94   H51   S    
C18   C21   A    
C64   C77   S    
C93   H41   S    
C100  H81   S    
C67   C77   S    
Cr1   O2    S    
Cr2   O6    S    
C98   H62   S    
C80   C84   S    
C101  H84   S    
C19   C31   S    
C102  H87   S    
Cr1   O5    S    
C5    H96   S    
C91   H39   S    
C72   C85   S    
C64   H1    S    
C81   H26   S    
C41   H44   S    
C17   O30   A    
Cr2   O34   S    
C23   H4    S    
C15   O34   A    
C6    C85   S    
C4    H93   S    
C16   C74   S    
C63   O14   A    
C42   H46   S    
C68   C78   S    
C66   H23   S    
C90   H37   S    
C95   H53   S    
C20   C40   A    
C7    C86   S    
C37   H67   S    
C16   O32   A    
C34   H68   S    
C46   H50   S    
C3    H90   S    
C97   H61   S    
C48   C81   S    
C14   O10   A    
C26   O12   A    
C4    O29   S    
Cr2   O3    S    
Cr3   O7    S    
C88   H32   S    
C70   H77   S    
C66   C83   S    
C98   O26   S    
C82   H45   S    
C2    C84   S    
C26   O35   A    
C47   O24   S    
C22   C25   A    
C31   O5    A    
C70   H25   S    
C3    H91   S    
C71   H18   S    
C69   C73   S    
C23   C27   A    
C3    H88   S    
Cr6   O9    S    
C2    C74   T    
C52   C55   A    
Cr1   O33   S    
C9    C78   S    
Cr5   O18   S    
C52   H9    S    
C1    O23   A    
Cr3   O23   S    
C73   H24   S    
C69   H17   S    
C24   H5    S    
C37   C70   S    
C27   C30   A    
C102  O28   S    
C64   C80   S    
C68   H16   S    
C93   H42   S    
C59   O29   S    
C1    C12   S    
C87   H29   S    
C43   H47   S    
C14   C76   S    
C102  H86   S    
C14   O31   A    
C43   C46   A    
C101  H85   S    
C21   H2    S    
C25   C29   A    
Cr4   O10   S    
C82   O21   S    
C80   O20   S    
C45   C58   A    
C50   C53   A    
C72   H19   S    
C44   H48   S    
C63   O19   A    
C6    C75   T    
C19   C22   A    
C45   H49   S    
Cr2   O12   S    
C95   H54   S    
C5    H94   S    
Cr6   O19   S    
C28   C54   S    
C53   H10   S    
C47   C51   A    
C99   H64   S    
C29   C55   S    
C11   C26   S    
C57   C62   S    
C97   H59   S    
C30   C56   S    
C71   H21   S    
C49   C58   A    
C60   C61   S    
C42   C45   A    
Cr6   O16   S    
C16   O11   A    
C35   C39   A    
C88   H31   S    
C48   H78   S    
C66   C79   S    
C67   H74   S    
C95   H55   S    
C42   C55   A    
C91   C93   S    
C32   O6    A    
Cr5   O9    S    
C20   C23   A    
C36   C40   A    
C44   C57   A    
C68   C72   S    
C49   C52   A    
C96   C97   S    
Cr6   O13   S    
Cr3   O35   S    
C36   H70   S    
C37   C84   S    
C96   O25   S    
Cr3   O8    S    
C88   H30   S    
C79   C92   S    
C15   O1    A    
C19   C39   A    
C70   C77   S    
Cr5   O15   S    
C98   H63   S    
C48   O28   S    
Cr4   O14   S    
C66   H73   S    
C22   H3    S    
C80   H34   S    
C13   C15   S    
C91   O22   S    
C8    C77   S    
C41   C44   A    
C96   H58   S    
C69   C79   S    
C92   H27   S    
C38   H11   S    
C32   O2    A    
C82   C85   S    
C17   O13   A    
C3    C102  S    
Cr3   O4    S    
C71   C84   S    
C20   C32   S    
C53   C56   A    
C58   C63   S    
C37   O27   S    
Cr4   O9    S    
Cr5   O31   S    
C33   O3    A    
C94   H52   S    
C65   C78   S    
Cr4   O30   S    
C46   C60   A    
C34   C38   A    
C87   H28   S    
C48   C85   S    
C100  O27   S    
C100  H82   S    
C24   C28   A    
C89   O21   S    
C4    C5    S    
C101  H83   S    
C10   C13   T    
C67   H15   S    
Cr1   O8    S    
C5    H95   S    
C91   H40   S    
C10   C79   S    
C92   H80   S    
C72   H22   S    
C7    C76   T    
C65   H72   S    
C94   O24   S    
C73   H20   S    
C40   H14   S    
C29   C35   A    
C51   H8    S    
C39   H13   S    
C30   C36   A    
C51   C54   A    
C1    O33   A    
C87   O20   S    
C99   H65   S    
Cr1   O1    S    
C18   C38   A    
C59   C86   S    
C50   C60   A    
C31   O4    A    
C90   H38   S    
C89   H35   S    
C25   H6    S    
C33   O7    A    
C78   C81   S    
C65   C82   S    
C99   H66   S    
C59   H89   S    
C8    C11   T    
C89   H33   S    
C100  C101  S    
C65   H12   S    
C61   O15   A    
C50   O26   S    
C67   C71   S    
C59   C92   S    
C62   O18   A    
C97   H60   S    
C49   O25   S    
C94   C95   S    
C18   C33   S    
C61   O17   A    
C41   C54   A    
C93   H43   S    
C9    C12   T    
C69   H76   S    
C28   C34   A    
Cr4   O17   S    
C43   C56   A    
C4    H92   S    
C83   C86   S    
Cr5   O11   S    
C98   C99   S    
C21   C24   A    
C47   C57   A    
C17   C75   S    
Cr2   O8    S    
C64   H71   S    
C83   H56   S    
C73   C86   S    
C89   C90   S    
C81   H79   S    
C90   H36   S    
C62   O16   A    
C96   H57   S    
C83   O22   S    
C27   H7    S    
