data_mof_unit_12412.cif
_audit_creation_date              2013-03-05T15:45:46-0500
_audit_creation_method            fapswitch 2.2
_symmetry_space_group_name_H-M    P1
_symmetry_Int_Tables_number       1
_space_group_crystal_system       triclinic
_cell_length_a                    18.940755
_cell_length_b                    11.258899
_cell_length_c                    18.711254
_cell_angle_alpha                 89.999522
_cell_angle_beta                  90.268263
_cell_angle_gamma                 90.000357
_cell_volume                      3990.16949086

loop_
_atom_site_label
_atom_site_type_symbol
_atom_site_description
_atom_site_fract_x
_atom_site_fract_y
_atom_site_fract_z
_atom_type_partial_charge
O1    O     O_R   0.214270 0.709000 0.827470 -0.527516
O2    O     O_R   0.785730 0.709000 0.172530 -0.527506
O3    O     O_R   0.714270 0.209000 0.827470 -0.527506
O4    O     O_R   0.285730 0.209000 0.172530 -0.527514
O5    O     O_R   0.236160 0.958490 0.823130 -0.520362
O6    O     O_R   0.763840 0.958490 0.176870 -0.520349
O7    O     O_R   0.736160 0.458490 0.823130 -0.520354
O8    O     O_R   0.263840 0.458490 0.176870 -0.520355
C1    C     C_R   0.271144 0.045223 0.851740 0.571064
C2    C     C_R   0.728856 0.045223 0.148259 0.571047
C3    C     C_R   0.771145 0.545223 0.851741 0.571016
C4    C     C_R   0.228856 0.545223 0.148259 0.571066
O9    O     O_R   0.332080 0.075470 0.831280 -0.457634
O10   O     O_R   0.667920 0.075470 0.168720 -0.457638
O11   O     O_R   0.832080 0.575470 0.831280 -0.457657
O12   O     O_R   0.167920 0.575470 0.168720 -0.457628
O13   O     O_R   0.446300 0.918110 0.826620 -0.497151
O14   O     O_R   0.553700 0.918110 0.173380 -0.497121
O15   O     O_R   0.946300 0.418110 0.826620 -0.497137
O16   O     O_R   0.053700 0.418110 0.173380 -0.497134
C5    C     C_R   0.466702 0.820630 0.856225 0.591782
C6    C     C_R   0.533298 0.820631 0.143775 0.591799
C7    C     C_R   0.966702 0.320630 0.856225 0.591784
C8    C     C_R   0.033298 0.320631 0.143775 0.591799
O17   O     O_R   0.457110 0.716200 0.831760 -0.487920
O18   O     O_R   0.542890 0.716200 0.168240 -0.487927
O19   O     O_R   0.957110 0.216200 0.831760 -0.487928
O20   O     O_R   0.042890 0.216200 0.168240 -0.487917
O21   O     O_R   0.320980 0.624310 0.823030 -0.479776
O22   O     O_R   0.679020 0.624310 0.176970 -0.479793
O23   O     O_R   0.820980 0.124310 0.823030 -0.479805
O24   O     O_R   0.179020 0.124310 0.176970 -0.479779
C9    C     C_R   0.260938 0.644935 0.854363 0.594218
C10   C     C_R   0.739062 0.644935 0.145637 0.594220
C11   C     C_R   0.760938 0.144935 0.854363 0.594218
C12   C     C_R   0.239062 0.144935 0.145637 0.594211
O25   O     O_R   0.213890 0.710430 0.665540 -0.474889
O26   O     O_R   0.786110 0.710430 0.334460 -0.474873
O27   O     O_R   0.713890 0.210430 0.665540 -0.474784
O28   O     O_R   0.286110 0.210430 0.334460 -0.474862
O29   O     O_R   0.235810 0.959820 0.673020 -0.559951
O30   O     O_R   0.764190 0.959820 0.326980 -0.559982
O31   O     O_R   0.735810 0.459820 0.673020 -0.559962
O32   O     O_R   0.264190 0.459820 0.326980 -0.559944
C13   C     C_R   0.268116 0.053907 0.651593 0.561292
C14   C     C_R   0.731875 0.053899 0.348415 0.561136
C15   C     C_R   0.768123 0.553905 0.651588 0.561034
C16   C     C_R   0.231880 0.553905 0.348409 0.561234
O33   O     O_R   0.331700 0.076900 0.669350 -0.430555
O34   O     O_R   0.668300 0.076900 0.330650 -0.430651
O35   O     O_R   0.831700 0.576900 0.669350 -0.430552
O36   O     O_R   0.168300 0.576900 0.330650 -0.430663
O37   O     O_R   0.445950 0.919440 0.676520 -0.451514
O38   O     O_R   0.554050 0.919440 0.323480 -0.451515
O39   O     O_R   0.945950 0.419440 0.676520 -0.451461
O40   O     O_R   0.054050 0.419440 0.323480 -0.451551
C17   C     C_R   0.470992 0.823463 0.647517 0.562050
C18   C     C_R   0.529012 0.823463 0.352484 0.562050
C19   C     C_R   0.970992 0.323467 0.647519 0.561984
C20   C     C_R   0.029013 0.323463 0.352485 0.562088
O41   O     O_R   0.456730 0.717630 0.669840 -0.491768
O42   O     O_R   0.543270 0.717630 0.330160 -0.491867
O43   O     O_R   0.956730 0.217630 0.669840 -0.491873
O44   O     O_R   0.043270 0.217630 0.330160 -0.491815
O45   O     O_R   0.320620 0.625640 0.672920 -0.387675
O46   O     O_R   0.679380 0.625640 0.327080 -0.387611
O47   O     O_R   0.820620 0.125640 0.672920 -0.387555
O48   O     O_R   0.179380 0.125640 0.327080 -0.387685
C21   C     C_R   0.274375 0.683003 0.634898 0.555010
C22   C     C_R   0.725622 0.683016 0.365099 0.555092
C23   C     C_R   0.774379 0.183020 0.634902 0.555177
C24   C     C_R   0.225626 0.182999 0.365103 0.555001
Cr1   Cr    Cr6+3 0.229630 0.835900 0.747350 1.072967
Cr2   Cr    Cr6+3 0.770370 0.835900 0.252650 1.072950
Cr3   Cr    Cr6+3 0.729630 0.335900 0.747350 1.072979
Cr4   Cr    Cr6+3 0.270370 0.335900 0.252650 1.072973
Cr5   Cr    Cr6+3 0.387410 0.989850 0.750850 1.175793
Cr6   Cr    Cr6+3 0.612590 0.989850 0.249150 1.175745
Cr7   Cr    Cr6+3 0.887410 0.489850 0.750850 1.175788
Cr8   Cr    Cr6+3 0.112590 0.489850 0.249150 1.175731
Cr9   Cr    Cr6+3 0.385800 0.677120 0.749340 1.165746
Cr10  Cr    Cr6+3 0.614200 0.677120 0.250660 1.165703
Cr11  Cr    Cr6+3 0.885800 0.177120 0.749340 1.165699
Cr12  Cr    Cr6+3 0.114200 0.177120 0.250660 1.165726
O49   O     O_3   0.334280 0.834290 0.749180 -0.358521
O50   O     O_3   0.665720 0.834290 0.250820 -0.358535
O51   O     O_3   0.834280 0.334290 0.749180 -0.358554
O52   O     O_3   0.165720 0.334290 0.250820 -0.358514
C25   C     C_3   0.472757 0.922750 0.030303 -0.032193
C26   C     C_3   0.527246 0.922748 0.969695 -0.032194
C27   C     C_3   0.972756 0.422749 0.030303 -0.032194
C28   C     C_3   0.027245 0.422749 0.969695 -0.032193
C29   C     C_3   0.429839 0.826105 0.991749 -0.010471
C30   C     C_3   0.570162 0.826102 0.008250 -0.010471
C31   C     C_3   0.929838 0.326104 0.991749 -0.010469
C32   C     C_3   0.070162 0.326104 0.008250 -0.010471
C33   C     C_3   0.485304 0.825627 0.931503 -0.004797
C34   C     C_3   0.514697 0.825628 0.068496 -0.004797
C35   C     C_3   0.985304 0.325627 0.931503 -0.004795
C36   C     C_3   0.014697 0.325628 0.068496 -0.004801
C37   C     C_3   0.527757 0.728325 0.969954 -0.037315
C38   C     C_3   0.472242 0.728327 0.030047 -0.037316
C39   C     C_3   0.027757 0.228326 0.969954 -0.037314
C40   C     C_3   0.972242 0.228326 0.030047 -0.037317
C41   C     C_R   0.298945 0.546816 0.964528 -0.098501
C42   C     C_R   0.701054 0.546816 0.035473 -0.098496
C43   C     C_R   0.798945 0.046815 0.964527 -0.098498
C44   C     C_R   0.201054 0.046816 0.035473 -0.098496
H1    H     H_    0.340653 0.503391 0.935122 0.206193
H2    H     H_    0.659345 0.503392 0.064879 0.206191
H3    H     H_    0.840653 0.003391 0.935122 0.206196
H4    H     H_    0.159345 0.003393 0.064879 0.206190
C45   C     C_R   0.295039 0.528903 0.037209 -0.129564
C46   C     C_R   0.704961 0.528903 0.962791 -0.129551
C47   C     C_R   0.795038 0.028903 0.037209 -0.129560
C48   C     C_R   0.204961 0.028904 0.962791 -0.129556
H5    H     H_    0.329572 0.467045 0.062772 0.194869
H6    H     H_    0.670427 0.467046 0.937229 0.194872
H7    H     H_    0.829572 0.967044 0.062772 0.194870
H8    H     H_    0.170427 0.967046 0.937229 0.194870
C49   C     C_R   0.247471 0.591546 0.078314 0.045431
C50   C     C_R   0.752529 0.591545 0.921686 0.045433
C51   C     C_R   0.747471 0.091546 0.078313 0.045430
C52   C     C_R   0.252529 0.091546 0.921686 0.045434
C53   C     C_R   0.203441 0.677821 0.046876 0.252058
C54   C     C_R   0.796561 0.677819 0.953123 0.252077
C55   C     C_R   0.703441 0.177821 0.046876 0.252067
C56   C     C_R   0.296560 0.177820 0.953123 0.252058
C57   C     C_R   0.196925 0.681845 0.971977 -0.005378
C58   C     C_R   0.803076 0.681844 0.028023 -0.005372
C59   C     C_R   0.696925 0.181844 0.971977 -0.005377
C60   C     C_R   0.303075 0.181845 0.028022 -0.005376
C61   C     C_R   0.248907 0.617927 0.930155 0.010439
C62   C     C_R   0.751093 0.617927 0.069845 0.010439
C63   C     C_R   0.748907 0.117927 0.930155 0.010439
C64   C     C_R   0.251093 0.117927 0.069845 0.010438
C65   C     C_R   0.502940 0.725586 0.536570 -0.154347
C66   C     C_R   0.497073 0.725589 0.463433 -0.154389
C67   C     C_R   0.003008 0.225606 0.536590 -0.154389
C68   C     C_R   0.997142 0.225589 0.463453 -0.154395
H9    H     H_    0.505923 0.641457 0.563826 0.245694
H10   H     H_    0.494082 0.641460 0.436175 0.245636
H11   H     H_    0.006023 0.141481 0.563855 0.245550
H12   H     H_    0.994187 0.141456 0.436203 0.245777
C69   C     C_R   0.500094 0.831285 0.425140 -0.033264
C70   C     C_R   0.499929 0.831277 0.574865 -0.033219
C71   C     C_R   0.000100 0.331275 0.425146 -0.033255
C72   C     C_R   0.999931 0.331305 0.574871 -0.033259
C73   C     C_R   0.497285 0.939982 0.462237 0.169003
C74   C     C_R   0.502776 0.939970 0.537767 0.169144
C75   C     C_R   0.997217 0.439977 0.462231 0.169077
C76   C     C_R   0.002700 0.439997 0.537761 0.169072
C77   C     C_R   0.221278 0.718787 0.513987 -0.084306
C78   C     C_R   0.778694 0.718852 0.486011 -0.084111
C79   C     C_R   0.721284 0.218809 0.513997 -0.084201
C80   C     C_R   0.278687 0.218838 0.486031 -0.084311
C81   C     C_R   0.220596 0.708239 0.439881 0.208522
C82   C     C_R   0.779403 0.708243 0.560108 0.209096
C83   C     C_R   0.720577 0.208214 0.439898 0.208731
C84   C     C_R   0.279355 0.208290 0.560140 0.208646
C85   C     C_R   0.261019 0.621275 0.408469 -0.021237
C86   C     C_R   0.738991 0.621264 0.591522 -0.021396
C87   C     C_R   0.761000 0.121250 0.408485 -0.021350
C88   C     C_R   0.238961 0.121279 0.591539 -0.021178
C89   C     C_R   0.320460 0.581659 0.443320 -0.178087
C90   C     C_R   0.679550 0.581643 0.556671 -0.178069
C91   C     C_R   0.820443 0.081633 0.443334 -0.178005
C92   C     C_R   0.179533 0.081629 0.556679 -0.178138
H13   H     H_    0.358817 0.534762 0.411520 0.177928
H14   H     H_    0.641189 0.534755 0.588471 0.177937
H15   H     H_    0.858797 0.034729 0.411537 0.177951
H16   H     H_    0.141178 0.034722 0.588475 0.177887
C93   C     C_R   0.328671 0.593475 0.517543 0.152257
C94   C     C_R   0.671335 0.593461 0.482448 0.152432
C95   C     C_R   0.828669 0.093484 0.517553 0.152616
C96   C     C_R   0.171333 0.093433 0.482453 0.152235
C97   C     C_R   0.274641 0.660349 0.555908 -0.054355
C98   C     C_R   0.725354 0.660369 0.444086 -0.054242
C99   C     C_R   0.774643 0.160366 0.555916 -0.054123
C100  C     C_R   0.225353 0.160348 0.444097 -0.054348
C101  C     C_2   0.352221 0.836212 0.982043 0.233840
H17   H     H_    0.328998 0.832324 0.929138 0.058378
O53   O     O_2   0.314953 0.851493 0.034031 -0.434250
C102  C     C_2   0.647780 0.836208 0.017956 0.233840
H18   H     H_    0.671002 0.832322 0.070862 0.058381
O54   O     O_2   0.685048 0.851486 0.965968 -0.434248
C103  C     C_2   0.852221 0.336210 0.982042 0.233842
H19   H     H_    0.828998 0.332322 0.929137 0.058384
O55   O     O_2   0.814952 0.351490 0.034030 -0.434248
C104  C     C_2   0.147780 0.336210 0.017956 0.233841
H20   H     H_    0.171002 0.332325 0.070862 0.058378
O56   O     O_2   0.185048 0.351487 0.965968 -0.434247
C105  C     C_2   0.162091 0.784126 0.545643 0.359081
H21   H     H_    0.171665 0.852164 0.584088 0.121354
O57   O     O_2   0.101450 0.756193 0.532034 -0.293570
C106  C     C_2   0.837861 0.784299 0.454386 0.358635
H22   H     H_    0.828295 0.852150 0.415824 0.121467
O58   O     O_2   0.898507 0.756706 0.468207 -0.293441
C107  C     C_2   0.662126 0.284239 0.545643 0.358899
H23   H     H_    0.671726 0.352217 0.584118 0.121332
O59   O     O_2   0.601469 0.256453 0.531980 -0.293487
C108  C     C_2   0.337869 0.284204 0.454388 0.358912
H24   H     H_    0.328300 0.352188 0.415908 0.121362
O60   O     O_2   0.398510 0.256356 0.468061 -0.293438
N1    N     N_R   0.185369 0.793420 0.395294 0.107903
O61   O     O_R   0.223054 0.860228 0.353479 -0.271740
O62   O     O_R   0.118063 0.784514 0.383247 -0.149441
N2    N     N_R   0.814436 0.793669 0.604675 0.108140
O63   O     O_R   0.776529 0.861321 0.645778 -0.272338
O64   O     O_R   0.881617 0.784503 0.617373 -0.149596
N3    N     N_R   0.685427 0.293500 0.395325 0.108039
O65   O     O_R   0.723214 0.360802 0.353886 -0.271994
O66   O     O_R   0.618181 0.284404 0.382942 -0.149593
N4    N     N_R   0.314516 0.293527 0.604743 0.107785
O67   O     O_R   0.276773 0.360199 0.646599 -0.271826
O68   O     O_R   0.381834 0.284744 0.616789 -0.149304
N5    N     N_R   0.389587 0.529748 0.546750 0.075751
O69   O     O_R   0.403817 0.515857 0.613838 -0.210489
O70   O     O_R   0.432226 0.476343 0.503171 -0.265779
N6    N     N_R   0.610417 0.529739 0.453240 0.075772
O71   O     O_R   0.596255 0.515668 0.386151 -0.210226
O72   O     O_R   0.567748 0.476412 0.496824 -0.265900
N7    N     N_R   0.889615 0.029837 0.546757 0.075866
O73   O     O_R   0.903744 0.015664 0.613844 -0.210099
O74   O     O_R   0.932314 0.976603 0.503165 -0.266008
N8    N     N_R   0.110442 0.029649 0.453236 0.075719
O75   O     O_R   0.096216 0.015765 0.386147 -0.210444
O76   O     O_R   0.067814 0.976205 0.496810 -0.265729
C109  C     C_2   0.449239 0.025653 0.073172 0.258777
H25   H     H_    0.476131 0.109859 0.067012 0.144834
O77   O     O_2   0.405038 0.012079 0.119721 -0.431127
C110  C     C_2   0.550766 0.025648 0.926822 0.258770
H26   H     H_    0.523871 0.109850 0.932973 0.144826
O78   O     O_2   0.594972 0.012071 0.880279 -0.431123
C111  C     C_2   0.949237 0.525650 0.073174 0.258774
H27   H     H_    0.976131 0.609854 0.067020 0.144830
O79   O     O_2   0.905031 0.512074 0.119718 -0.431119
C112  C     C_2   0.050764 0.525650 0.926823 0.258773
H28   H     H_    0.023870 0.609852 0.932976 0.144833
O80   O     O_2   0.094970 0.512074 0.880279 -0.431133
C113  C     C_2   0.555882 0.620924 0.933013 0.252466
H29   H     H_    0.546748 0.533497 0.955220 0.137008
O81   O     O_2   0.589229 0.631520 0.877717 -0.438018
C114  C     C_2   0.444115 0.620929 0.066991 0.252466
H30   H     H_    0.453248 0.533501 0.044786 0.137003
O82   O     O_2   0.410766 0.631528 0.122286 -0.438009
C115  C     C_2   0.055883 0.120926 0.933012 0.252466
H31   H     H_    0.046749 0.033499 0.955219 0.137004
O83   O     O_2   0.089230 0.131523 0.877717 -0.438009
C116  C     C_2   0.944115 0.120927 0.066990 0.252466
H32   H     H_    0.953249 0.033500 0.044784 0.137004
O84   O     O_2   0.910768 0.131524 0.122285 -0.438009
N9    N     N_R   0.166868 0.761115 0.092231 0.119219
O85   O     O_R   0.099525 0.748088 0.103799 -0.283370
O86   O     O_R   0.203573 0.822995 0.137914 -0.253091
N10   N     N_R   0.833136 0.761112 0.907769 0.119218
O87   O     O_R   0.900479 0.748084 0.896203 -0.283374
O88   O     O_R   0.796432 0.822993 0.862085 -0.253227
N11   N     N_R   0.666867 0.261114 0.092230 0.119218
O89   O     O_R   0.599524 0.248087 0.103798 -0.283370
O90   O     O_R   0.703573 0.322994 0.137913 -0.253164
N12   N     N_R   0.333135 0.261113 0.907768 0.119219
O91   O     O_R   0.400478 0.248086 0.896202 -0.283373
O92   O     O_R   0.296431 0.322994 0.862084 -0.253068
C117  C     C_2   0.134736 0.747957 0.940176 0.227262
H33   H     H_    0.116556 0.734662 0.886188 0.196823
O93   O     O_2   0.097090 0.813061 0.975369 -0.505073
C118  C     C_2   0.865264 0.747957 0.059824 0.227266
H34   H     H_    0.883445 0.734658 0.113812 0.196822
O94   O     O_2   0.902909 0.813064 0.024632 -0.505073
C119  C     C_2   0.634736 0.247956 0.940176 0.227263
H35   H     H_    0.616556 0.234661 0.886187 0.196821
O95   O     O_2   0.597090 0.313061 0.975368 -0.505072
C120  C     C_2   0.365264 0.247958 0.059823 0.227262
H36   H     H_    0.383444 0.234660 0.113812 0.196827
O96   O     O_2   0.402909 0.313066 0.024631 -0.505077
N13   N     N_R   0.485848 0.047680 0.423309 0.122241
O97   O     O_R   0.437911 0.052050 0.373298 -0.268018
O98   O     O_R   0.526950 0.138119 0.433126 -0.154238
N14   N     N_R   0.514226 0.047649 0.576693 0.122420
O99   O     O_R   0.562234 0.052040 0.626633 -0.267908
O100  O     O_R   0.472873 0.137835 0.567167 -0.154676
N15   N     N_R   0.985697 0.547641 0.423297 0.122128
O101  O     O_R   0.937728 0.551918 0.373316 -0.268131
O102  O     O_R   0.026770 0.638111 0.433050 -0.154238
N16   N     N_R   0.014047 0.547721 0.576679 0.122578
O103  O     O_R   0.062044 0.552240 0.626625 -0.267881
O104  O     O_R   0.972626 0.637808 0.567134 -0.154837

loop_
_geom_bond_atom_site_label_1
_geom_bond_atom_site_label_2
_geom_bond_distance
_ccdc_geom_bond_type
C18   O42   1.291628 A    
C7    C35   1.451442 S    
O4    C12   1.245247 A    
O47   Cr11  1.971855 S    
C104  H20   1.082247 S    
C6    C34   1.451445 S    
O39   C19   1.299788 A    
O20   Cr12  2.092060 S    
O5    Cr1   1.982237 S    
C68   H12   1.077088 S    
O15   C7    1.287907 A    
N7    O73   1.292155 A    
C36   C40   1.535873 S    
C80   C108  1.467964 S    
N6    O72   1.298021 A    
C72   C76   1.408130 A    
C18   C69   1.470693 S    
O1    C9    1.245250 A    
O27   Cr3   2.103206 S    
O46   C22   1.297941 A    
N1    O61   1.301012 A    
C102  H18   1.082245 S    
C55   N11   1.443965 S    
O7    C3    1.294581 A    
C33   C37   1.535872 S    
C28   C112  1.479034 S    
C5    O17   1.274448 A    
C37   C38   1.543060 S    
C108  O60   1.216653 D    
C42   C46   1.377167 A    
C85   C89   1.372900 A    
N7    O74   1.297998 A    
C84   C88   1.376384 A    
C91   C95   1.403076 A    
C13   C88   1.461912 S    
N14   O100  1.294216 A    
C83   C87   1.376457 A    
C44   C64   1.395430 A    
C59   C63   1.451508 A    
O26   Cr2   2.103193 S    
N16   O103  1.301717 A    
C103  O55   1.216788 D    
C31   C35   1.544515 S    
N15   O102  1.294109 A    
C54   C58   1.407038 A    
C66   C69   1.390380 A    
C116  O84   1.220575 D    
C119  H35   1.076205 S    
C112  O80   1.220530 D    
C27   C111  1.479035 S    
C39   C40   1.543060 S    
O8    Cr4   1.982222 S    
C1    C52   1.453805 S    
O23   Cr11  1.943678 S    
C114  H30   1.082664 S    
N16   O104  1.294173 A    
C92   C96   1.403102 A    
C120  H36   1.076206 S    
O30   C14   1.288308 A    
C39   C115  1.492390 S    
C32   C104  1.484834 S    
O32   Cr4   1.973880 S    
C1    O9    1.264423 A    
O44   Cr12  2.060207 S    
C43   C63   1.395427 A    
C30   C102  1.484834 S    
C21   C97   1.499897 S    
C49   C53   1.407287 A    
C86   C90   1.372932 A    
C15   C86   1.461844 S    
C3    O11   1.264423 A    
O28   Cr4   2.103193 S    
O11   Cr7   2.075385 S    
C4    C49   1.453798 S    
C4    O12   1.264431 A    
O21   C9    1.302770 A    
O33   Cr5   2.093907 S    
N2    O63   1.300903 A    
C105  O57   1.216652 D    
C34   C38   1.535874 S    
N10   O88   1.301471 A    
C25   C109  1.479033 S    
C104  O56   1.216789 D    
C111  H27   1.082623 S    
O6    Cr2   1.982222 S    
C9    C61   1.469224 S    
C20   C71   1.470729 S    
C73   N13   1.430489 S    
C27   C36   1.527132 S    
C93   N5    1.462465 S    
C117  H33   1.076205 S    
Cr4   O52   1.982368 S    
C26   C33   1.527132 S    
C120  O96   1.218092 D    
O2    Cr2   2.092257 S    
O48   C24   1.297940 A    
C52   C56   1.407290 A    
C78   C106  1.468062 S    
C19   C72   1.470711 S    
O2    C10   1.245246 A    
C115  O83   1.220576 D    
O42   Cr10  2.060207 S    
C75   C76   1.416578 A    
C84   N4    1.433809 S    
C107  H23   1.065786 S    
O18   Cr10  2.092060 S    
C70   C74   1.408071 A    
C17   C70   1.470759 S    
Cr8   O52   2.020126 S    
C25   C29   1.536140 S    
C111  O79   1.220530 D    
C26   C110  1.479034 S    
C58   C62   1.451506 A    
C29   C101  1.484833 S    
C12   C64   1.469230 S    
C68   C71   1.390374 A    
Cr7   O51   2.020117 S    
N6    O71   1.292165 A    
C79   C99   1.436037 A    
C26   C30   1.536140 S    
C74   N14   1.430347 S    
C7    O19   1.274449 A    
C101  O53   1.216788 D    
C28   C32   1.536140 S    
C89   H13   1.079212 S    
O24   Cr12  1.943689 S    
C77   C97   1.436074 A    
C67   C72   1.390352 A    
C90   C94   1.403094 A    
C47   C51   1.381022 A    
C108  H24   1.065797 S    
O22   C10   1.302767 A    
C79   C83   1.391600 A    
O48   Cr12  1.971850 S    
O14   Cr6   1.972762 S    
Cr12  O52   2.020780 S    
C65   C70   1.390359 A    
C88   C92   1.372899 A    
O36   Cr8   2.093912 S    
C40   C116  1.492391 S    
N14   O99   1.301713 A    
C30   C37   1.537890 S    
C106  O58   1.216602 D    
C2    C51   1.453797 S    
C66   H10   1.077152 S    
C11   C63   1.469225 S    
C27   C28   1.536930 S    
N9    O86   1.301472 A    
O16   Cr8   1.972762 S    
N4    O67   1.301209 A    
C22   C98   1.499822 S    
C15   O35   1.274302 A    
C16   C85   1.461875 S    
N5    O69   1.292165 A    
C101  H17   1.082246 S    
O7    Cr3   1.982237 S    
C29   C33   1.544515 S    
O13   C5    1.287907 A    
O40   C20   1.299819 A    
C47   H7    1.067114 S    
O43   Cr11  2.060197 S    
O12   Cr8   2.075365 S    
C50   C54   1.407291 A    
C87   C91   1.372918 A    
O5    C1    1.294580 A    
C109  H25   1.082625 S    
C83   N3    1.433766 S    
O31   C15   1.288317 A    
C75   N15   1.430463 S    
O46   Cr10  1.971850 S    
O39   Cr7   1.951069 S    
O3    C11   1.245250 A    
C96   C100  1.461652 A    
O45   Cr9   1.971855 S    
N3    O65   1.301077 A    
C10   C62   1.469227 S    
C16   O36   1.274337 A    
C60   C64   1.451506 A    
C57   C117  1.512954 S    
C60   C120  1.512953 S    
N10   O87   1.303042 A    
C110  O78   1.220532 D    
C13   O33   1.274380 A    
C81   N1    1.433798 S    
C67   H11   1.077192 S    
N8    O75   1.292161 A    
C95   N7    1.462459 S    
O29   C13   1.288261 A    
Cr2   O50   1.982368 S    
O15   Cr7   1.972757 S    
O32   C16   1.288294 A    
C117  O93   1.218091 D    
O35   Cr7   2.093907 S    
Cr1   O49   1.982368 S    
C46   H6    1.067114 S    
O30   Cr2   1.973880 S    
C45   H5    1.067114 S    
Cr3   O51   1.982368 S    
O26   C22   1.320107 A    
N3    O66   1.297563 A    
C118  O94   1.218090 D    
O21   Cr9   1.943678 S    
C31   C103  1.484833 S    
O28   C24   1.320122 A    
C56   N12   1.443965 S    
C14   C87   1.461812 S    
C78   C98   1.436053 A    
C53   C57   1.407035 A    
C95   C99   1.461605 A    
O37   Cr5   1.951069 S    
O25   C21   1.320117 A    
C57   C61   1.451509 A    
C19   O43   1.291661 A    
C3    C50   1.453803 S    
C38   C114  1.492391 S    
C8    C36   1.451444 S    
C24   C100  1.499944 S    
C94   N6    1.462485 S    
N11   O89   1.303039 A    
C25   C26   1.536930 S    
C81   C85   1.376432 A    
C51   C55   1.407287 A    
O34   Cr6   2.093912 S    
C37   C113  1.492391 S    
O3    Cr3   2.092238 S    
O31   Cr3   1.973862 S    
C41   C61   1.395428 A    
O38   C18   1.299805 A    
O25   Cr1   2.103206 S    
C41   C45   1.377165 A    
C119  O95   1.218091 D    
C114  O82   1.220576 D    
C65   H9    1.077127 S    
C112  H28   1.082617 S    
C56   C60   1.407039 A    
O37   C17   1.299839 A    
O22   Cr10  1.943689 S    
C48   C52   1.381019 A    
O14   C6    1.287907 A    
C29   C38   1.537890 S    
C43   H3    1.081625 S    
C35   C39   1.535872 S    
C94   C98   1.461638 A    
C8    O20   1.274448 A    
C106  H22   1.065738 S    
N11   O90   1.301471 A    
O17   Cr9   2.092062 S    
Cr11  O51   2.020791 S    
O6    C2    1.294580 A    
C91   H15   1.079202 S    
C67   C68   1.372473 A    
O24   C12   1.302765 A    
C17   O41   1.291634 A    
N12   O91   1.303043 A    
C53   N9    1.443966 S    
C80   C84   1.391752 A    
N5    O70   1.298027 A    
C45   C49   1.381020 A    
C96   N8    1.462475 S    
C65   C66   1.372478 A    
C14   O34   1.274295 A    
C76   N16   1.430397 S    
N8    O76   1.298023 A    
O40   Cr8   1.951054 S    
C25   C34   1.527132 S    
C20   O44   1.291633 A    
C92   H16   1.079203 S    
O1    Cr1   2.092238 S    
C44   C48   1.377167 A    
C55   C59   1.407037 A    
N13   O98   1.294324 A    
C116  H32   1.082662 S    
N4    O68   1.297562 A    
C82   N2    1.433726 S    
C103  H19   1.082247 S    
C109  O77   1.220532 D    
N2    O64   1.297460 A    
O41   Cr9   2.060197 S    
C73   C74   1.416591 A    
C31   C40   1.537890 S    
Cr10  O50   2.020780 S    
O13   Cr5   1.972757 S    
C80   C100  1.436100 A    
Cr6   O50   2.020126 S    
N9    O85   1.303041 A    
C41   H1    1.081626 S    
C23   C99   1.499810 S    
Cr5   O49   2.020117 S    
C113  H29   1.082663 S    
O45   C21   1.297938 A    
C71   C75   1.408087 A    
C32   C36   1.544516 S    
O23   C11   1.302769 A    
O19   Cr11  2.092062 S    
C110  H26   1.082622 S    
C90   H14   1.079207 S    
C102  O54   1.216789 D    
C43   C47   1.377164 A    
O47   C23   1.297940 A    
O10   Cr6   2.075365 S    
C77   C81   1.391694 A    
C48   H8    1.067114 S    
C79   C107  1.468013 S    
Cr9   O49   2.020791 S    
O4    Cr4   2.092257 S    
C77   C105  1.468000 S    
C5    C33   1.451443 S    
C82   C86   1.376435 A    
O29   Cr1   1.973862 S    
C58   C118  1.512953 S    
C46   C50   1.381021 A    
C44   H4    1.081626 S    
C42   C62   1.395432 A    
N12   O92   1.301472 A    
C59   C119  1.512955 S    
C118  H34   1.076206 S    
C28   C35   1.527134 S    
C27   C31   1.536141 S    
C42   H2    1.081625 S    
C105  H21   1.065799 S    
C6    O18   1.274448 A    
C32   C39   1.537891 S    
N15   O101  1.301708 A    
C107  O59   1.216715 D    
C78   C82   1.391593 A    
C30   C34   1.544516 S    
C54   N10   1.443964 S    
C113  O81   1.220576 D    
C93   C97   1.461646 A    
N13   O97   1.301734 A    
N1    O62   1.297448 A    
C89   C93   1.403089 A    
O9    Cr5   2.075385 S    
O16   C8    1.287908 A    
C69   C73   1.408095 A    
O8    C4    1.294580 A    
C115  H31   1.082664 S    
C2    O10   1.264430 A    
O38   Cr6   1.951054 S    
O27   C23   1.320114 A    
