data_mof_unit_65201.cif
_audit_creation_date              2012-12-10T20:58:42-0500
_audit_creation_method            fapswitch 2.2
_symmetry_space_group_name_H-M    P1
_symmetry_Int_Tables_number       1
_space_group_crystal_system       triclinic
_cell_length_a                    15.873439
_cell_length_b                    15.072443
_cell_length_c                    14.179662
_cell_angle_alpha                 89.999937
_cell_angle_beta                  89.988298
_cell_angle_gamma                 90.000068
_cell_volume                      3392.50539663

loop_
_atom_site_label
_atom_site_type_symbol
_atom_type_description
_atom_site_fract_x
_atom_site_fract_y
_atom_site_fract_z
_atom_type_partial_charge
Br1   Br    Br    0.105375 0.691882 0.500101 -0.382233
Br2   Br    Br    0.894625 0.308118 0.499899 -0.382233
Br3   Br    Br    0.894626 0.691882 0.500086 -0.382237
Br4   Br    Br    0.105374 0.308118 0.499914 -0.382237
C1    C     C_1   0.250659 0.500000 0.500042 -0.113310
C2    C     C_R   0.661109 0.500000 0.499960 0.892094
C3    C     C_R   0.499999 0.500000 0.328638 0.891559
C4    C     C_R   0.500001 0.500000 0.671362 0.891558
C5    C     C_1   0.500000 0.807170 0.500000 0.091723
C6    C     C_1   0.500000 0.192830 0.500000 0.091723
C7    C     C_1   0.499999 0.500000 0.227334 -0.175289
C8    C     C_1   0.500001 0.500000 0.772666 -0.175289
C9    C     C_1   0.499999 0.500000 0.142242 0.015459
C10   C     C_1   0.500000 0.500000 0.857758 0.015460
C11   C     C_1   0.500000 0.500000 0.042544 0.033353
C12   C     C_1   0.749341 0.500000 0.499958 -0.113310
C13   C     C_1   0.500000 0.500000 0.957456 0.033353
C14   C     C_R   0.435958 0.953125 0.454127 -0.132803
C15   C     C_R   0.564042 0.046874 0.545873 -0.132803
C16   C     C_R   0.564042 0.953125 0.545872 -0.132802
C17   C     C_R   0.435958 0.046874 0.454127 -0.132802
C18   C     C_R   0.956062 0.581292 0.500032 0.225541
C19   C     C_R   0.043938 0.418708 0.499968 0.225541
C20   C     C_R   0.043938 0.581292 0.500047 0.225541
C21   C     C_R   0.956062 0.418708 0.499953 0.225541
C22   C     C_R   0.913043 0.500000 0.499982 -0.133758
C23   C     C_R   0.086956 0.500000 0.500018 -0.133758
C24   C     C_1   0.824079 0.500000 0.499966 0.133955
C25   C     C_1   0.175921 0.500000 0.500034 0.133955
C26   C     C_R   0.500000 0.905041 0.500000 0.056453
C27   C     C_R   0.500000 0.094959 0.500000 0.056453
C28   C     C_R   0.338890 0.500000 0.500040 0.892094
H1    H     H_    0.385764 0.081867 0.418169 0.157369
H2    H     H_    0.614235 0.918133 0.581831 0.157369
H3    H     H_    0.614235 0.081867 0.581831 0.157365
H4    H     H_    0.385765 0.918133 0.418169 0.157365
N1    N     N_1   0.500000 0.270550 0.500000 -0.070104
N2    N     N_1   0.500000 0.729450 0.500000 -0.070104
O1    O     O_R   0.378020 0.573650 0.500030 -0.593691
O2    O     O_R   0.621980 0.426350 0.499970 -0.593691
O3    O     O_R   0.621980 0.573650 0.499970 -0.593691
O4    O     O_R   0.378020 0.426350 0.500030 -0.593691
O5    O     O_R   0.500000 0.573680 0.373720 -0.591920
O6    O     O_R   0.500000 0.426320 0.626280 -0.591920
O7    O     O_R   0.500000 0.573680 0.626280 -0.591913
O8    O     O_R   0.500000 0.426320 0.373720 -0.591913
Zn1   Zn    Zn3+2 0.500000 0.598370 0.500000 1.013339
Zn2   Zn    Zn3+2 0.500000 0.401630 0.500000 1.013339

loop_
_geom_bond_atom_site_label_1
_geom_bond_atom_site_label_2
_ccdc_geom_bond_type
C12   C24   T    
C3    O8    A    
C14   C26   A    
C19   C23   A    
C23   C25   S    
C14   C17   A    
C17   C27   A    
C22   C24   S    
C15   C16   A    
C20   C23   A    
C4    C8    S    
C1    C28   S    
C16   H2    S    
O7    Zn1   S    
O3    Zn1   S    
C15   C27   A    
O4    Zn2   S    
C16   C26   A    
N1    Zn2   S    
C3    C7    S    
C7    C9    T    
C10   C13   S    
N2    Zn1   S    
O5    Zn1   S    
C5    C26   S    
C6    N1    T    
C5    N2    T    
C8    C10   T    
Br2   C21   S    
C1    C25   T    
C19   C21   A    
C9    C11   S    
C18   C20   A    
C17   H1    S    
C2    C12   S    
O8    Zn2   S    
C4    O6    A    
C2    O2    A    
Br1   C20   S    
O1    Zn1   S    
C18   C22   A    
C28   O1    A    
C3    O5    A    
C11   C13   T    
Br4   C19   S    
C28   O4    A    
O2    Zn2   S    
Br3   C18   S    
C15   H3    S    
C21   C22   A    
C4    O7    A    
C14   H4    S    
C6    C27   S    
O6    Zn2   S    
C2    O3    A    
