data_mof_unit_61406.cif
_audit_creation_date              2012-12-10T17:48:04-0500
_audit_creation_method            fapswitch 2.2
_symmetry_space_group_name_H-M    P1
_symmetry_Int_Tables_number       1
_space_group_crystal_system       triclinic
_cell_length_a                    25.879065
_cell_length_b                    27.728035
_cell_length_c                    27.723707
_cell_angle_alpha                 90.000382
_cell_angle_beta                  90.000734
_cell_angle_gamma                 89.995146
_cell_volume                      19893.8561682

loop_
_atom_site_label
_atom_site_type_symbol
_atom_type_description
_atom_site_fract_x
_atom_site_fract_y
_atom_site_fract_z
_atom_type_partial_charge
C1    C     C_R   0.391502 0.999702 0.250347 0.766427
C2    C     C_R   0.391502 0.999702 0.749655 0.766382
C3    C     C_R   0.608482 0.999982 0.250067 0.778216
C4    C     C_R   0.608482 0.999966 0.749917 0.778225
C5    C     C_R   0.891502 0.499702 0.250347 0.766427
C6    C     C_R   0.891501 0.499702 0.749655 0.766382
C7    C     C_R   0.108482 0.499982 0.250067 0.778216
C8    C     C_R   0.108482 0.499966 0.749917 0.778225
C9    C     C_R   0.891502 0.999703 0.750346 0.766421
C10   C     C_R   0.891502 0.999703 0.249656 0.766409
C11   C     C_R   0.108482 0.999982 0.750067 0.778218
C12   C     C_R   0.108482 0.999970 0.249921 0.778214
C13   C     C_R   0.391502 0.499703 0.750346 0.766421
C14   C     C_R   0.391502 0.499703 0.249656 0.766409
C15   C     C_R   0.608482 0.499982 0.750067 0.778218
C16   C     C_R   0.608482 0.499970 0.249921 0.778214
C17   C     C_3   0.029525 0.014277 0.298630 -0.439227
C18   C     C_3   0.029520 0.014102 0.701301 -0.439232
C19   C     C_3   0.969868 0.016529 0.297422 -0.433205
C20   C     C_3   0.969862 0.016343 0.702502 -0.433102
C21   C     C_3   0.529525 0.514277 0.298630 -0.439227
C22   C     C_3   0.529520 0.514102 0.701301 -0.439233
C23   C     C_3   0.469868 0.516529 0.297422 -0.433206
C24   C     C_3   0.469862 0.516343 0.702502 -0.433101
C25   C     C_3   0.529526 0.014361 0.798596 -0.439249
C26   C     C_3   0.529519 0.014083 0.201295 -0.439231
C27   C     C_3   0.469869 0.016611 0.797386 -0.433223
C28   C     C_3   0.469862 0.016321 0.202496 -0.433076
C29   C     C_3   0.029526 0.514361 0.798597 -0.439250
C30   C     C_3   0.029519 0.514082 0.201295 -0.439232
C31   C     C_3   0.969869 0.516611 0.797386 -0.433221
C32   C     C_3   0.969862 0.516321 0.202496 -0.433076
C33   C     C_3   0.029839 0.035456 0.211070 -0.384928
C34   C     C_3   0.029840 0.035618 0.788776 -0.384974
C35   C     C_3   0.970674 0.033098 0.208737 -0.397653
C36   C     C_3   0.970677 0.033266 0.791121 -0.397610
C37   C     C_3   0.529839 0.535456 0.211070 -0.384927
C38   C     C_3   0.529840 0.535618 0.788776 -0.384973
C39   C     C_3   0.470674 0.533098 0.208737 -0.397653
C40   C     C_3   0.470677 0.533266 0.791121 -0.397610
C41   C     C_3   0.529839 0.035379 0.710998 -0.384912
C42   C     C_3   0.529840 0.035635 0.288760 -0.384982
C43   C     C_3   0.470674 0.033018 0.708669 -0.397676
C44   C     C_3   0.470677 0.033283 0.291107 -0.397606
C45   C     C_3   0.029839 0.535380 0.710998 -0.384909
C46   C     C_3   0.029840 0.535635 0.288760 -0.384982
C47   C     C_3   0.970674 0.533018 0.708669 -0.397677
C48   C     C_3   0.970677 0.533283 0.291107 -0.397604
C49   C     C_3   0.050907 0.998819 0.248628 0.141731
C50   C     C_3   0.050907 0.998837 0.751359 0.141722
C51   C     C_3   0.949019 0.998255 0.247984 0.137877
C52   C     C_3   0.949020 0.998265 0.752015 0.137849
C53   C     C_3   0.550907 0.498819 0.248628 0.141731
C54   C     C_3   0.550907 0.498837 0.751359 0.141722
C55   C     C_3   0.449019 0.498255 0.247984 0.137877
C56   C     C_3   0.449020 0.498265 0.752015 0.137849
C57   C     C_3   0.550907 0.998811 0.748622 0.141738
C58   C     C_3   0.550907 0.998837 0.251360 0.141725
C59   C     C_3   0.449019 0.998248 0.747981 0.137900
C60   C     C_3   0.449020 0.998264 0.252017 0.137849
C61   C     C_3   0.050907 0.498811 0.748622 0.141738
C62   C     C_3   0.050907 0.498837 0.251360 0.141725
C63   C     C_3   0.949019 0.498248 0.747981 0.137900
C64   C     C_3   0.949020 0.498264 0.252017 0.137848
C65   C     C_1   0.249820 0.999831 0.068975 -0.152649
C66   C     C_1   0.249820 0.999830 0.931025 -0.152647
C67   C     C_1   0.750183 0.999827 0.068976 -0.158314
C68   C     C_1   0.750185 0.999828 0.931024 -0.158381
C69   C     C_1   0.749820 0.499831 0.068975 -0.152649
C70   C     C_1   0.749820 0.499830 0.931025 -0.152647
C71   C     C_1   0.250183 0.499827 0.068976 -0.158314
C72   C     C_1   0.250185 0.499828 0.931024 -0.158381
C73   C     C_1   0.749821 0.999832 0.568975 -0.152649
C74   C     C_1   0.749820 0.999831 0.431025 -0.152643
C75   C     C_1   0.250183 0.999828 0.568976 -0.158286
C76   C     C_1   0.250184 0.999828 0.431024 -0.158382
C77   C     C_1   0.249821 0.499832 0.568975 -0.152649
C78   C     C_1   0.249820 0.499831 0.431025 -0.152643
C79   C     C_1   0.750183 0.499828 0.568976 -0.158286
C80   C     C_1   0.750184 0.499828 0.431024 -0.158382
C81   C     C_1   0.249751 0.999776 0.025475 -0.007859
C82   C     C_1   0.249751 0.999776 0.974524 -0.007872
C83   C     C_1   0.750249 0.999774 0.025476 -0.008193
C84   C     C_1   0.750249 0.999775 0.974524 -0.008215
C85   C     C_1   0.749752 0.499776 0.025475 -0.007859
C86   C     C_1   0.749752 0.499775 0.974524 -0.007872
C87   C     C_1   0.250249 0.499774 0.025476 -0.008193
C88   C     C_1   0.250249 0.499775 0.974524 -0.008215
C89   C     C_1   0.749752 0.999777 0.525475 -0.007849
C90   C     C_1   0.749752 0.999776 0.474524 -0.007866
C91   C     C_1   0.250248 0.999775 0.525476 -0.008184
C92   C     C_1   0.250249 0.999775 0.474524 -0.008216
C93   C     C_1   0.249752 0.499777 0.525475 -0.007849
C94   C     C_1   0.249752 0.499776 0.474524 -0.007866
C95   C     C_1   0.750248 0.499775 0.525476 -0.008185
C96   C     C_1   0.750249 0.499775 0.474524 -0.008216
C97   C     C_R   0.250069 0.999928 0.379239 0.815308
C98   C     C_R   0.250068 0.999928 0.620761 0.815232
C99   C     C_R   0.749938 0.999933 0.379240 0.822520
C100  C     C_R   0.749938 0.999934 0.620759 0.822449
C101  C     C_R   0.750069 0.499928 0.379239 0.815308
C102  C     C_R   0.750068 0.499928 0.620761 0.815232
C103  C     C_R   0.249938 0.499933 0.379240 0.822520
C104  C     C_R   0.249938 0.499934 0.620759 0.822449
C105  C     C_R   0.750069 0.999928 0.879239 0.815309
C106  C     C_R   0.750068 0.999928 0.120761 0.815247
C107  C     C_R   0.249938 0.999933 0.879240 0.822514
C108  C     C_R   0.249938 0.999933 0.120759 0.822470
C109  C     C_R   0.250069 0.499928 0.879239 0.815309
C110  C     C_R   0.250068 0.499928 0.120761 0.815247
C111  C     C_R   0.749938 0.499933 0.879240 0.822514
C112  C     C_R   0.749938 0.499933 0.120759 0.822470
C113  C     C_R   0.249999 0.129246 0.250000 0.815798
C114  C     C_R   0.249998 0.129246 0.750000 0.815781
C115  C     C_R   0.749998 0.129246 0.250000 0.815779
C116  C     C_R   0.749999 0.129246 0.750000 0.815801
C117  C     C_R   0.749999 0.629246 0.250000 0.815798
C118  C     C_R   0.749998 0.629246 0.750000 0.815781
C119  C     C_R   0.249998 0.629246 0.250000 0.815779
C120  C     C_R   0.249999 0.629246 0.750000 0.815801
C121  C     C_R   0.249982 0.870734 0.249983 0.823960
C122  C     C_R   0.249984 0.870734 0.750016 0.823955
C123  C     C_R   0.749984 0.870734 0.250016 0.823943
C124  C     C_R   0.749982 0.870734 0.749983 0.823994
C125  C     C_R   0.749982 0.370734 0.249983 0.823960
C126  C     C_R   0.749984 0.370734 0.750016 0.823955
C127  C     C_R   0.249984 0.370734 0.250016 0.823943
C128  C     C_R   0.249982 0.370734 0.749983 0.823994
C129  C     C_1   0.249966 0.818965 0.249968 -0.159014
C130  C     C_1   0.249971 0.818965 0.750028 -0.158890
C131  C     C_1   0.749970 0.818965 0.250029 -0.158895
C132  C     C_1   0.749966 0.818965 0.749967 -0.159063
C133  C     C_1   0.749966 0.318965 0.249968 -0.159014
C134  C     C_1   0.749971 0.318965 0.750028 -0.158890
C135  C     C_1   0.249970 0.318965 0.250029 -0.158895
C136  C     C_1   0.249966 0.318965 0.749967 -0.159063
C137  C     C_1   0.249964 0.775474 0.249966 -0.008625
C138  C     C_1   0.249970 0.775474 0.750029 -0.008630
C139  C     C_1   0.749969 0.775474 0.250030 -0.008620
C140  C     C_1   0.749963 0.775474 0.749966 -0.008649
C141  C     C_1   0.749964 0.275474 0.249966 -0.008625
C142  C     C_1   0.749970 0.275474 0.750029 -0.008630
C143  C     C_1   0.249969 0.275474 0.250030 -0.008620
C144  C     C_1   0.249963 0.275474 0.749966 -0.008649
C145  C     C_1   0.249973 0.724528 0.249977 -0.007665
C146  C     C_1   0.249979 0.724529 0.750019 -0.007713
C147  C     C_1   0.749978 0.724529 0.250020 -0.007704
C148  C     C_1   0.749973 0.724528 0.749977 -0.007667
C149  C     C_1   0.749973 0.224528 0.249977 -0.007665
C150  C     C_1   0.749979 0.224529 0.750019 -0.007713
C151  C     C_1   0.249978 0.224529 0.250020 -0.007704
C152  C     C_1   0.249973 0.224528 0.749977 -0.007667
C153  C     C_1   0.249985 0.681032 0.249989 -0.153892
C154  C     C_1   0.249988 0.681032 0.750008 -0.153923
C155  C     C_1   0.749988 0.681032 0.250009 -0.153917
C156  C     C_1   0.749985 0.681032 0.749989 -0.153895
C157  C     C_1   0.749985 0.181032 0.249989 -0.153892
C158  C     C_1   0.749988 0.181032 0.750008 -0.153923
C159  C     C_1   0.249988 0.181032 0.250009 -0.153917
C160  C     C_1   0.249985 0.181032 0.749989 -0.153895
C161  C     C_3   0.030764 0.946628 0.237303 -0.176044
C162  C     C_3   0.030772 0.946689 0.762883 -0.176007
C163  C     C_3   0.970039 0.945465 0.240184 -0.176704
C164  C     C_3   0.970045 0.945508 0.760025 -0.176748
C165  C     C_3   0.530764 0.446628 0.237303 -0.176044
C166  C     C_3   0.530772 0.446689 0.762883 -0.176007
C167  C     C_3   0.470039 0.445465 0.240184 -0.176704
C168  C     C_3   0.470045 0.445508 0.760025 -0.176748
C169  C     C_3   0.530761 0.946599 0.737393 -0.176039
C170  C     C_3   0.530773 0.946694 0.262906 -0.176003
C171  C     C_3   0.470037 0.945443 0.740276 -0.176695
C172  C     C_3   0.470045 0.945510 0.260051 -0.176766
C173  C     C_3   0.030761 0.446599 0.737392 -0.176041
C174  C     C_3   0.030773 0.446694 0.262906 -0.176003
C175  C     C_3   0.970036 0.445443 0.740275 -0.176695
C176  C     C_3   0.970045 0.445510 0.260051 -0.176766
H1    H     H_    0.043975 0.923864 0.268105 0.121900
H2    H     H_    0.043975 0.923810 0.732162 0.121837
H3    H     H_    0.960686 0.926994 0.274892 0.136758
H4    H     H_    0.960674 0.926890 0.725400 0.136695
H5    H     H_    0.543975 0.423864 0.268105 0.121900
H6    H     H_    0.543975 0.423810 0.732162 0.121836
H7    H     H_    0.460685 0.426994 0.274892 0.136758
H8    H     H_    0.460674 0.426890 0.725400 0.136695
H9    H     H_    0.543970 0.923893 0.768238 0.121931
H10   H     H_    0.543975 0.923803 0.232194 0.121835
H11   H     H_    0.460682 0.927034 0.775015 0.136782
H12   H     H_    0.460673 0.926877 0.225435 0.136693
H13   H     H_    0.043970 0.423893 0.768238 0.121931
H14   H     H_    0.043975 0.423803 0.232194 0.121835
H15   H     H_    0.960682 0.427034 0.775015 0.136782
H16   H     H_    0.960673 0.426877 0.225435 0.136693
H17   H     H_    0.042081 0.988293 0.326899 0.182766
H18   H     H_    0.042081 0.988013 0.673130 0.182866
H19   H     H_    0.954047 0.994472 0.327547 0.179330
H20   H     H_    0.954048 0.994156 0.672470 0.179473
H21   H     H_    0.542081 0.488293 0.326899 0.182766
H22   H     H_    0.542081 0.488013 0.673130 0.182866
H23   H     H_    0.454047 0.494472 0.327547 0.179330
H24   H     H_    0.454048 0.494156 0.672470 0.179473
H25   H     H_    0.542083 0.988430 0.826914 0.182717
H26   H     H_    0.542081 0.987985 0.173132 0.182875
H27   H     H_    0.454048 0.994611 0.827551 0.179269
H28   H     H_    0.454049 0.994123 0.172471 0.179485
H29   H     H_    0.042083 0.488429 0.826914 0.182718
H30   H     H_    0.042081 0.487985 0.173133 0.182875
H31   H     H_    0.954048 0.494610 0.827551 0.179269
H32   H     H_    0.954049 0.494123 0.172471 0.179485
H33   H     H_    0.041599 0.072632 0.221627 0.180913
H34   H     H_    0.041599 0.072752 0.778074 0.180768
H35   H     H_    0.955076 0.070080 0.214517 0.187172
H36   H     H_    0.955073 0.070222 0.785192 0.187045
H37   H     H_    0.541599 0.572632 0.221627 0.180913
H38   H     H_    0.541599 0.572752 0.778074 0.180767
H39   H     H_    0.455076 0.570080 0.214517 0.187172
H40   H     H_    0.455073 0.570223 0.785192 0.187045
H41   H     H_    0.541599 0.072574 0.721485 0.180978
H42   H     H_    0.541599 0.072764 0.278044 0.180755
H43   H     H_    0.455078 0.070012 0.714379 0.187228
H44   H     H_    0.455073 0.070237 0.285162 0.187038
H45   H     H_    0.041599 0.572575 0.721486 0.180977
H46   H     H_    0.041599 0.572764 0.278044 0.180755
H47   H     H_    0.955078 0.570012 0.714380 0.187228
H48   H     H_    0.955073 0.570237 0.285161 0.187038
H49   H     H_    0.046686 0.029314 0.174788 0.179233
H50   H     H_    0.046688 0.029620 0.825083 0.179357
H51   H     H_    0.958721 0.022402 0.171988 0.161705
H52   H     H_    0.958732 0.022719 0.827915 0.161791
H53   H     H_    0.546686 0.529314 0.174788 0.179232
H54   H     H_    0.546688 0.529620 0.825083 0.179357
H55   H     H_    0.458721 0.522402 0.171988 0.161705
H56   H     H_    0.458732 0.522719 0.827915 0.161791
H57   H     H_    0.546687 0.029168 0.674728 0.179170
H58   H     H_    0.546686 0.029651 0.325070 0.179371
H59   H     H_    0.458720 0.022252 0.671941 0.161675
H60   H     H_    0.458732 0.022752 0.327905 0.161807
H61   H     H_    0.046687 0.529169 0.674728 0.179169
H62   H     H_    0.046686 0.529651 0.325070 0.179371
H63   H     H_    0.958720 0.522253 0.671941 0.161675
H64   H     H_    0.958732 0.522752 0.327905 0.161807
H65   H     H_    0.045144 0.050250 0.308903 0.167059
H66   H     H_    0.045129 0.050039 0.690894 0.167041
H67   H     H_    0.957058 0.054348 0.303714 0.170817
H68   H     H_    0.957040 0.054132 0.696057 0.170756
H69   H     H_    0.545144 0.550250 0.308903 0.167059
H70   H     H_    0.545129 0.550039 0.690894 0.167041
H71   H     H_    0.457058 0.554348 0.303714 0.170818
H72   H     H_    0.457040 0.554132 0.696057 0.170755
H73   H     H_    0.545145 0.050354 0.808803 0.167070
H74   H     H_    0.545127 0.050017 0.190874 0.167035
H75   H     H_    0.457060 0.054442 0.803609 0.170836
H76   H     H_    0.457038 0.054107 0.196033 0.170746
H77   H     H_    0.045145 0.550353 0.808804 0.167070
H78   H     H_    0.045127 0.550017 0.190874 0.167035
H79   H     H_    0.957060 0.554442 0.803609 0.170836
H80   H     H_    0.957038 0.554107 0.196033 0.170746
O1    O     O_3   0.250000 0.999990 0.250000 -0.471604
O2    O     O_3   0.250000 0.999990 0.750000 -0.471627
O3    O     O_3   0.750000 0.999990 0.250000 -0.471625
O4    O     O_3   0.750000 0.999990 0.750000 -0.471600
O5    O     O_3   0.750000 0.499990 0.250000 -0.471604
O6    O     O_3   0.750000 0.499990 0.750000 -0.471627
O7    O     O_3   0.250000 0.499990 0.250000 -0.471625
O8    O     O_3   0.250000 0.499990 0.750000 -0.471600
O9    O     O_R   0.366860 0.972110 0.222130 -0.643556
O10   O     O_R   0.366860 0.972110 0.777870 -0.643513
O11   O     O_R   0.633140 0.972110 0.222130 -0.655659
O12   O     O_R   0.633140 0.972110 0.777870 -0.655698
O13   O     O_R   0.866860 0.472110 0.222130 -0.643556
O14   O     O_R   0.866860 0.472110 0.777870 -0.643513
O15   O     O_R   0.133140 0.472110 0.222130 -0.655660
O16   O     O_R   0.133140 0.472110 0.777870 -0.655698
O17   O     O_R   0.866860 0.972110 0.722130 -0.643553
O18   O     O_R   0.866860 0.972110 0.277870 -0.643522
O19   O     O_R   0.133140 0.972110 0.722130 -0.655661
O20   O     O_R   0.133140 0.972110 0.277870 -0.655688
O21   O     O_R   0.366860 0.472110 0.722130 -0.643553
O22   O     O_R   0.366860 0.472110 0.277870 -0.643522
O23   O     O_R   0.633140 0.472110 0.722130 -0.655661
O24   O     O_R   0.633140 0.472110 0.277870 -0.655688
O25   O     O_R   0.280630 0.027850 0.356260 -0.637752
O26   O     O_R   0.280630 0.027850 0.643740 -0.637708
O27   O     O_R   0.719370 0.027850 0.356260 -0.632857
O28   O     O_R   0.719370 0.027850 0.643740 -0.632928
O29   O     O_R   0.780630 0.527850 0.356260 -0.637752
O30   O     O_R   0.780630 0.527850 0.643740 -0.637708
O31   O     O_R   0.219370 0.527850 0.356260 -0.632857
O32   O     O_R   0.219370 0.527850 0.643740 -0.632928
O33   O     O_R   0.780630 0.027850 0.856260 -0.637748
O34   O     O_R   0.780630 0.027850 0.143740 -0.637718
O35   O     O_R   0.219370 0.027850 0.856260 -0.632861
O36   O     O_R   0.219370 0.027850 0.143740 -0.632908
O37   O     O_R   0.280630 0.527850 0.856260 -0.637748
O38   O     O_R   0.280630 0.527850 0.143740 -0.637718
O39   O     O_R   0.719370 0.527850 0.856260 -0.632861
O40   O     O_R   0.719370 0.527850 0.143740 -0.632908
O41   O     O_R   0.280630 0.106260 0.277850 -0.635381
O42   O     O_R   0.280630 0.106260 0.722150 -0.635369
O43   O     O_R   0.719370 0.106260 0.277850 -0.636993
O44   O     O_R   0.719370 0.106260 0.722150 -0.636970
O45   O     O_R   0.780630 0.606260 0.277850 -0.635381
O46   O     O_R   0.780630 0.606260 0.722150 -0.635369
O47   O     O_R   0.219370 0.606260 0.277850 -0.636993
O48   O     O_R   0.219370 0.606260 0.722150 -0.636970
O49   O     O_R   0.780630 0.106260 0.777850 -0.635383
O50   O     O_R   0.780630 0.106260 0.222150 -0.635372
O51   O     O_R   0.219370 0.106260 0.777850 -0.636993
O52   O     O_R   0.219370 0.106260 0.222150 -0.636975
O53   O     O_R   0.280630 0.606260 0.777850 -0.635383
O54   O     O_R   0.280630 0.606260 0.222150 -0.635372
O55   O     O_R   0.719370 0.606260 0.777850 -0.636993
O56   O     O_R   0.719370 0.606260 0.222150 -0.636975
O57   O     O_R   0.280650 0.893700 0.222130 -0.629941
O58   O     O_R   0.280650 0.893700 0.777870 -0.629889
O59   O     O_R   0.719350 0.893700 0.222130 -0.641093
O60   O     O_R   0.719350 0.893700 0.777870 -0.641130
O61   O     O_R   0.780650 0.393700 0.222130 -0.629941
O62   O     O_R   0.780650 0.393700 0.777870 -0.629889
O63   O     O_R   0.219350 0.393700 0.222130 -0.641093
O64   O     O_R   0.219350 0.393700 0.777870 -0.641130
O65   O     O_R   0.780650 0.893700 0.722130 -0.629922
O66   O     O_R   0.780650 0.893700 0.277870 -0.629908
O67   O     O_R   0.219350 0.893700 0.722130 -0.641111
O68   O     O_R   0.219350 0.893700 0.277870 -0.641104
O69   O     O_R   0.280650 0.393700 0.722130 -0.629922
O70   O     O_R   0.280650 0.393700 0.277870 -0.629908
O71   O     O_R   0.719350 0.393700 0.722130 -0.641111
O72   O     O_R   0.719350 0.393700 0.277870 -0.641104
O73   O     O_R   0.219370 0.972130 0.356260 -0.634406
O74   O     O_R   0.219370 0.972130 0.643740 -0.634450
O75   O     O_R   0.780630 0.972130 0.356260 -0.637483
O76   O     O_R   0.780630 0.972130 0.643740 -0.637444
O77   O     O_R   0.719370 0.472130 0.356260 -0.634406
O78   O     O_R   0.719370 0.472130 0.643740 -0.634450
O79   O     O_R   0.280630 0.472130 0.356260 -0.637483
O80   O     O_R   0.280630 0.472130 0.643740 -0.637444
O81   O     O_R   0.719370 0.972130 0.856260 -0.634412
O82   O     O_R   0.719370 0.972130 0.143740 -0.634438
O83   O     O_R   0.280630 0.972130 0.856260 -0.637481
O84   O     O_R   0.280630 0.972130 0.143740 -0.637453
O85   O     O_R   0.219370 0.472130 0.856260 -0.634412
O86   O     O_R   0.219370 0.472130 0.143740 -0.634438
O87   O     O_R   0.780630 0.472130 0.856260 -0.637481
O88   O     O_R   0.780630 0.472130 0.143740 -0.637453
O89   O     O_R   0.366850 0.027840 0.277850 -0.656109
O90   O     O_R   0.366850 0.027840 0.722150 -0.656015
O91   O     O_R   0.633150 0.027840 0.277850 -0.645376
O92   O     O_R   0.633150 0.027840 0.722150 -0.645436
O93   O     O_R   0.866850 0.527840 0.277850 -0.656109
O94   O     O_R   0.866850 0.527840 0.722150 -0.656015
O95   O     O_R   0.133150 0.527840 0.277850 -0.645375
O96   O     O_R   0.133150 0.527840 0.722150 -0.645435
O97   O     O_R   0.866850 0.027840 0.777850 -0.656106
O98   O     O_R   0.866850 0.027840 0.222150 -0.656039
O99   O     O_R   0.133150 0.027840 0.777850 -0.645379
O100  O     O_R   0.133150 0.027840 0.222150 -0.645418
O101  O     O_R   0.366850 0.527840 0.777850 -0.656106
O102  O     O_R   0.366850 0.527840 0.222150 -0.656039
O103  O     O_R   0.633150 0.527840 0.777850 -0.645379
O104  O     O_R   0.633150 0.527840 0.222150 -0.645418
Zn1   Zn    Zn3+2 0.206230 0.960180 0.289800 0.967467
Zn2   Zn    Zn3+2 0.206230 0.960180 0.710200 0.967421
Zn3   Zn    Zn3+2 0.793770 0.960180 0.289800 0.978496
Zn4   Zn    Zn3+2 0.793770 0.960180 0.710200 0.978499
Zn5   Zn    Zn3+2 0.706230 0.460180 0.289800 0.967467
Zn6   Zn    Zn3+2 0.706230 0.460180 0.710200 0.967421
Zn7   Zn    Zn3+2 0.293770 0.460180 0.289800 0.978496
Zn8   Zn    Zn3+2 0.293770 0.460180 0.710200 0.978499
Zn9   Zn    Zn3+2 0.706230 0.960180 0.789800 0.967453
Zn10  Zn    Zn3+2 0.706230 0.960180 0.210200 0.967444
Zn11  Zn    Zn3+2 0.293770 0.960180 0.789800 0.978506
Zn12  Zn    Zn3+2 0.293770 0.960180 0.210200 0.978482
Zn13  Zn    Zn3+2 0.206230 0.460180 0.789800 0.967453
Zn14  Zn    Zn3+2 0.206230 0.460180 0.210200 0.967444
Zn15  Zn    Zn3+2 0.793770 0.460180 0.789800 0.978506
Zn16  Zn    Zn3+2 0.793770 0.460180 0.210200 0.978482
Zn17  Zn    Zn3+2 0.293770 0.039800 0.289800 0.964378
Zn18  Zn    Zn3+2 0.293770 0.039800 0.710200 0.964393
Zn19  Zn    Zn3+2 0.706230 0.039800 0.289800 0.974553
Zn20  Zn    Zn3+2 0.706230 0.039800 0.710200 0.974495
Zn21  Zn    Zn3+2 0.793770 0.539800 0.289800 0.964378
Zn22  Zn    Zn3+2 0.793770 0.539800 0.710200 0.964393
Zn23  Zn    Zn3+2 0.206230 0.539800 0.289800 0.974553
Zn24  Zn    Zn3+2 0.206230 0.539800 0.710200 0.974495
Zn25  Zn    Zn3+2 0.793770 0.039800 0.789800 0.964380
Zn26  Zn    Zn3+2 0.793770 0.039800 0.210200 0.964389
Zn27  Zn    Zn3+2 0.206230 0.039800 0.789800 0.974546
Zn28  Zn    Zn3+2 0.206230 0.039800 0.210200 0.974511
Zn29  Zn    Zn3+2 0.293770 0.539800 0.789800 0.964380
Zn30  Zn    Zn3+2 0.293770 0.539800 0.210200 0.964389
Zn31  Zn    Zn3+2 0.706230 0.539800 0.789800 0.974546
Zn32  Zn    Zn3+2 0.706230 0.539800 0.210200 0.974511
C177  C     C_R   0.055485 0.924447 0.192065 0.123849
C178  C     C_R   0.040795 0.937801 0.144948 -0.105322
C179  C     C_R   0.065072 0.917423 0.104786 -0.143639
C180  C     C_R   0.104419 0.883567 0.110921 -0.112150
C181  C     C_R   0.119369 0.869784 0.157265 -0.141298
C182  C     C_R   0.095054 0.889883 0.197529 -0.175522
H81   H     H_    0.010097 0.963334 0.138830 0.125217
H82   H     H_    0.053286 0.927890 0.068816 0.126026
H83   H     H_    0.123248 0.867943 0.079759 0.125647
H84   H     H_    0.149912 0.843538 0.162050 0.130394
H85   H     H_    0.107631 0.878718 0.233069 0.138802
C183  C     C_R   0.055518 0.924688 0.808196 0.123954
C184  C     C_R   0.040851 0.938227 0.855267 -0.105105
C185  C     C_R   0.065167 0.918025 0.895498 -0.143568
C186  C     C_R   0.104528 0.884162 0.889477 -0.112133
C187  C     C_R   0.119455 0.870198 0.843182 -0.141280
C188  C     C_R   0.095102 0.890121 0.802849 -0.175721
H86   H     H_    0.010147 0.963774 0.861298 0.125199
H87   H     H_    0.053400 0.928634 0.931431 0.126026
H88   H     H_    0.123388 0.868676 0.920691 0.125633
H89   H     H_    0.150011 0.843949 0.838485 0.130367
H90   H     H_    0.107665 0.878823 0.767347 0.138617
C189  C     C_R   0.943927 0.912410 0.202972 0.124135
C190  C     C_R   0.910880 0.928755 0.165850 -0.164498
C191  C     C_R   0.888104 0.896130 0.133813 -0.149414
C192  C     C_R   0.897785 0.846837 0.138104 -0.110055
C193  C     C_R   0.930258 0.829983 0.174524 -0.122911
C194  C     C_R   0.953017 0.862394 0.206725 -0.125449
H91   H     H_    0.902073 0.966267 0.160805 0.126818
H92   H     H_    0.862819 0.909167 0.105565 0.128945
H93   H     H_    0.880087 0.821702 0.113222 0.125880
H94   H     H_    0.937769 0.791731 0.177898 0.126386
H95   H     H_    0.978045 0.848463 0.234778 0.116092
C195  C     C_R   0.943960 0.912611 0.797393 0.123878
C196  C     C_R   0.953084 0.862583 0.793865 -0.125449
C197  C     C_R   0.930400 0.830310 0.826249 -0.122948
C198  C     C_R   0.897962 0.847316 0.862626 -0.110036
C199  C     C_R   0.888234 0.896620 0.866685 -0.149379
C200  C     C_R   0.910938 0.929108 0.834467 -0.164751
H96   H     H_    0.978093 0.848539 0.765855 0.116119
H97   H     H_    0.937948 0.792050 0.823055 0.126379
H98   H     H_    0.880330 0.822289 0.887656 0.125866
H99   H     H_    0.862975 0.909774 0.894899 0.129009
H100  H     H_    0.902104 0.966635 0.839346 0.127214
C201  C     C_R   0.555485 0.424448 0.192065 0.123849
C202  C     C_R   0.540795 0.437802 0.144948 -0.105323
C203  C     C_R   0.565072 0.417423 0.104786 -0.143638
C204  C     C_R   0.604419 0.383567 0.110921 -0.112150
C205  C     C_R   0.619369 0.369784 0.157265 -0.141298
C206  C     C_R   0.595054 0.389883 0.197529 -0.175522
H101  H     H_    0.510097 0.463334 0.138830 0.125217
H102  H     H_    0.553286 0.427890 0.068816 0.126026
H103  H     H_    0.623248 0.367943 0.079759 0.125647
H104  H     H_    0.649912 0.343538 0.162050 0.130394
H105  H     H_    0.607631 0.378718 0.233069 0.138802
C207  C     C_R   0.555518 0.424688 0.808196 0.123954
C208  C     C_R   0.540851 0.438228 0.855267 -0.105105
C209  C     C_R   0.565167 0.418025 0.895498 -0.143568
C210  C     C_R   0.604528 0.384162 0.889478 -0.112133
C211  C     C_R   0.619455 0.370198 0.843182 -0.141280
C212  C     C_R   0.595102 0.390121 0.802849 -0.175720
H106  H     H_    0.510147 0.463774 0.861298 0.125199
H107  H     H_    0.553400 0.428634 0.931431 0.126026
H108  H     H_    0.623388 0.368676 0.920691 0.125633
H109  H     H_    0.650011 0.343949 0.838485 0.130367
H110  H     H_    0.607665 0.378823 0.767347 0.138616
C213  C     C_R   0.443927 0.412410 0.202972 0.124135
C214  C     C_R   0.410880 0.428755 0.165850 -0.164498
C215  C     C_R   0.388104 0.396130 0.133813 -0.149415
C216  C     C_R   0.397785 0.346837 0.138104 -0.110055
C217  C     C_R   0.430258 0.329983 0.174524 -0.122911
C218  C     C_R   0.453017 0.362394 0.206725 -0.125449
H111  H     H_    0.402073 0.466267 0.160805 0.126818
H112  H     H_    0.362819 0.409167 0.105565 0.128945
H113  H     H_    0.380087 0.321702 0.113222 0.125880
H114  H     H_    0.437769 0.291731 0.177898 0.126386
H115  H     H_    0.478045 0.348463 0.234778 0.116092
C219  C     C_R   0.443960 0.412611 0.797393 0.123878
C220  C     C_R   0.453083 0.362583 0.793865 -0.125449
C221  C     C_R   0.430400 0.330310 0.826249 -0.122949
C222  C     C_R   0.397962 0.347316 0.862626 -0.110034
C223  C     C_R   0.388234 0.396620 0.866685 -0.149379
C224  C     C_R   0.410938 0.429108 0.834467 -0.164750
H116  H     H_    0.478093 0.348539 0.765855 0.116119
H117  H     H_    0.437948 0.292050 0.823055 0.126379
H118  H     H_    0.380330 0.322289 0.887656 0.125866
H119  H     H_    0.362975 0.409774 0.894899 0.129009
H120  H     H_    0.402105 0.466635 0.839346 0.127213
C225  C     C_R   0.555482 0.924331 0.692198 0.123762
C226  C     C_R   0.540794 0.937596 0.645055 -0.105401
C227  C     C_R   0.565064 0.917132 0.604932 -0.143668
C228  C     C_R   0.604402 0.883279 0.611133 -0.112177
C229  C     C_R   0.619351 0.869584 0.657502 -0.141310
C230  C     C_R   0.595042 0.889768 0.697728 -0.175421
H121  H     H_    0.510101 0.963121 0.638888 0.125239
H122  H     H_    0.553278 0.927529 0.568943 0.126033
H123  H     H_    0.623225 0.867589 0.580001 0.125663
H124  H     H_    0.649887 0.843341 0.662338 0.130407
H125  H     H_    0.607617 0.878668 0.733289 0.138901
C231  C     C_R   0.555522 0.924711 0.308227 0.123960
C232  C     C_R   0.540859 0.938268 0.355294 -0.105081
C233  C     C_R   0.565176 0.918081 0.395531 -0.143557
C234  C     C_R   0.604538 0.884217 0.389522 -0.112138
C235  C     C_R   0.619462 0.870234 0.343232 -0.141275
C236  C     C_R   0.595106 0.890142 0.302893 -0.175744
H126  H     H_    0.510154 0.963816 0.361316 0.125198
H127  H     H_    0.553412 0.928704 0.431461 0.126032
H128  H     H_    0.623401 0.868743 0.420742 0.125635
H129  H     H_    0.650019 0.843984 0.338545 0.130364
H130  H     H_    0.607668 0.878829 0.267395 0.138594
C237  C     C_R   0.443921 0.912324 0.703122 0.124233
C238  C     C_R   0.410863 0.928604 0.665979 -0.164437
C239  C     C_R   0.388084 0.895925 0.634001 -0.149438
C240  C     C_R   0.397771 0.846640 0.638370 -0.110056
C241  C     C_R   0.430252 0.829848 0.674812 -0.122888
C242  C     C_R   0.453015 0.862314 0.706956 -0.125424
H131  H     H_    0.402047 0.966107 0.660878 0.126669
H132  H     H_    0.362790 0.908912 0.605737 0.128928
H133  H     H_    0.380070 0.821463 0.613533 0.125882
H134  H     H_    0.437767 0.791603 0.678246 0.126388
H135  H     H_    0.478049 0.848430 0.735027 0.116088
C243  C     C_R   0.443963 0.912626 0.297434 0.123838
C244  C     C_R   0.453092 0.862597 0.293932 -0.125440
C245  C     C_R   0.430417 0.830339 0.326337 -0.122955
C246  C     C_R   0.397983 0.847359 0.362710 -0.110043
C247  C     C_R   0.388248 0.896664 0.366742 -0.149367
C248  C     C_R   0.410943 0.929137 0.334503 -0.164773
H136  H     H_    0.478100 0.848539 0.265929 0.116123
H137  H     H_    0.437970 0.792078 0.323164 0.126374
H138  H     H_    0.380359 0.822343 0.387756 0.125864
H139  H     H_    0.362991 0.909829 0.394952 0.129017
H140  H     H_    0.402106 0.966665 0.339364 0.127250
C249  C     C_R   0.055482 0.424332 0.692197 0.123764
C250  C     C_R   0.040794 0.437597 0.645054 -0.105402
C251  C     C_R   0.065064 0.417134 0.604931 -0.143667
C252  C     C_R   0.104402 0.383280 0.611132 -0.112176
C253  C     C_R   0.119351 0.369585 0.657501 -0.141310
C254  C     C_R   0.095042 0.389769 0.697727 -0.175422
H141  H     H_    0.010101 0.463122 0.638887 0.125240
H142  H     H_    0.053279 0.427530 0.568942 0.126033
H143  H     H_    0.123225 0.367590 0.580000 0.125663
H144  H     H_    0.149887 0.343342 0.662336 0.130407
H145  H     H_    0.107617 0.378668 0.733288 0.138901
C255  C     C_R   0.055522 0.424711 0.308227 0.123959
C256  C     C_R   0.040858 0.438268 0.355294 -0.105079
C257  C     C_R   0.065176 0.418081 0.395531 -0.143558
C258  C     C_R   0.104538 0.384217 0.389523 -0.112139
C259  C     C_R   0.119462 0.370235 0.343232 -0.141274
C260  C     C_R   0.095106 0.390142 0.302893 -0.175743
H146  H     H_    0.010154 0.463816 0.361316 0.125197
H147  H     H_    0.053412 0.428704 0.431461 0.126033
H148  H     H_    0.123401 0.368744 0.420742 0.125636
H149  H     H_    0.150019 0.343985 0.338545 0.130363
H150  H     H_    0.107668 0.378829 0.267395 0.138593
C261  C     C_R   0.943921 0.412324 0.703121 0.124232
C262  C     C_R   0.910863 0.428605 0.665979 -0.164437
C263  C     C_R   0.888084 0.395926 0.634000 -0.149439
C264  C     C_R   0.897771 0.346641 0.638369 -0.110055
C265  C     C_R   0.930252 0.329849 0.674810 -0.122889
C266  C     C_R   0.953015 0.362314 0.706954 -0.125424
H151  H     H_    0.902047 0.466108 0.660878 0.126670
H152  H     H_    0.862790 0.408913 0.605736 0.128928
H153  H     H_    0.880070 0.321464 0.613531 0.125882
H154  H     H_    0.937767 0.291604 0.678244 0.126388
H155  H     H_    0.978049 0.348430 0.735025 0.116087
C267  C     C_R   0.943963 0.412626 0.297434 0.123837
C268  C     C_R   0.953092 0.362597 0.293933 -0.125439
C269  C     C_R   0.930417 0.330339 0.326338 -0.122956
C270  C     C_R   0.897984 0.347359 0.362710 -0.110041
C271  C     C_R   0.888248 0.396664 0.366742 -0.149368
C272  C     C_R   0.910943 0.429137 0.334503 -0.164772
H156  H     H_    0.978100 0.348539 0.265929 0.116123
H157  H     H_    0.937970 0.292078 0.323165 0.126374
H158  H     H_    0.880359 0.322343 0.387756 0.125863
H159  H     H_    0.862991 0.409830 0.394952 0.129017
H160  H     H_    0.902106 0.466665 0.339364 0.127250

loop_
_geom_bond_atom_site_label_1
_geom_bond_atom_site_label_2
_ccdc_geom_bond_type
C213  C214  A    
O30   Zn22  S    
C6    O14   A    
C120  O53   A    
C234  C235  A    
C196  C197  A    
O14   Zn15  S    
C42   C58   S    
C12   C49   S    
C194  H95   S    
C116  O49   A    
C249  C254  A    
C46   C62   S    
C35   H51   S    
C122  C130  S    
C210  H108  S    
C33   H49   S    
O92   Zn20  S    
C198  C199  A    
O69   Zn8   S    
C168  C219  S    
C172  C243  S    
C226  H121  S    
C222  H118  S    
C118  O46   A    
C115  O43   A    
O41   Zn17  S    
C27   H75   S    
C221  H117  S    
C9    O97   A    
C72   C88   T    
C25   H73   S    
C252  C253  A    
C39   H39   S    
C79   C102  S    
C29   H77   S    
C40   H56   S    
C147  C155  T    
C65   C108  S    
C57   C169  S    
C191  H92   S    
C19   H67   S    
C123  C131  S    
C14   O22   A    
C143  C151  S    
C227  H122  S    
C117  O56   A    
C17   H65   S    
C239  H132  S    
O76   Zn4   S    
C118  O55   A    
C173  C249  S    
C41   C43   S    
O7    Zn14  S    
C262  H151  S    
C248  H140  S    
C9    C52   S    
C42   C44   S    
C38   H38   S    
C59   C171  S    
C10   C51   S    
C250  H141  S    
C161  C163  S    
C242  H135  S    
C162  C164  S    
O2    Zn18  S    
C251  H142  S    
C46   C48   S    
C122  O58   A    
C236  H130  S    
C15   C54   S    
O82   Zn10  S    
C244  H136  S    
O17   Zn4   S    
C247  H139  S    
C2    C59   S    
C240  C241  A    
C201  C202  A    
O49   Zn25  S    
O44   Zn20  S    
C75   C98   S    
C125  O72   A    
C106  O82   A    
C6    C63   S    
C174  C255  S    
C184  H86   S    
C7    C62   S    
C31   H31   S    
C66   C82   T    
O2    Zn11  S    
C121  O68   A    
C209  H107  S    
C8    O96   A    
C100  O28   A    
C45   H61   S    
O100  Zn28  S    
C271  C272  A    
C101  O29   A    
C230  H125  S    
O86   Zn14  S    
C221  C222  A    
C103  O31   A    
C200  H100  S    
C181  H84   S    
C36   H36   S    
C269  C270  A    
C259  H149  S    
C167  C213  S    
C35   C51   S    
O37   Zn29  S    
C115  O50   A    
C132  C140  T    
C161  H1    S    
C130  C138  T    
O35   Zn27  S    
C238  C239  A    
O8    Zn8   S    
O12   Zn9   S    
C213  C218  A    
O33   Zn25  S    
C256  H146  S    
C10   O98   A    
C47   H47   S    
C267  C268  A    
C258  H148  S    
C5    O13   A    
O46   Zn22  S    
O24   Zn5   S    
C253  H144  S    
C21   H21   S    
C245  C246  A    
C42   H42   S    
O67   Zn2   S    
C23   C55   S    
C247  C248  A    
O79   Zn7   S    
C24   C56   S    
C177  C178  A    
C46   H46   S    
O99   Zn27  S    
C15   O103  A    
C207  C208  A    
C74   C90   T    
C44   H60   S    
C261  C266  A    
C222  C223  A    
C112  O40   A    
O97   Zn25  S    
C264  H153  S    
C16   O24   A    
C184  C185  A    
C190  C191  A    
C142  C150  S    
C223  C224  A    
C109  O37   A    
C78   C94   T    
O59   Zn10  S    
O55   Zn31  S    
C111  O87   A    
O93   Zn21  S    
C178  C179  A    
C73   C89   T    
C192  H93   S    
O95   Zn23  S    
C129  C137  T    
C24   H24   S    
C136  C144  T    
O22   Zn7   S    
C128  O69   A    
O26   Zn18  S    
C186  H88   S    
O16   Zn13  S    
O94   Zn22  S    
C170  C231  S    
C97   O73   A    
C124  O65   A    
O5    Zn32  S    
C67   C83   T    
C50   C162  S    
O3    Zn26  S    
C40   C56   S    
C193  C194  A    
C44   H44   S    
C66   C107  S    
O1    Zn28  S    
C205  H104  S    
C22   C54   S    
C85   C86   S    
C204  C205  A    
C37   H53   S    
C268  C269  A    
C100  O76   A    
C41   H57   S    
C232  H126  S    
C27   H27   S    
C9    O17   A    
C25   H25   S    
C219  C224  A    
C112  O88   A    
C264  C265  A    
C169  C225  S    
C2    O10   A    
C188  H90   S    
C29   H29   S    
C124  C132  S    
C45   C61   S    
C229  H124  S    
O11   Zn10  S    
O103  Zn31  S    
O18   Zn3   S    
C1    O89   A    
C34   H34   S    
C202  C203  A    
C216  H113  S    
C83   C84   S    
O45   Zn21  S    
C119  O54   A    
C126  O71   A    
C117  C155  S    
C118  C156  S    
C234  H128  S    
O1    Zn12  S    
C32   H32   S    
O65   Zn4   S    
C49   C161  S    
C36   C52   S    
C75   C91   T    
C122  O67   A    
C13   C56   S    
C37   C53   S    
C135  C143  T    
C14   C55   S    
C165  C167  S    
C249  C250  A    
C166  C168  S    
C169  C171  S    
O80   Zn8   S    
O60   Zn9   S    
C25   C57   S    
C228  C229  A    
C253  C254  A    
O57   Zn12  S    
C109  O85   A    
C173  C175  S    
C127  O63   A    
C12   O100  A    
C111  O39   A    
C254  H145  S    
C127  O70   A    
C31   C63   S    
O4    Zn9   S    
C105  O81   A    
C183  C184  A    
C32   C64   S    
O70   Zn7   S    
C17   C49   S    
C91   C92   S    
C22   H70   S    
O63   Zn14  S    
O27   Zn19  S    
C219  C220  A    
C48   H48   S    
O3    Zn3   S    
C207  C212  A    
C98   O74   A    
C4    O92   A    
C151  C159  T    
O102  Zn30  S    
C116  C158  S    
C229  C230  A    
C97   O25   A    
C179  H82   S    
C227  C228  A    
C29   C31   S    
C40   H40   S    
C120  C154  S    
C225  C226  A    
O78   Zn6   S    
C113  C159  S    
C114  C160  S    
O62   Zn15  S    
C104  O32   A    
C47   H63   S    
C163  H3    S    
O58   Zn11  S    
C163  C189  S    
C68   C105  S    
O5    Zn21  S    
C244  C245  A    
O21   Zn8   S    
C69   C85   T    
C197  C198  A    
O42   Zn18  S    
C240  H133  S    
C2    O90   A    
O23   Zn6   S    
C187  H89   S    
C113  O41   A    
O8    Zn29  S    
C204  H103  S    
C16   O104  A    
C211  C212  A    
C41   H41   S    
C237  C238  A    
C271  H159  S    
O15   Zn14  S    
C31   H79   S    
C45   H45   S    
C102  O30   A    
C15   O23   A    
C243  C244  A    
C89   C90   S    
C246  H138  S    
C8    O16   A    
C43   H59   S    
C181  C182  A    
C123  O59   A    
C108  O36   A    
C241  H134  S    
C217  H114  S    
C101  O77   A    
C138  C146  S    
C187  C188  A    
C33   C35   S    
C103  O79   A    
C34   C36   S    
C202  H101  S    
O38   Zn30  S    
C23   H71   S    
C162  H2    S    
C131  C139  T    
C210  C211  A    
O34   Zn26  S    
C119  C153  S    
C270  C271  A    
O1    Zn1   S    
C258  C259  A    
C245  H137  S    
C162  C183  S    
C199  H99   S    
O104  Zn32  S    
O10   Zn11  S    
C161  C177  S    
C197  H97   S    
C73   C100  S    
C177  C182  A    
O75   Zn3   S    
O29   Zn21  S    
O6    Zn6   S    
C261  C262  A    
O31   Zn23  S    
O66   Zn3   S    
C223  H119  S    
C237  C242  A    
C110  O38   A    
C257  C258  A    
C93   C94   S    
C137  C145  S    
C259  C260  A    
C34   H50   S    
C54   C166  S    
O20   Zn1   S    
C178  H81   S    
C106  O34   A    
C47   C63   S    
C246  C247  A    
C69   C112  S    
C48   C64   S    
C18   H18   S    
C195  C196  A    
C33   C49   S    
C71   C110  S    
C113  O52   A    
C231  C232  A    
O4    Zn20  S    
C114  O51   A    
C263  H152  S    
C255  C260  A    
C125  O61   A    
C26   H74   S    
C48   H64   S    
C224  H120  S    
C72   C109  S    
C39   C55   S    
C243  C248  A    
C128  O64   A    
C166  H6    S    
C5    O93   A    
C30   H78   S    
C51   C163  S    
C7    O95   A    
C166  C207  S    
C164  H4    S    
C175  C261  S    
C18   H66   S    
C45   C47   S    
C29   C61   S    
O91   Zn19  S    
C232  C233  A    
C102  O78   A    
C140  C148  S    
C10   O18   A    
C37   H37   S    
O56   Zn32  S    
O3    Zn19  S    
C191  C192  A    
C189  C194  A    
C266  H155  S    
C3    O11   A    
C141  C149  S    
C68   C84   T    
O83   Zn11  S    
O53   Zn29  S    
C180  C181  A    
C220  H116  S    
O51   Zn27  S    
C216  C217  A    
C76   C97   S    
C215  C216  A    
C260  H150  S    
C217  C218  A    
O52   Zn28  S    
C231  C236  A    
C203  C204  A    
C28   H76   S    
O87   Zn15  S    
O6    Zn31  S    
C134  C142  T    
O4    Zn4   S    
O73   Zn1   S    
C38   C54   S    
C32   H80   S    
O2    Zn27  S    
O85   Zn13  S    
C26   C58   S    
C228  H123  S    
C265  H154  S    
C52   C164  S    
C71   C87   T    
C53   C165  S    
C128  C136  S    
C185  H87   S    
C21   C23   S    
C235  H129  S    
C22   C24   S    
C14   O102  A    
C183  C188  A    
O6    Zn15  S    
O13   Zn16  S    
C18   C50   S    
C11   O99   A    
C20   H68   S    
O72   Zn5   S    
C150  C158  T    
C58   C170  S    
O9    Zn12  S    
C182  H85   S    
C22   H22   S    
C43   H43   S    
C121  C129  S    
C6    O94   A    
C180  H83   S    
C179  C180  A    
C98   O26   A    
C67   C106  S    
O47   Zn23  S    
C74   C99   S    
O101  Zn29  S    
C4    O12   A    
C196  H96   S    
C133  C141  T    
C225  C230  A    
C26   H26   S    
O32   Zn24  S    
C7    O15   A    
C64   C176  S    
C41   C57   S    
C37   C39   S    
C11   C50   S    
C203  H102  S    
C38   C40   S    
C170  C172  S    
C44   C60   S    
C233  H127  S    
C77   C93   T    
C268  H156  S    
C1    C60   S    
C174  C176  S    
C70   C111  S    
C169  H9    S    
O19   Zn2   S    
C214  C215  A    
C5    C64   S    
C87   C88   S    
C144  C152  S    
C226  C227  A    
C13   O101  A    
C117  O45   A    
C114  O42   A    
C185  C186  A    
C77   C104  S    
C148  C156  T    
O7    Zn23  S    
C211  H109  S    
O25   Zn17  S    
C120  O48   A    
C119  O47   A    
C270  H158  S    
C171  C237  S    
O54   Zn30  S    
C21   C53   S    
C152  C160  T    
C123  O66   A    
C19   H19   S    
C252  H143  S    
C17   H17   S    
C95   C96   S    
C220  C221  A    
C12   O20   A    
C81   C82   S    
C13   O21   A    
C241  C242  A    
C38   H54   S    
O39   Zn31  S    
C79   C95   T    
O40   Zn32  S    
C139  C147  S    
C239  C240  A    
C263  C264  A    
O89   Zn17  S    
C115  C157  S    
C215  H112  S    
C262  C263  A    
C108  O84   A    
O36   Zn28  S    
C175  H15   S    
C176  H16   S    
O74   Zn2   S    
O90   Zn18  S    
C121  O57   A    
C208  H106  S    
C62   C174  S    
O71   Zn6   S    
C23   H23   S    
O96   Zn24  S    
C272  H160  S    
C206  H105  S    
C124  O60   A    
C35   H35   S    
C16   C53   S    
C199  C200  A    
C60   C172  S    
C164  C195  S    
O8    Zn24  S    
C167  H7    S    
C168  H8    S    
C146  C154  T    
C214  H111  S    
C186  C187  A    
O88   Zn16  S    
O50   Zn26  S    
C3    C58   S    
C145  C153  T    
C209  C210  A    
C257  H147  S    
O84   Zn12  S    
O61   Zn16  S    
C170  H10   S    
C33   H33   S    
C126  C134  S    
C110  O86   A    
C107  O35   A    
O8    Zn13  S    
C176  C267  S    
C195  C200  A    
C269  H157  S    
C34   C50   S    
O5    Zn16  S    
C28   H28   S    
C61   C173  S    
C255  C256  A    
O6    Zn22  S    
O7    Zn30  S    
C265  C266  A    
C126  O62   A    
C238  H131  S    
C21   H69   S    
C99   O75   A    
C256  C257  A    
C267  C272  A    
O2    Zn2   S    
O64   Zn13  S    
C4    C57   S    
C39   H55   S    
O48   Zn24  S    
C189  C190  A    
O98   Zn26  S    
C212  H110  S    
C190  H91   S    
O77   Zn5   S    
C11   O19   A    
C28   C60   S    
C76   C92   T    
C174  H14   S    
C208  C209  A    
C24   H72   S    
C80   C96   T    
O68   Zn1   S    
C70   C86   T    
O43   Zn19  S    
C105  O33   A    
C3    O91   A    
C192  C193  A    
C125  C133  S    
C233  C234  A    
C78   C103  S    
C250  C251  A    
O3    Zn10  S    
C201  C206  A    
O28   Zn20  S    
C63   C175  S    
O4    Zn25  S    
C43   C59   S    
C25   C27   S    
C251  C252  A    
C8    C61   S    
C26   C28   S    
C171  H11   S    
C80   C101  S    
C165  H5    S    
C30   C62   S    
C193  H94   S    
C165  C201  S    
C20   C52   S    
C218  H115  S    
C27   C59   S    
C30   C32   S    
C42   H58   S    
C30   H30   S    
C205  C206  A    
O5    Zn5   S    
C198  H98   S    
C172  H12   S    
C173  H13   S    
C235  C236  A    
C17   C19   S    
O7    Zn7   S    
C18   C20   S    
C46   H62   S    
C127  C135  S    
O1    Zn17  S    
C55   C167  S    
C107  O83   A    
C19   C51   S    
C1    O9    A    
C116  O44   A    
C36   H52   S    
O81   Zn9   S    
C56   C168  S    
C65   C81   T    
C149  C157  T    
C20   H20   S    
C104  O80   A    
C99   O27   A    
