data_mof_unit_11663.cif
_audit_creation_date              2012-12-10T17:02:56-0500
_audit_creation_method            fapswitch 2.2
_symmetry_space_group_name_H-M    P1
_symmetry_Int_Tables_number       1
_space_group_crystal_system       triclinic
_cell_length_a                    9.786521
_cell_length_b                    11.016924
_cell_length_c                    13.414894
_cell_angle_alpha                 93.85582
_cell_angle_beta                  81.151434
_cell_angle_gamma                 111.276209
_cell_volume                      1331.63413172

loop_
_atom_site_label
_atom_site_type_symbol
_atom_type_description
_atom_site_fract_x
_atom_site_fract_y
_atom_site_fract_z
_atom_type_partial_charge
C1    C     C_R   0.558056 0.745715 0.503155 0.844260
C2    C     C_R   0.438055 0.498379 0.972855 0.093863
C3    C     C_R   0.476538 0.539121 0.870955 0.026203
C4    C     C_R   0.549308 0.537661 0.037676 0.093409
C5    C     C_R   0.692509 0.627522 0.003290 0.153480
C6    C     C_R   0.723531 0.677340 0.906304 -0.257119
C7    C     C_R   0.617103 0.635016 0.841531 -0.184928
C8    C     C_R   0.522454 0.490504 0.136100 -0.247890
C9    C     C_R   0.769960 0.625300 0.166432 -0.200979
C10   C     C_R   0.372356 0.485096 0.801721 -0.207961
C11   C     C_2   0.594141 0.884570 0.491147 -0.375626
C12   C     C_R   0.422103 0.492261 0.691244 0.814337
C13   C     C_2   0.486780 0.927715 0.479429 -0.179239
C14   C     C_2   0.407151 0.112261 0.497002 0.144768
C15   C     C_2   0.515589 0.065088 0.463577 0.403440
C16   C     C_2   0.922361 0.489404 0.491887 -0.064317
C17   C     C_2   0.077172 0.509691 0.508822 -0.082984
C18   C     C_R   0.442066 0.253769 0.494929 0.779728
C19   C     C_R   0.578840 0.513828 0.309501 0.781462
C20   C     C_R   0.802408 0.668490 0.067182 -0.209150
C21   C     C_R   0.628242 0.538744 0.201708 -0.057045
C22   C     C_R   0.222515 0.413942 0.839184 0.448977
C23   C     C_R   0.183844 0.382998 0.941557 -0.233759
C24   C     C_R   0.289173 0.422122 0.006729 -0.267712
Cu1   Cu    Cu3+1 0.362000 0.479240 0.482530 0.937572
Cu2   Cu    Cu3+1 0.638000 0.520760 0.517470 0.935779
H1    H     H_    0.708201 0.950021 0.487182 0.183687
H2    H     H_    0.125921 0.577978 0.566975 0.159877
H3    H     H_    0.873247 0.420241 0.434350 0.180995
H4    H     H_    0.894765 0.617566 0.597647 0.184625
H5    H     H_    0.911885 0.737325 0.041360 0.134257
H6    H     H_    0.418498 0.417650 0.165185 0.139379
H7    H     H_    0.071374 0.324712 0.971070 0.145435
N1    N     N_2   0.845330 0.551960 0.543750 -0.291463
N2    N     N_2   0.154690 0.448120 0.456210 -0.279811
O1    O     O_R   0.426290 0.668220 0.490680 -0.574230
O2    O     O_R   0.659360 0.703290 0.520190 -0.582574
O3    O     O_R   0.326580 0.473880 0.629020 -0.535600
O4    O     O_R   0.559660 0.508940 0.658530 -0.583096
O5    O     O_R   0.340640 0.296710 0.479810 -0.591577
O6    O     O_R   0.573710 0.331780 0.509320 -0.536003
O7    O     O_R   0.440340 0.491060 0.341470 -0.573348
O8    O     O_R   0.673420 0.526120 0.370980 -0.584640
H8    H     H_    0.852959 0.664041 0.216612 0.150784
H9    H     H_    0.372695 0.860620 0.484030 0.187337
O9    O     O_3   0.276839 0.030104 0.552381 -0.645531
C25   C     C_3   0.147372 0.038540 0.523890 0.027211
H10   H     H_    0.066315 0.937824 0.518307 0.154537
H11   H     H_    0.165403 0.080788 0.447629 0.135510
C26   C     C_3   0.078942 0.111587 0.606154 -0.258930
H12   H     H_    0.034755 0.050951 0.674993 0.195258
H13   H     H_    0.165555 0.202242 0.628248 0.270691
C27   C     C_3   0.955006 0.145643 0.572238 -0.838515
H14   H     H_    0.959783 0.243220 0.602064 0.272325
H15   H     H_    0.846104 0.073597 0.602687 0.234992
H16   H     H_    0.964041 0.148387 0.488797 0.243602
H17   H     H_    0.106155 0.384238 0.401114 0.190712
H18   H     H_    0.830737 0.749604 0.880261 0.141130
O10   O     O_3   0.117428 0.363726 0.773932 -0.615280
C28   C     C_3   0.996595 0.407300 0.800906 0.056501
H19   H     H_    0.984505 0.454336 0.733776 0.157817
H20   H     H_    0.012023 0.482314 0.862721 0.126462
C29   C     C_3   0.853210 0.291032 0.829417 -0.363476
H21   H     H_    0.831870 0.221225 0.765144 0.232649
H22   H     H_    0.863459 0.238846 0.894154 0.212778
C30   C     C_3   0.720890 0.334564 0.857688 -0.875556
H23   H     H_    0.735874 0.397905 0.926019 0.261150
H24   H     H_    0.618161 0.248098 0.874379 0.254855
H25   H     H_    0.708520 0.388474 0.794621 0.274715
H26   H     H_    0.248421 0.394077 0.084126 0.147979
H27   H     H_    0.645443 0.682069 0.769227 0.166289
O11   O     O_3   0.655963 0.144869 0.421368 -0.621201
C31   C     C_3   0.658724 0.158577 0.316801 0.039141
H28   H     H_    0.736044 0.258455 0.295788 0.163586
H29   H     H_    0.549487 0.150179 0.295763 0.095311
C32   C     C_3   0.716711 0.060121 0.256111 -0.340558
H30   H     H_    0.824587 0.068772 0.278623 0.216157
H31   H     H_    0.637075 0.959702 0.272554 0.221465
C33   C     C_3   0.737648 0.083084 0.142896 -0.922270
H32   H     H_    0.630819 0.073873 0.118520 0.259209
H33   H     H_    0.778249 0.009479 0.101138 0.258788
H34   H     H_    0.820201 0.181682 0.123890 0.247896

loop_
_geom_bond_atom_site_label_1
_geom_bond_atom_site_label_2
_ccdc_geom_bond_type
C30   H24   S    
C29   H22   S    
C31   H28   S    
C14   C18   S    
C1    C11   S    
C32   C33   S    
C4    C8    A    
C24   H26   S    
C25   H11   S    
C5    C20   A    
C27   H14   S    
C10   C22   A    
C15   O11   S    
C28   C29   S    
C19   C21   S    
C32   H31   S    
C3    C7    A    
Cu1   O5    S    
C7    H27   S    
C5    C6    A    
Cu2   O4    S    
C30   H25   S    
C28   H20   S    
C6    H18   S    
C18   O5    A    
C16   N1    D    
Cu2   N1    S    
C16   C17   S    
C23   H7    S    
C26   H13   S    
C23   C24   A    
C19   O7    A    
C1    O2    A    
C30   H23   S    
C29   C30   S    
O10   C28   S    
C31   H29   S    
C19   O8    A    
Cu2   O8    S    
C26   H12   S    
C25   C26   S    
C27   H15   S    
C26   C27   S    
H4    N1    S    
C8    H6    S    
C32   H30   S    
C14   O9    S    
C18   O6    A    
C22   O10   S    
C33   H33   S    
O11   C31   S    
C16   H3    S    
C29   H21   S    
C28   H19   S    
C2    C4    A    
Cu1   O3    S    
C9    C20   A    
C25   H10   S    
C11   H1    S    
C8    C21   A    
C10   C12   S    
Cu1   N2    S    
C13   C15   S    
C2    C24   A    
C31   C32   S    
C27   H16   S    
O9    C25   S    
C9    H8    S    
C14   C15   D    
C17   H2    S    
C4    C5    A    
Cu1   O7    S    
C33   H34   S    
Cu2   O2    S    
C6    C7    A    
N2    H17   S    
C12   O4    A    
C2    C3    A    
Cu1   Cu2   S    
C3    C10   A    
C13   H9    S    
C11   C13   D    
C9    C21   A    
C12   O3    A    
Cu1   O1    S    
C33   H32   S    
C1    O1    A    
C22   C23   A    
C17   N2    D    
Cu2   O6    S    
C20   H5    S    
