data_mof_unit_47051.cif
_audit_creation_date              2012-10-26T20:48:40-0400
_audit_creation_method            fapswitch 2.2
_symmetry_space_group_name_H-M    P1
_symmetry_Int_Tables_number       1
_space_group_crystal_system       triclinic
_cell_length_a                    15.209587
_cell_length_b                    14.028517
_cell_length_c                    9.152023
_cell_angle_alpha                 89.755171
_cell_angle_beta                  97.078131
_cell_angle_gamma                 89.661021
_cell_volume                      1937.80803872

loop_
_atom_site_label
_atom_site_type_symbol
_atom_type_description
_atom_site_fract_x
_atom_site_fract_y
_atom_site_fract_z
_atom_type_partial_charge
C1    C     C_R   0.331346 0.500162 0.515570 0.576361
C2    C     C_R   0.556354 0.892589 0.601510 -0.080625
C3    C     C_R   0.499842 0.500122 0.220673 0.558482
C4    C     C_R   0.500396 0.499883 0.779368 0.552009
C5    C     C_R   0.499557 0.054099 0.500699 -0.046325
C6    C     C_R   0.499389 0.945737 0.500985 -0.050811
C7    C     C_1   0.500127 0.500188 0.065445 0.040530
C8    C     C_1   0.500280 0.499859 0.934635 0.038415
C9    C     C_R   0.098565 0.584127 0.459843 0.258925
C10   C     C_R   0.899565 0.423907 0.401343 0.249935
C11   C     C_R   0.899276 0.586881 0.487461 0.219518
C12   C     C_R   0.668080 0.499711 0.482806 0.591740
C13   C     C_R   0.094162 0.419659 0.544705 0.235781
C14   C     C_R   0.187280 0.587268 0.518249 0.199502
C15   C     C_R   0.807849 0.416557 0.413798 0.170988
C16   C     C_R   0.807537 0.587474 0.454007 0.156793
C17   C     C_R   0.188127 0.416754 0.563505 0.155574
C18   C     C_R   0.235612 0.501166 0.537425 -0.131148
C19   C     C_R   0.761754 0.500134 0.451098 -0.122130
C20   C     C_R   0.047982 0.502077 0.483127 -0.052900
C21   C     C_R   0.948187 0.504520 0.457833 -0.053382
C22   C     C_3   0.045959 0.643209 0.231150 0.038485
C23   C     C_R   0.544242 0.206264 0.617078 0.403630
C24   C     C_3   0.131136 0.631559 0.157573 -0.259124
C25   C     C_3   0.112982 0.582706 0.008903 -0.503645
C26   C     C_3   0.946965 0.385954 0.177509 0.050464
C27   C     C_3   0.865700 0.441671 0.098497 -0.293991
C28   C     C_3   0.873311 0.460022 0.937048 -0.505212
C29   C     C_3   0.947528 0.679814 0.684825 0.042490
C30   C     C_3   0.935847 0.784478 0.724661 -0.199282
C31   C     C_3   0.952452 0.799858 0.890524 -0.452282
C32   C     C_3   0.019754 0.350004 0.717508 0.032946
C33   C     C_3   0.985470 0.254573 0.768986 -0.240653
C34   C     C_R   0.446825 0.793693 0.392746 0.401364
C35   C     C_3   0.900378 0.224401 0.675949 -0.318090
C36   C     C_R   0.455604 0.207357 0.383153 0.373032
C37   C     C_R   0.553536 0.792262 0.607281 0.399228
C38   C     C_R   0.537502 0.106243 0.621384 -0.080521
C39   C     C_R   0.442743 0.893857 0.400032 -0.080099
C40   C     C_R   0.461979 0.107224 0.379551 -0.087724
Cu1   Cu    Cu3+1 0.500000 0.596430 0.500000 1.240237
Cu2   Cu    Cu3+1 0.500000 0.403570 0.500000 1.234924
H1    H     H_    0.563184 0.069581 0.721481 0.168451
H2    H     H_    0.002150 0.580979 0.211690 0.111322
H3    H     H_    0.160188 0.703003 0.143400 0.239525
H4    H     H_    0.180567 0.587119 0.226259 0.187502
H5    H     H_    0.107453 0.504510 0.024076 0.131897
H6    H     H_    0.167692 0.596827 0.941940 0.189677
H7    H     H_    0.050062 0.609593 0.950405 0.125626
H8    H     H_    0.956155 0.320991 0.112633 0.183677
H9    H     H_    0.008714 0.427174 0.176888 0.114255
H10   H     H_    0.804266 0.400630 0.104304 0.234647
H11   H     H_    0.858695 0.511907 0.151567 0.134247
H12   H     H_    0.396104 0.931307 0.321944 0.173795
H13   H     H_    0.938478 0.491425 0.923658 0.124032
H14   H     H_    0.820394 0.510266 0.890632 0.155757
H15   H     H_    0.864087 0.392238 0.876033 0.165836
H16   H     H_    0.015238 0.655887 0.727428 0.164687
H17   H     H_    0.898311 0.636801 0.737649 0.102661
H18   H     H_    0.982444 0.829243 0.670190 0.226590
H19   H     H_    0.867296 0.807971 0.684244 0.236958
H20   H     H_    0.907988 0.753996 0.947708 0.175447
H21   H     H_    0.939035 0.875536 0.915643 0.196004
H22   H     H_    0.022614 0.783304 0.931841 0.161785
H23   H     H_    0.436225 0.071255 0.279675 0.170246
H24   H     H_    0.966221 0.404251 0.711810 0.094417
H25   H     H_    0.074928 0.373132 0.801370 0.124070
H26   H     H_    0.036158 0.197825 0.764604 0.235190
H27   H     H_    0.972583 0.260758 0.885069 0.113764
H28   H     H_    0.848146 0.279124 0.682339 0.196770
H29   H     H_    0.877221 0.155850 0.718197 0.177452
H30   H     H_    0.912035 0.214672 0.559578 0.256114
H31   H     H_    0.176925 0.821187 0.687270 0.379704
H32   H     H_    0.632790 0.276386 0.206782 0.404101
H33   H     H_    0.692581 0.631898 0.180406 0.320768
H34   H     H_    0.602859 0.929169 0.679569 0.169403
H35   H     H_    0.309247 0.376634 0.830749 0.318015
H36   H     H_    0.686408 0.376288 0.852352 0.340535
H37   H     H_    0.327865 0.618232 0.138952 0.333310
H38   H     H_    0.308316 0.376920 0.147531 0.334039
H39   H     H_    0.686708 0.618081 0.855840 0.328840
H40   H     H_    0.007492 0.704006 0.177611 0.180901
N1    N     N_R   0.500000 0.258690 0.500000 -0.245749
N2    N     N_R   0.500000 0.741310 0.500000 -0.244789
O1    O     O_R   0.371460 0.581430 0.500010 -0.424141
O2    O     O_2   0.677644 0.179379 0.834583 -0.281687
O3    O     O_3   0.665767 0.353462 0.751750 -0.506357
O4    O     O_2   0.321920 0.817065 0.157989 -0.269808
O5    O     O_2   0.458375 0.735530 0.119790 -0.206419
O6    O     O_3   0.339258 0.643046 0.240692 -0.517546
O7    O     O_2   0.449263 0.272017 0.107723 -0.246014
O8    O     O_2   0.321878 0.182943 0.166468 -0.243032
O9    O     O_3   0.333952 0.356750 0.247740 -0.491931
O10   O     O_2   0.683674 0.813323 0.833942 -0.277381
O11   O     O_2   0.550391 0.730928 0.882195 -0.215715
O12   O     O_R   0.628540 0.418570 0.499990 -0.408255
O13   O     O_3   0.667382 0.639844 0.753760 -0.509504
O14   O     O_3   0.064068 0.663977 0.382745 -0.433702
O15   O     O_3   0.939336 0.354885 0.323806 -0.465894
O16   O     O_3   0.939399 0.671828 0.530486 -0.449334
O17   O     O_3   0.048334 0.339011 0.577450 -0.456752
O18   O     O_2   0.306764 0.686998 0.700695 -0.270156
O19   O     O_2   0.257131 0.755761 0.456352 -0.207833
O20   O     O_3   0.149282 0.760227 0.652900 -0.509629
O21   O     O_2   0.808568 0.240538 0.283035 -0.219574
O22   O     O_2   0.718376 0.259348 0.482502 -0.260777
O23   O     O_R   0.628540 0.581430 0.499990 -0.415680
O24   O     O_3   0.663423 0.337547 0.230230 -0.531151
O25   O     O_2   0.729229 0.754690 0.501472 -0.218231
O26   O     O_2   0.823293 0.751213 0.304517 -0.224181
O27   O     O_3   0.669350 0.672516 0.255456 -0.452802
O28   O     O_2   0.187075 0.245967 0.711968 -0.241812
O29   O     O_2   0.274360 0.255862 0.507965 -0.169029
O30   O     O_3   0.333210 0.338408 0.753742 -0.462952
O31   O     O_R   0.371460 0.418570 0.500010 -0.406363
O32   O     O_R   0.500000 0.581420 0.288390 -0.441119
O33   O     O_R   0.500000 0.418580 0.711610 -0.434208
O34   O     O_R   0.500000 0.581420 0.711610 -0.449872
O35   O     O_R   0.500000 0.418580 0.288390 -0.447944
O36   O     O_2   0.549900 0.269983 0.891538 -0.223539
S1    S     S_3+6 0.610001 0.253141 0.776075 0.084119
S2    S     S_3+6 0.390813 0.747070 0.224961 0.097627
S3    S     S_3+6 0.389627 0.255672 0.223958 0.089470
S4    S     S_3+6 0.614464 0.743503 0.771491 0.088298
S5    S     S_3+6 0.229603 0.699370 0.582439 0.071938
S6    S     S_3+6 0.750723 0.309150 0.354012 0.027156
S7    S     S_3+6 0.757634 0.695222 0.379685 0.082481
S8    S     S_3+6 0.244419 0.310446 0.633830 0.094348

loop_
_geom_bond_atom_site_label_1
_geom_bond_atom_site_label_2
_ccdc_geom_bond_type
H36   O3    S    
O11   S4    D    
C9    O14   S    
C22   O14   S    
Cu1   Cu2   S    
C14   C18   A    
C4    C8    S    
O18   S5    D    
C28   H14   S    
C7    C8    T    
C23   S1    S    
O29   S8    D    
C28   H15   S    
C27   H10   S    
C15   C19   A    
C1    C18   S    
C14   S5    S    
C23   N1    A    
O21   S6    D    
Cu2   O12   S    
C24   H3    S    
C22   H40   S    
O13   S4    S    
C3    C7    S    
C10   C15   A    
C26   H8    S    
C30   C31   S    
O26   S7    D    
Cu2   O35   S    
C39   H12   S    
O5    S2    D    
C36   N1    A    
H37   O6    S    
O25   S7    D    
H31   O20   S    
C22   H2    S    
O20   S5    S    
C29   H17   S    
C35   H28   S    
C15   S6    S    
C30   H18   S    
C37   N2    A    
Cu1   O34   S    
C25   H5    S    
C13   C20   A    
C33   H27   S    
C26   O15   S    
C35   H29   S    
C34   S2    S    
O7    S3    D    
C5    C38   A    
O6    S2    S    
C31   H20   S    
C4    O34   A    
C2    C6    A    
C34   N2    A    
C28   H13   S    
C10   C21   A    
C1    O1    A    
C34   C39   A    
C31   H21   S    
C36   C40   A    
C36   S3    S    
C24   C25   S    
O4    S2    D    
O8    S3    D    
O3    S1    S    
Cu1   N2    S    
C11   C21   A    
C11   O16   S    
C9    C14   A    
C29   C30   S    
C37   S4    S    
O30   S8    S    
C11   C16   A    
C9    C20   A    
O2    S1    D    
C17   C18   A    
C26   C27   S    
C17   S8    S    
C29   H16   S    
C25   H6    S    
C3    O35   A    
C32   H25   S    
C35   H30   S    
C40   H23   S    
O27   S7    S    
C22   C24   S    
C4    O33   A    
C5    C40   A    
Cu1   O32   S    
C13   O17   S    
H35   O30   S    
C2    H34   S    
O36   S1    D    
C32   H24   S    
Cu1   O23   S    
C29   O16   S    
C32   O17   S    
C31   H22   S    
Cu2   N1    S    
O9    S3    S    
C12   O23   A    
C27   H11   S    
Cu2   O33   S    
C23   C38   A    
Cu1   O1    S    
O22   S6    D    
H33   O27   S    
C13   C17   A    
C3    O32   A    
C24   H4    S    
C32   C33   S    
C38   H1    S    
C26   H9    S    
C2    C37   A    
C5    C6    S    
H39   O13   S    
C16   C19   A    
C12   C19   S    
C33   C35   S    
C10   O15   S    
O19   S5    D    
C16   S7    S    
C25   H7    S    
O28   S8    D    
H32   O24   S    
Cu2   O31   S    
C20   C21   S    
C30   H19   S    
C27   C28   S    
C6    C39   A    
C12   O12   A    
C1    O31   A    
O24   S6    S    
H38   O9    S    
C33   H26   S    
O10   S4    D    
