data_mof_unit_11221.cif
_audit_creation_date              2012-12-10T20:43:44-0500
_audit_creation_method            fapswitch 2.2
_symmetry_space_group_name_H-M    P1
_symmetry_Int_Tables_number       1
_space_group_crystal_system       triclinic
_cell_length_a                    18.925347
_cell_length_b                    18.837066
_cell_length_c                    18.862028
_cell_angle_alpha                 109.53957
_cell_angle_beta                  109.84282
_cell_angle_gamma                 109.591014
_cell_volume                      5140.24984458

loop_
_atom_site_label
_atom_site_type_symbol
_atom_type_description
_atom_site_fract_x
_atom_site_fract_y
_atom_site_fract_z
_atom_type_partial_charge
C1    C     C_R   0.382585 0.502650 0.380076 0.875693
C2    C     C_R   0.321993 0.491748 0.007583 0.210705
C3    C     C_R   0.120483 0.118175 0.498291 0.967970
C4    C     C_R   0.002681 0.380431 0.882012 1.024271
C5    C     C_R   0.119761 0.497612 0.117938 0.912420
C6    C     C_R   0.001657 0.620869 0.121148 0.892505
C7    C     C_R   0.880037 0.496043 0.876039 0.937275
C8    C     C_R   0.962395 0.688744 0.493143 0.239152
C9    C     C_R   0.998135 0.726576 0.451519 0.393610
C10   C     C_R   0.947772 0.694550 0.361286 -0.356302
C11   C     C_R   0.864897 0.616687 0.310744 0.314802
C12   C     C_R   0.835082 0.573463 0.351455 0.492386
C13   C     C_R   0.329945 0.569153 0.007188 0.298498
C14   C     C_R   0.847897 0.871778 0.825660 -0.043663
C15   C     C_R   0.881614 0.610126 0.442230 0.172831
C16   C     C_R   0.996994 0.673370 0.255189 -0.254113
C17   C     C_R   0.007513 0.689222 0.191321 -0.120184
C18   C     C_R   0.017800 0.767355 0.192827 0.172345
C19   C     C_R   0.012114 0.825849 0.255474 -0.162743
C20   C     C_R   0.995843 0.807665 0.315715 -0.061245
C21   C     C_R   0.986892 0.729816 0.315595 0.206001
C22   C     C_R   0.108045 0.826017 0.133280 0.488301
C23   C     C_R   0.116189 0.860266 0.078344 -0.488405
C24   C     C_R   0.081752 0.259203 0.754800 0.417517
C25   C     C_R   0.043901 0.853792 0.016303 0.422888
C26   C     C_3   0.623505 0.788683 0.081887 -0.303195
C27   C     C_3   0.589657 0.505358 0.200453 -0.191241
C28   C     C_3   0.595860 0.963087 0.663531 -0.252787
C29   C     C_3   0.256575 0.660574 0.472740 -0.277107
C30   C     C_3   0.472897 0.644876 0.291370 -0.278188
C31   C     C_3   0.233778 0.690613 0.288585 -0.326059
C32   C     C_3   0.124889 0.263676 0.264035 -0.103056
C33   C     C_3   0.311394 0.399881 0.709910 -0.278529
C34   C     C_3   0.031979 0.323296 0.417992 -0.266790
C35   C     C_R   0.819199 0.829845 0.577348 0.351818
C36   C     C_3   0.290520 0.964397 0.685361 -0.218133
C37   C     C_3   0.235764 0.856470 0.422182 -0.281965
C38   C     C_3   0.215729 0.015894 0.346961 -0.304679
C39   C     C_3   0.794269 0.606584 0.636996 -0.297318
C40   C     C_3   0.029993 0.703785 0.802507 -0.270394
C41   C     C_3   0.103584 0.618302 0.668228 -0.306795
C42   C     C_3   0.012571 0.794777 0.629919 -0.244396
C43   C     C_3   0.133879 0.746442 0.503022 -0.207997
C44   C     C_3   0.796637 0.620982 0.184756 -0.124555
C45   C     C_3   0.778434 0.426919 0.278206 -0.195655
C46   C     C_R   0.000426 0.186517 0.686555 -0.247810
C47   C     C_3   0.247576 0.842952 0.184489 -0.314367
C48   C     C_3   0.090632 0.979788 0.013075 -0.339662
C49   C     C_3   0.841773 0.710829 0.869328 -0.289378
C50   C     C_3   0.841355 0.792586 0.074740 -0.272272
C51   C     C_3   0.401472 0.703903 0.128354 -0.196544
C52   C     C_3   0.215333 0.662946 0.951990 -0.134242
C53   C     C_3   0.164238 0.462951 0.744396 -0.239048
C54   C     C_3   0.272228 0.337274 0.023695 -0.084504
C55   C     C_3   0.794994 0.184168 0.741750 -0.219547
C56   C     C_R   0.921967 0.182287 0.677729 -0.146220
C57   C     C_R   0.924221 0.246398 0.743597 0.444831
C58   C     C_R   0.004955 0.316479 0.815352 -0.203742
C59   C     C_R   0.085209 0.326797 0.819956 0.077160
C60   C     C_R   0.798614 0.129873 0.533156 -0.161585
C61   C     C_R   0.784350 0.888792 0.835084 -0.110642
C62   C     C_R   0.717623 0.064328 0.457624 0.415355
C63   C     C_R   0.675840 0.982596 0.449113 -0.167203
C64   C     C_R   0.713418 0.965766 0.515019 0.394540
C65   C     C_R   0.794578 0.031487 0.589799 -0.298463
C66   C     C_R   0.810466 0.812175 0.495538 -0.139286
C67   C     C_R   0.837084 0.113145 0.598682 0.121677
C68   C     C_R   0.733919 0.739230 0.417116 0.018680
C69   C     C_R   0.678545 0.675707 0.424366 -0.135553
C70   C     C_R   0.688428 0.689756 0.505129 -0.147074
C71   C     C_R   0.755296 0.770274 0.582619 -0.122383
C72   C     C_R   0.961148 0.807323 0.003630 0.391773
C73   C     C_R   0.687554 0.798638 0.320928 -0.201151
C74   C     C_R   0.651788 0.793723 0.240528 -0.317790
C75   C     C_R   0.625051 0.719494 0.163889 0.624378
C76   C     C_R   0.622799 0.621029 0.503520 0.862639
C77   C     C_R   0.628667 0.648763 0.169955 -0.373579
C78   C     C_R   0.664979 0.653338 0.251632 0.399150
C79   C     C_R   0.701056 0.732277 0.329181 0.008170
C80   C     C_R   0.436653 0.787236 0.539470 -0.411658
C81   C     C_R   0.385173 0.698866 0.473410 0.486375
C82   C     C_R   0.392214 0.670633 0.397912 -0.127892
C83   C     C_R   0.952434 0.777672 0.061238 0.292110
C84   C     C_R   0.448922 0.733760 0.388250 0.492787
C85   C     C_R   0.489906 0.822337 0.449606 -0.219650
C86   C     C_R   0.488117 0.849621 0.527053 0.445183
C87   C     C_R   0.259800 0.577687 0.251259 0.487595
C88   C     C_R   0.615841 0.496553 0.620649 0.956263
C89   C     C_R   0.185851 0.496465 0.183545 -0.251724
C90   C     C_R   0.176649 0.417643 0.181362 0.040775
C91   C     C_R   0.246939 0.423035 0.243490 -0.211566
C92   C     C_R   0.317215 0.503673 0.314196 -0.135493
C93   C     C_R   0.322970 0.582394 0.320639 0.002456
C94   C     C_R   0.025884 0.787523 0.125778 -0.156390
C95   C     C_R   0.055722 0.282000 0.151627 0.491497
C96   C     C_R   0.977296 0.201176 0.094760 0.310963
C97   C     C_R   0.944163 0.162283 0.004553 -0.440699
C98   C     C_R   0.987160 0.202827 0.970230 0.467110
C99   C     C_R   0.061643 0.287591 0.026037 0.294119
C100  C     C_R   0.377649 0.380165 0.497966 0.935662
C101  C     C_R   0.095717 0.329080 0.117996 -0.203020
C102  C     C_R   0.311949 0.549019 0.667700 0.329033
C103  C     C_R   0.304275 0.467054 0.629648 0.514237
C104  C     C_R   0.243456 0.405547 0.540113 -0.220530
C105  C     C_R   0.261837 0.564945 0.942112 0.320118
C106  C     C_R   0.178869 0.420143 0.493898 0.392089
C107  C     C_R   0.186918 0.503360 0.531958 0.374422
C108  C     C_R   0.254214 0.567220 0.617680 -0.420473
C109  C     C_R   0.174736 0.249863 0.491510 -0.268407
C110  C     C_R   0.187566 0.183254 0.497557 -0.130794
C111  C     C_R   0.267046 0.185819 0.512204 0.014637
C112  C     C_R   0.707923 0.861043 0.761188 -0.179389
C113  C     C_R   0.326902 0.248211 0.506257 0.356866
C114  C     C_R   0.312916 0.314903 0.500478 -0.118093
C115  C     C_R   0.240790 0.320849 0.502563 0.057304
C116  C     C_R   0.187008 0.483506 0.876698 0.329728
C117  C     C_R   0.357879 0.165879 0.625379 -0.391805
C118  C     C_R   0.375000 0.112610 0.657515 0.353365
C119  C     C_R   0.321477 0.021419 0.604065 0.393923
C120  C     C_R   0.258207 0.984429 0.516251 0.347098
C121  C     C_R   0.245124 0.037954 0.482788 0.402535
C122  C     C_R   0.291079 0.128667 0.539603 -0.121437
C123  C     C_R   0.561590 0.592676 0.849946 -0.198668
C124  C     C_R   0.696154 0.818253 0.678117 -0.110948
C125  C     C_R   0.609822 0.579912 0.810159 -0.167589
C126  C     C_R   0.611356 0.501753 0.781864 0.079968
C127  C     C_R   0.170973 0.409869 0.886620 -0.226132
C128  C     C_R   0.564235 0.436850 0.795013 -0.226073
C129  C     C_R   0.518542 0.450189 0.838142 0.430446
C130  C     C_R   0.516805 0.528987 0.865941 0.464740
C131  C     C_R   0.743805 0.493532 0.819380 -0.262647
C132  C     C_R   0.813698 0.495413 0.809223 -0.162447
C133  C     C_R   0.820002 0.500205 0.738519 -0.032224
C134  C     C_R   0.757723 0.508471 0.681486 0.484197
C135  C     C_R   0.684533 0.500987 0.689024 -0.226925
C136  C     C_R   0.758160 0.797372 0.667736 0.105875
C137  C     C_R   0.678705 0.496707 0.760435 -0.037657
C138  C     C_R   0.240180 0.412031 0.950053 0.383895
C139  C     C_R   0.961599 0.552076 0.741135 0.456702
C140  C     C_R   0.008555 0.537686 0.698336 0.505811
C141  C     C_R   0.970693 0.455230 0.624827 -0.368199
C142  C     C_R   0.891597 0.386571 0.598064 -0.182431
C143  C     C_R   0.846842 0.397803 0.642125 0.479342
C144  C     C_R   0.880248 0.481917 0.712255 -0.136798
C145  C     C_R   0.994329 0.874191 0.380279 0.905024
C146  C     C_R   0.879086 0.876077 0.495414 0.907996
C147  C     C_R   0.998962 0.118905 0.620117 1.012967
C148  C     C_R   0.833510 0.823025 0.742649 -0.193729
H1    H     H_    0.795251 0.925210 0.899637 0.123856
H2    H     H_    0.118640 0.252579 0.491860 0.172512
H3    H     H_    0.159081 0.011027 0.065869 0.165151
H4    H     H_    0.051641 0.997391 0.040952 0.161138
H5    H     H_    0.091797 0.006704 0.969128 0.198853
H6    H     H_    0.810037 0.665714 0.888477 0.216302
H7    H     H_    0.882723 0.691627 0.846052 0.189358
H8    H     H_    0.789509 0.704748 0.813869 0.179238
H9    H     H_    0.868196 0.932685 0.689602 0.342187
H10   H     H_    0.805443 0.796225 0.017001 0.208274
H11   H     H_    0.894126 0.859294 0.130347 0.138270
H12   H     H_    0.794637 0.766581 0.094969 0.178050
H13   H     H_    0.394817 0.236242 0.667751 0.221568
H14   H     H_    0.358584 0.669609 0.148550 0.195304
H15   H     H_    0.378139 0.743200 0.105647 0.174018
H16   H     H_    0.467247 0.750331 0.187222 0.205393
H17   H     H_    0.217128 0.665778 0.012560 0.091561
H18   H     H_    0.147763 0.617807 0.895686 0.238602
H19   H     H_    0.234336 0.729117 0.960853 0.149422
H20   H     H_    0.157381 0.397326 0.718888 0.121281
H21   H     H_    0.233073 0.515023 0.776023 0.201201
H22   H     H_    0.126914 0.466125 0.687542 0.186113
H23   H     H_    0.232129 0.276371 0.020323 0.151149
H24   H     H_    0.561781 0.653723 0.871150 0.157435
H25   H     H_    0.283336 0.392550 0.080879 0.132660
H26   H     H_    0.334768 0.340479 0.033774 0.189433
H27   H     H_    0.445068 0.551115 0.096702 0.377894
H28   H     H_    0.205624 0.323109 0.790164 0.335413
H29   H     H_    0.774453 0.214608 0.786149 0.187690
H30   H     H_    0.826281 0.151599 0.769032 0.176655
H31   H     H_    0.735271 0.133852 0.677340 0.184536
H32   H     H_    0.715732 0.138673 0.407272 0.339149
H33   H     H_    0.701083 0.885737 0.558801 0.326211
H34   H     H_    0.649283 0.633032 0.805473 0.165502
H35   H     H_    0.884267 0.811684 0.736835 0.153003
H36   H     H_    0.567241 0.377371 0.776151 0.175486
H37   H     H_    0.741623 0.492851 0.875955 0.190425
H38   H     H_    0.002816 0.442665 0.588468 0.163133
H39   H     H_    0.864492 0.323906 0.541793 0.162646
H40   H     H_    0.909235 0.898028 0.882761 0.213018
H41   H     H_    0.603679 0.590179 0.110143 0.190266
H42   H     H_    0.988940 0.612812 0.253282 0.171362
H43   H     H_    0.018799 0.885631 0.256226 0.158079
H44   H     H_    0.178387 0.894071 0.084080 0.188476
H45   H     H_    0.832227 0.193323 0.540762 0.138274
H46   H     H_    0.621727 0.617523 0.365921 0.166212
H47   H     H_    0.614252 0.931517 0.390238 0.165482
H48   H     H_    0.824452 0.019670 0.641298 0.158036
H49   H     H_    0.703673 0.854584 0.377238 0.228408
H50   H     H_    0.643735 0.847427 0.238858 0.159175
H51   H     H_    0.695677 0.828820 0.125101 0.130413
H52   H     H_    0.430079 0.807944 0.596632 0.194572
H53   H     H_    0.591904 0.825947 0.100573 0.188903
H54   H     H_    0.608840 0.773729 0.014791 0.177811
H55   H     H_    0.579465 0.475202 0.133590 0.180317
H56   H     H_    0.534285 0.514650 0.199465 0.129328
H57   H     H_    0.590134 0.458567 0.223670 0.214763
H58   H     H_    0.645667 0.949138 0.654144 0.148577
H59   H     H_    0.572332 0.931501 0.697529 0.152607
H60   H     H_    0.628143 0.034635 0.706843 0.184294
H61   H     H_    0.264194 0.717441 0.463380 0.101229
H62   H     H_    0.253395 0.674891 0.533154 0.206268
H63   H     H_    0.523083 0.870881 0.436541 0.205337
H64   H     H_    0.193714 0.603190 0.415999 0.203307
H65   H     H_    0.502282 0.635178 0.346867 0.127573
H66   H     H_    0.519178 0.659681 0.267899 0.191641
H67   H     H_    0.412594 0.583197 0.236231 0.175660
H68   H     H_    0.285021 0.741927 0.356761 0.153186
H69   H     H_    0.177701 0.643343 0.286978 0.119995
H70   H     H_    0.208860 0.722286 0.254740 0.231005
H71   H     H_    0.141801 0.228077 0.218086 0.055263
H72   H     H_    0.076306 0.216092 0.269467 0.222903
H73   H     H_    0.185511 0.306559 0.328873 0.168357
H74   H     H_    0.244968 0.363592 0.239280 0.156872
H75   H     H_    0.881996 0.104979 0.081229 0.327273
H76   H     H_    0.995270 0.187441 0.866195 0.375003
H77   H     H_    0.150745 0.383919 0.032860 0.320860
H78   H     H_    0.371566 0.663072 0.771243 0.338471
H79   H     H_    0.240548 0.354689 0.661999 0.125725
H80   H     H_    0.320063 0.445905 0.771436 0.200942
H81   H     H_    0.338137 0.358707 0.723020 0.221301
H82   H     H_    0.996763 0.357272 0.401430 0.184429
H83   H     H_    0.044102 0.330787 0.482957 0.106357
H84   H     H_    0.988042 0.252680 0.368811 0.199320
H85   H     H_    0.659437 0.875819 0.768491 0.124371
H86   H     H_    0.098961 0.482452 0.424592 0.368885
H87   H     H_    0.396628 0.191977 0.498888 0.338403
H88   H     H_    0.472214 0.212184 0.769946 0.360046
H89   H     H_    0.220862 0.944266 0.646586 0.171903
H90   H     H_    0.324862 0.028170 0.746469 0.191384
H91   H     H_    0.292114 0.914970 0.704350 0.166371
H92   H     H_    0.244839 0.879896 0.377450 0.197046
H93   H     H_    0.187878 0.785690 0.381690 0.174692
H94   H     H_    0.298004 0.866213 0.468869 0.172316
H95   H     H_    0.163487 0.975484 0.277522 0.199146
H96   H     H_    0.885587 0.098645 0.960434 0.189972
H97   H     H_    0.267511 0.998606 0.354097 0.177278
H98   H     H_    0.241345 0.084396 0.361884 0.156960
H99   H     H_    0.470675 0.596639 0.916024 0.393337
H100  H     H_    0.448753 0.403120 0.884398 0.382443
H101  H     H_    0.862159 0.650060 0.692158 0.147276
H102  H     H_    0.752365 0.629748 0.653925 0.131595
H103  H     H_    0.791413 0.613089 0.580105 0.228599
H104  H     H_    0.004958 0.686837 0.733055 0.153145
H105  H     H_    0.102098 0.735884 0.838279 0.214892
H106  H     H_    0.012952 0.752184 0.831878 0.210772
H107  H     H_    0.260182 0.630768 0.646158 0.180744
H108  H     H_    0.046174 0.616507 0.623056 0.205472
H109  H     H_    0.116293 0.570059 0.630600 0.202076
H110  H     H_    0.160911 0.684137 0.700470 0.195979
H111  H     H_    0.749726 0.337935 0.654992 0.349343
H112  H     H_    0.891421 0.592118 0.540416 0.364175
H113  H     H_    0.046420 0.814458 0.699911 0.164417
H114  H     H_    0.945077 0.781376 0.610918 0.175607
H115  H     H_    0.049061 0.850206 0.623727 0.215776
H116  H     H_    0.114888 0.697507 0.436872 0.124570
H117  H     H_    0.127419 0.714693 0.542437 0.181330
H118  H     H_    0.639898 0.803795 0.622121 0.143889
H119  H     H_    0.203736 0.795316 0.536386 0.214261
H120  H     H_    0.806377 0.682361 0.233151 0.120215
H121  H     H_    0.727342 0.579435 0.132423 0.181219
H122  H     H_    0.833640 0.637096 0.152406 0.178270
H123  H     H_    0.820016 0.427577 0.336937 0.168932
H124  H     H_    0.810508 0.431552 0.238893 0.162085
H125  H     H_    0.716797 0.363054 0.237269 0.175988
H126  H     H_    0.286829 0.910387 0.199213 0.161814
H127  H     H_    0.224230 0.793531 0.116814 0.159997
H128  H     H_    0.291520 0.831456 0.229740 0.196353
O1    O     O_R   0.408360 0.551710 0.460090 -0.575143
O2    O     O_R   0.948290 0.356630 0.908390 -0.595119
O3    O     O_R   0.143340 0.551690 0.091580 -0.605276
O4    O     O_R   0.408400 0.448280 0.356670 -0.660627
O5    O     O_R   0.039900 0.448270 0.091610 -0.623241
O6    O     O_R   0.051710 0.643320 0.091560 -0.606126
O7    O     O_R   0.948270 0.539900 0.091590 -0.614411
O8    O     O_R   0.960100 0.551680 0.908340 -0.589042
O9    O     O_R   0.856660 0.448270 0.908370 -0.624421
O10   O     O_R   0.591600 0.643340 0.551710 -0.639186
O11   O     O_R   0.591630 0.539900 0.448290 -0.600785
O12   O     O_R   0.948280 0.908380 0.356650 -0.654895
O13   O     O_R   0.591600 0.551720 0.643330 -0.650943
O14   O     O_R   0.591640 0.448290 0.539910 -0.544064
O15   O     O_R   0.408370 0.460100 0.551710 -0.603091
O16   O     O_R   0.408400 0.356660 0.448290 -0.596478
O17   O     O_R   0.051730 0.908360 0.460060 -0.542059
O18   O     O_3   0.588392 0.709162 0.080940 -0.561235
O19   O     O_3   0.670853 0.583914 0.257811 -0.580009
O20   O     O_3   0.526566 0.938040 0.583508 -0.570117
O21   O     O_3   0.323260 0.640408 0.479547 -0.562317
O22   O     O_3   0.454907 0.713579 0.313450 -0.593328
O23   O     O_R   0.960110 0.908350 0.551690 -0.607997
O24   O     O_3   0.271724 0.652732 0.247533 -0.584438
O25   O     O_3   0.093898 0.316179 0.241105 -0.548472
O26   O     O_3   0.935436 0.161137 0.129472 -0.751793
O27   O     O_3   0.954380 0.156669 0.881392 -0.782562
O28   O     O_3   0.099449 0.325842 0.988121 -0.792799
O29   O     O_3   0.375502 0.609317 0.754000 -0.746661
O30   O     O_3   0.357317 0.446790 0.680127 -0.566398
O31   O     O_3   0.108361 0.352801 0.412683 -0.580656
O32   O     O_3   0.129581 0.523985 0.488085 -0.816888
O33   O     O_3   0.402689 0.249924 0.512516 -0.756799
O34   O     O_R   0.856660 0.908370 0.448270 -0.645043
O35   O     O_3   0.441034 0.147563 0.741322 -0.716638
O36   O     O_3   0.332373 0.967526 0.636258 -0.570501
O37   O     O_3   0.200871 0.895921 0.466089 -0.517214
O38   O     O_3   0.179143 0.999877 0.397807 -0.596767
O39   O     O_3   0.471794 0.542424 0.908488 -0.763679
O40   O     O_3   0.477849 0.385311 0.852945 -0.793920
O41   O     O_3   0.766076 0.518591 0.614675 -0.566994
O42   O     O_3   0.993746 0.631988 0.813332 -0.614876
O43   O     O_3   0.093047 0.602868 0.733147 -0.604479
O44   O     O_3   0.768522 0.326094 0.611479 -0.722332
O45   O     O_R   0.051720 0.091580 0.643310 -0.553172
O46   O     O_3   0.848317 0.564139 0.477802 -0.707562
O47   O     O_3   0.012837 0.719812 0.581260 -0.646189
O48   O     O_3   0.085297 0.789272 0.497719 -0.529535
O49   O     O_3   0.819612 0.571234 0.219796 -0.568972
O50   O     O_3   0.758393 0.493853 0.301335 -0.513924
O51   O     O_3   0.178226 0.834956 0.200083 -0.611810
O52   O     O_3   0.052775 0.888450 0.963769 -0.598984
O53   O     O_3   0.890101 0.797506 0.939012 -0.620822
O54   O     O_3   0.888100 0.909156 0.650013 -0.773894
O55   O     O_3   0.871888 0.734333 0.052671 -0.607506
O56   O     O_R   0.948270 0.091600 0.539890 -0.649217
O57   O     O_3   0.408761 0.646835 0.063900 -0.551871
O58   O     O_3   0.274145 0.639095 0.936382 -0.564898
O59   O     O_3   0.130540 0.475270 0.800962 -0.559635
O60   O     O_3   0.227673 0.331962 0.943175 -0.541112
O61   O     O_3   0.393469 0.491637 0.060409 -0.786950
O62   O     O_3   0.155210 0.263080 0.751844 -0.746324
O63   O     O_3   0.848850 0.249196 0.732381 -0.594371
O64   O     O_3   0.678118 0.077894 0.391178 -0.762265
O65   O     O_3   0.670729 0.884013 0.503472 -0.795077
O66   O     O_R   0.143340 0.091590 0.551680 -0.618371
O67   O     O_R   0.039890 0.091610 0.448270 -0.634967
O68   O     O_R   0.051730 0.460050 0.908360 -0.647933
Zn1   Zn    Zn3+2 0.499980 0.569060 0.569060 1.006824
Zn2   Zn    Zn3+2 0.500020 0.430940 0.430940 1.017467
Zn3   Zn    Zn3+2 0.069070 0.999960 0.569030 1.023203
Zn4   Zn    Zn3+2 0.930930 0.999990 0.430930 0.938157
Zn5   Zn    Zn3+2 0.069070 0.569030 0.999960 0.961371
Zn6   Zn    Zn3+2 0.930930 0.430930 0.000000 0.986567

loop_
_geom_bond_atom_site_label_1
_geom_bond_atom_site_label_2
_ccdc_geom_bond_type
C48   H5    S    
C51   O57   S    
C36   O36   S    
C4    O2    A    
C105  C116  A    
C19   C20   A    
C5    O3    A    
C114  C115  A    
C44   O49   S    
C41   H108  S    
C88   O14   A    
C112  C124  A    
O66   Zn3   S    
O10   Zn1   S    
C43   H116  S    
C106  C107  A    
C146  O34   A    
C112  H85   S    
C28   H58   S    
C56   C57   A    
C60   C62   A    
C62   O64   S    
C110  C111  A    
C23   H44   S    
C80   C86   A    
C29   O21   S    
C30   H67   S    
C11   O49   S    
C76   O11   A    
C4    O68   A    
C40   H106  S    
C35   C71   A    
C105  O58   S    
C118  O35   S    
C6    O6    A    
C10   C21   S    
H99   O39   S    
O17   Zn3   S    
C2    C138  A    
C29   H62   S    
C140  C141  A    
C35   C66   A    
C50   H12   S    
C38   H97   S    
C113  O33   S    
O8    Zn5   S    
C27   H57   S    
C1    O1    A    
C51   H16   S    
C111  C113  A    
C7    C132  S    
C53   H22   S    
C8    O47   S    
C53   O59   S    
C82   C84   A    
C119  O36   S    
C87   C89   A    
C108  H107  S    
C28   H60   S    
C55   H30   S    
C71   C136  S    
C29   H64   S    
C129  O40   S    
C36   H89   S    
C135  C137  A    
C102  O29   S    
C24   O62   S    
O68   Zn5   S    
H9    O54   S    
C125  H34   S    
C38   O38   S    
C49   H7    S    
C30   O22   S    
C88   C135  S    
C27   O19   S    
C42   H115  S    
C33   H79   S    
C139  C140  A    
C147  O45   A    
C107  O32   S    
C24   C46   A    
C54   H26   S    
C100  O16   A    
C120  O37   S    
C30   H65   S    
C78   O19   S    
C54   O60   S    
C69   C70   A    
C66   C146  S    
C3    O67   A    
C20   C21   A    
C98   C99   A    
C48   H3    S    
C4    C58   S    
C22   C23   A    
O7    Zn6   S    
C61   H1    S    
C5    C89   S    
C143  C144  A    
C19   H43   S    
C16   C21   A    
H76   O27   S    
C34   H83   S    
C128  C129  A    
C97   C98   A    
C90   C101  S    
C25   O52   S    
C85   C86   A    
C50   H10   S    
O34   Zn4   S    
C142  H39   S    
C27   H55   S    
C83   O55   S    
C75   O18   S    
C81   O21   S    
H27   O61   S    
C3    C110  S    
C59   C127  S    
C51   H14   S    
C145  O12   A    
C69   H46   S    
C12   O50   S    
C74   H50   S    
C60   C67   A    
H33   O65   S    
C107  C108  A    
C9    C10   A    
C123  H24   S    
C65   H48   S    
C36   H91   S    
C45   O50   S    
C9    O48   S    
C111  C122  S    
C22   C94   A    
C76   O10   A    
C96   O26   S    
C42   H113  S    
C33   H81   S    
C85   H63   S    
C134  O41   S    
H86   O32   S    
C147  O56   A    
C60   H45   S    
C73   C79   A    
C37   H93   S    
C26   H53   S    
C100  C114  S    
C91   C92   A    
C47   H128  S    
C68   C69   A    
C121  O38   S    
O23   Zn3   S    
C117  C122  A    
O14   Zn2   S    
C43   H119  S    
C52   H17   S    
C53   H20   S    
O11   Zn2   S    
C17   C18   A    
C95   O25   S    
C32   H72   S    
C91   H74   S    
C41   H109  S    
C75   C77   A    
C136  C148  A    
O56   Zn4   S    
C131  H37   S    
H75   O26   S    
C123  C130  A    
C116  O59   S    
C28   O20   S    
C40   O42   S    
C120  C121  A    
C129  C130  A    
O45   Zn3   S    
C6    C17   S    
C133  C144  S    
C126  C128  A    
C142  C143  A    
C55   H31   S    
C43   O48   S    
C29   H61   S    
C134  C135  A    
C77   H41   S    
C109  H2    S    
C117  C118  A    
C97   H96   S    
H112  O46   S    
C57   C58   A    
O12   Zn4   S    
C39   H102  S    
C24   C59   A    
C45   H125  S    
C87   C93   A    
C132  C133  A    
C102  C103  A    
C13   O57   S    
C10   C11   A    
C63   C64   A    
O5    Zn6   S    
C46   C56   A    
C26   O18   S    
C141  H38   S    
C33   O30   S    
C50   O55   S    
C61   C112  A    
C99   O28   S    
C95   C101  A    
C44   H121  S    
C45   H124  S    
C126  C137  S    
C55   H29   S    
C73   C74   A    
C6    O7    A    
C104  C106  A    
C32   H73   S    
C47   H126  S    
C77   C78   A    
C87   O24   S    
C43   H117  S    
C52   H19   S    
O9    Zn6   S    
C40   H104  S    
C123  C125  A    
C38   H98   S    
C22   O51   S    
C86   O20   S    
C18   C19   A    
H88   O35   S    
C16   C17   A    
C65   C67   A    
C116  C127  A    
C51   H15   S    
C70   C71   A    
C127  C138  A    
C53   H21   S    
O6    Zn5   S    
C82   C93   S    
O2    Zn6   S    
C36   H90   S    
C124  C136  A    
C88   O13   A    
C49   H6    S    
C84   C85   A    
C13   C105  A    
C2    O61   S    
C58   C59   A    
H111  O44   S    
C83   C94   A    
O3    Zn5   S    
C143  O44   S    
C62   C63   A    
C7    O9    A    
C30   H66   S    
C104  C115  S    
C14   H40   S    
C32   O25   S    
C46   C147  S    
C12   C15   A    
C103  O30   S    
C98   O27   S    
C34   O31   S    
C16   H42   S    
C40   H105  S    
O15   Zn1   S    
C8    C15   A    
C48   H4    S    
C133  C134  A    
C63   H47   S    
C131  C132  A    
C113  C114  A    
C140  O43   S    
C34   H84   S    
C37   H92   S    
O4    Zn2   S    
C119  C120  A    
C57   O63   S    
C50   H11   S    
C64   C65   A    
C109  C110  A    
C90   C91   A    
H100  O40   S    
C92   C93   A    
C47   H127  S    
C39   O41   S    
C72   C83   A    
C106  O31   S    
C39   H103  S    
C103  C104  A    
C28   H59   S    
C20   C145  S    
C89   C90   A    
C15   O46   S    
C7    O8    A    
C31   H69   S    
C66   C68   A    
C49   H8    S    
C95   C96   A    
C128  H36   S    
C42   H114  S    
C33   H80   S    
C81   C82   A    
C44   H120  S    
O1    Zn1   S    
C146  O23   A    
H78   O29   S    
C47   O51   S    
C131  C137  A    
C54   H25   S    
C26   H54   S    
H28   O62   S    
C100  O15   A    
C148  H35   S    
C42   O47   S    
C49   O53   S    
C41   O43   S    
C55   O63   S    
C80   H52   S    
C14   C148  A    
C64   O65   S    
C2    C13   A    
C118  C119  A    
C5    O5    A    
C52   H18   S    
C8    C9    A    
C73   H49   S    
C102  C108  A    
C139  O42   S    
H77   O28   S    
O67   Zn4   S    
C34   H82   S    
C84   O22   S    
C74   C75   A    
C27   H56   S    
C1    O4    A    
C31   O24   S    
H32   O64   S    
C78   C79   A    
C72   O53   S    
C31   H68   S    
C117  H13   S    
C14   C61   A    
C37   O37   S    
C38   H95   S    
C35   O54   S    
O13   Zn1   S    
C139  C144  A    
C39   H101  S    
C96   C97   A    
C121  C122  A    
C25   C72   A    
C26   H51   S    
H87   O33   S    
C70   C76   S    
C18   C94   S    
C44   H122  S    
O16   Zn2   S    
C45   H123  S    
C138  O60   S    
C130  O39   S    
C37   H94   S    
C99   C101  A    
C54   H23   S    
C80   C81   A    
C11   C12   A    
C1    C92   S    
C56   C67   S    
C31   H70   S    
C145  O17   A    
C141  C142  A    
C3    O66   A    
C125  C126  A    
C48   O52   S    
C52   O58   S    
C124  H118  S    
C23   C25   A    
C41   H110  S    
C32   H71   S    
C109  C115  A    
C68   C79   S    
