data_mof_unit_44756.cif
_audit_creation_date              2012-12-11T14:46:01-0500
_audit_creation_method            fapswitch 2.2
_symmetry_space_group_name_H-M    P1
_symmetry_Int_Tables_number       1
_space_group_crystal_system       triclinic
_cell_length_a                    10.936381
_cell_length_b                    10.953452
_cell_length_c                    18.861409
_cell_angle_alpha                 89.572686
_cell_angle_beta                  90.706849
_cell_angle_gamma                 119.832115
_cell_volume                      1959.87364813

loop_
_atom_site_label
_atom_site_type_symbol
_atom_type_description
_atom_site_fract_x
_atom_site_fract_y
_atom_site_fract_z
_atom_type_partial_charge
C1    C     C_R   0.872760 0.634082 0.606954 0.558979
C2    C     C_R   0.470820 0.746324 0.774910 -0.104133
C3    C     C_R   0.445409 0.722723 0.702259 0.068332
C4    C     C_R   0.305627 0.654004 0.678203 0.037439
C5    C     C_R   0.830175 0.148333 0.818130 -0.013985
C6    C     C_R   0.080588 0.215107 0.823597 -0.084996
C7    C     C_R   0.204692 0.242327 0.790272 0.066139
C8    C     C_R   0.203162 0.216705 0.718148 -0.059524
C9    C     C_R   0.078389 0.166585 0.678188 0.108583
C10   C     C_R   0.957336 0.159406 0.709540 0.020080
C11   C     C_R   0.955135 0.171981 0.784403 -0.028410
C12   C     C_R   0.270344 0.631149 0.603822 0.558608
C13   C     C_R   0.711656 0.100680 0.702489 -0.017613
C14   C     C_R   0.712744 0.129198 0.774978 0.007614
C15   C     C_R   0.586664 0.052283 0.662227 -0.031080
C16   C     C_R   0.474512 0.063390 0.687792 0.099643
C17   C     C_R   0.478865 0.106135 0.757307 -0.094787
C18   C     C_R   0.596655 0.140691 0.800241 -0.094615
C19   C     C_R   0.839287 0.141040 0.668579 -0.021386
C20   C     C_R   0.725077 0.547823 0.714882 -0.174457
C21   C     C_R   0.710729 0.551552 0.787886 -0.176704
C22   C     C_R   0.824747 0.647993 0.829530 0.042249
C23   C     C_R   0.861029 0.220647 0.601077 0.551899
C24   C     C_R   0.957853 0.733875 0.798271 0.121201
C25   C     C_R   0.968593 0.737995 0.725057 0.090948
C26   C     C_R   0.851866 0.644356 0.682625 0.027661
C27   C     C_R   0.408895 0.622664 0.296731 0.067173
C28   C     C_R   0.425184 0.629348 0.223820 -0.142166
C29   C     C_R   0.375938 0.701632 0.181067 -0.017479
C30   C     C_R   0.322993 0.781445 0.212268 0.109227
C31   C     C_R   0.309582 0.778919 0.285600 0.097331
C32   C     C_R   0.339490 0.687594 0.327597 0.026579
C33   C     C_R   0.718162 0.109960 0.292723 -0.165314
C34   C     C_R   0.865378 0.638142 0.397356 0.538742
C35   C     C_R   0.705268 0.089422 0.220731 -0.139700
C36   C     C_R   0.825166 0.131927 0.178873 0.000335
C37   C     C_R   0.957778 0.187024 0.209994 -0.124021
C38   C     C_R   0.973199 0.209904 0.283003 0.112512
C39   C     C_R   0.851450 0.175508 0.324240 0.065687
C40   C     C_R   0.852872 0.780433 0.297312 0.078710
C41   C     C_R   0.843132 0.792413 0.224749 -0.055343
C42   C     C_R   0.804479 0.676295 0.180420 0.008111
C43   C     C_R   0.764408 0.544287 0.208605 -0.167937
C44   C     C_R   0.775435 0.531318 0.281192 -0.159724
C45   C     C_R   0.273655 0.636991 0.397050 0.567394
C46   C     C_R   0.824215 0.650028 0.325588 0.021954
C47   C     C_R   0.804382 0.101439 0.893700 0.533022
C48   C     C_R   0.394955 0.701085 0.896824 0.537431
C49   C     C_R   0.799102 0.688839 0.898821 0.561930
C50   C     C_R   0.803472 0.099828 0.104261 0.542763
C51   C     C_R   0.403468 0.707456 0.105748 0.540340
C52   C     C_R   0.796442 0.697023 0.105571 0.536715
C53   C     C_R   0.863765 0.230800 0.395418 0.551195
C54   C     C_R   0.193467 0.591005 0.726176 -0.092927
C55   C     C_R   0.219300 0.605699 0.798782 0.050577
C56   C     C_R   0.358276 0.690514 0.822742 0.013340
Cr1   Cr    Cr6+3 0.791660 0.390250 0.499930 1.007455
Cr2   Cr    Cr6+3 0.098520 0.708290 0.500540 0.998302
Cr3   Cr    Cr6+3 0.109770 0.401430 0.499480 1.058982
Cr4   Cr    Cr6+3 0.874790 0.925890 0.000070 1.021808
Cr5   Cr    Cr6+3 0.574120 0.948670 0.999300 1.004298
Cr6   Cr    Cr6+3 0.551420 0.625320 0.000920 1.002136
H1    H     H_    0.581227 0.018173 0.607864 0.147102
H2    H     H_    0.392559 0.116027 0.777571 0.149125
H3    H     H_    0.477468 0.577680 0.200362 0.149134
H4    H     H_    0.752923 0.429878 0.302076 0.153807
H5    H     H_    0.578529 0.801959 0.794739 0.120318
H6    H     H_    0.086204 0.235815 0.879830 0.129220
H7    H     H_    0.598417 0.186761 0.850863 0.153528
O1    O     O_R   0.766500 0.250040 0.579790 -0.531042
O2    O     O_R   0.218690 0.701900 0.425960 -0.532511
O3    O     O_R   0.249490 0.516440 0.419420 -0.449506
O4    O     O_R   0.982880 0.281910 0.424890 -0.469874
O5    O     O_3   0.999980 0.499990 0.499980 -0.258310
O6    O     O_R   0.895110 0.806860 0.920430 -0.478025
O7    O     O_R   0.872260 0.046970 0.925000 -0.504467
O8    O     O_R   0.691430 0.085060 0.918550 -0.527993
O9    O     O_R   0.451490 0.822460 0.925250 -0.497257
O10   O     O_R   0.413330 0.603360 0.920440 -0.534675
O11   O     O_R   0.676110 0.626250 0.926750 -0.516258
O12   O     O_R   0.798570 0.516780 0.574780 -0.509685
O13   O     O_R   0.895350 0.809870 0.080950 -0.516018
O14   O     O_R   0.872490 0.049760 0.073800 -0.508976
O15   O     O_R   0.691680 0.088070 0.079070 -0.527012
O16   O     O_R   0.451720 0.825250 0.074050 -0.514883
O17   O     O_R   0.413580 0.606370 0.080960 -0.522044
O18   O     O_R   0.676340 0.629040 0.075550 -0.506839
O19   O     O_3   0.666780 0.833290 0.000090 -0.251796
O20   O     O_R   0.984000 0.732950 0.581090 -0.480057
O21   O     O_R   0.218600 0.700890 0.574760 -0.512377
O22   O     O_R   0.249390 0.515350 0.579940 -0.511822
O23   O     O_R   0.982790 0.280900 0.573700 -0.459575
O24   O     O_R   0.766600 0.251130 0.419260 -0.541084
O25   O     O_R   0.798660 0.517790 0.425980 -0.503197
O26   O     O_R   0.984100 0.734040 0.420570 -0.538781
H8    H     H_    0.085827 0.528852 0.706903 0.146283
N1    N     N_3   0.365570 0.049450 0.640350 -0.671991
H9    H     H_    0.328584 0.955596 0.612339 0.267027
H10   H     H_    0.411266 0.131053 0.603240 0.220135
H11   H     H_    0.635978 0.472613 0.683452 0.143997
H12   H     H_    0.608718 0.484656 0.811162 0.164506
N2    N     N_3   0.079547 0.827652 0.840503 -0.606954
H13   H     H_    0.106479 0.931640 0.829298 0.237451
H14   H     H_    0.165612 0.815419 0.828643 0.223804
N3    N     N_3   0.098931 0.839970 0.693948 -0.588971
H15   H     H_    0.179889 0.823343 0.711933 0.245984
H16   H     H_    0.120825 0.939994 0.709368 0.242692
N4    N     N_3   0.459462 0.547290 0.339477 -0.588532
H17   H     H_    0.498995 0.497202 0.307788 0.227280
H18   H     H_    0.543710 0.621395 0.370178 0.225810
N5    N     N_3   0.275517 0.860613 0.170702 -0.581121
H19   H     H_    0.205423 0.795281 0.131539 0.235923
H20   H     H_    0.361956 0.945317 0.146768 0.245120
N6    N     N_3   0.104560 0.532463 0.846897 -0.629901
H21   H     H_    0.102217 0.604998 0.881594 0.243495
H22   H     H_    0.125633 0.465813 0.877984 0.232504
N7    N     N_3   0.263053 0.868921 0.315014 -0.589429
H23   H     H_    0.157614 0.808212 0.328856 0.282005
H24   H     H_    0.326409 0.923278 0.358589 0.230506
H25   H     H_    0.624096 0.080567 0.323220 0.136748
H26   H     H_    0.600312 0.039618 0.197807 0.152650
H27   H     H_    0.048657 0.213505 0.177426 0.118200
N8    N     N_3   0.111923 0.272528 0.314295 -0.554067
H28   H     H_    0.118033 0.194450 0.343661 0.240756
H29   H     H_    0.189123 0.305262 0.275258 0.229020
N9    N     N_3   0.891205 0.901162 0.340737 -0.643628
H30   H     H_    0.991413 0.935945 0.362419 0.255266
H31   H     H_    0.818511 0.872341 0.381796 0.227336
H32   H     H_    0.866495 0.893135 0.202677 0.156423
H33   H     H_    0.730024 0.453531 0.174544 0.128720
N10   N     N_3   0.559272 0.763838 0.653383 -0.653129
H34   H     H_    0.656016 0.812454 0.680453 0.226541
H35   H     H_    0.549450 0.671952 0.631459 0.237250
N11   N     N_3   0.332759 0.293208 0.830063 -0.678179
H36   H     H_    0.356316 0.389503 0.852143 0.268903
H37   H     H_    0.315082 0.222932 0.871710 0.218017
H38   H     H_    0.298686 0.232259 0.693584 0.150976
N12   N     N_3   0.070713 0.111739 0.608164 -0.592211
H39   H     H_    0.999602 0.003571 0.609693 0.240987
H40   H     H_    0.168081 0.124317 0.593332 0.230502

loop_
_geom_bond_atom_site_label_1
_geom_bond_atom_site_label_2
_ccdc_geom_bond_type
C55   C56   A    
N9    H30   S    
C45   O2    A    
C41   C42   A    
C14   C18   A    
C12   O22   A    
C44   H4    S    
C35   C36   A    
Cr2   O26   S    
C51   O16   A    
N6    H21   S    
Cr4   O19   S    
C50   O15   A    
C7    C8    A    
C39   C53   S    
C40   C46   A    
N3    H16   S    
Cr2   O5    S    
C33   C39   A    
N3    H15   S    
C3    N10   S    
C48   O10   A    
C12   O21   A    
C28   C29   A    
C37   C38   A    
C47   O7    A    
C5    C11   A    
N7    H24   S    
C17   H2    S    
C38   C39   A    
Cr4   O14   S    
Cr2   O2    S    
N8    H29   S    
C1    O12   A    
C15   C16   A    
N4    H17   S    
C32   C45   S    
C48   O9    A    
C31   N7    S    
Cr4   O13   S    
N5    H19   S    
Cr5   O8    S    
C8    C9    A    
C1    O20   A    
C49   O6    A    
C34   C46   S    
Cr1   O1    S    
C4    C12   S    
C9    C10   A    
Cr3   O4    S    
C54   H8    S    
C38   N8    S    
Cr3   O3    S    
C21   H12   S    
C18   H7    S    
C6    H6    S    
Cr1   O24   S    
C21   C22   A    
C52   O13   A    
C45   O3    A    
C23   O1    A    
C51   O17   A    
N1    H10   S    
C44   C46   A    
C50   O14   A    
N1    H9    S    
C43   H33   S    
C13   C19   A    
C53   O24   A    
Cr6   O10   S    
N8    H28   S    
C24   C25   A    
C7    N11   S    
C2    H5    S    
C25   N3    S    
C6    C11   A    
C16   C17   A    
N11   H37   S    
C25   C26   A    
Cr6   O19   S    
Cr4   O7    S    
C8    H38   S    
Cr1   O5    S    
C19   C23   S    
C43   C44   A    
C29   C30   A    
Cr5   O19   S    
C5    C47   S    
C9    N12   S    
C31   C32   A    
C20   H11   S    
C35   H26   S    
Cr5   O9    S    
C40   N9    S    
C17   C18   A    
N5    H20   S    
Cr3   O22   S    
C34   O26   A    
N2    H14   S    
Cr2   O21   S    
Cr3   O5    S    
C5    C14   A    
C6    C7    A    
Cr5   O16   S    
C22   C49   S    
C40   C41   A    
Cr1   O25   S    
C13   C15   A    
C1    C26   S    
C22   C24   A    
C42   C43   A    
C47   O8    A    
C3    C4    A    
C36   C50   S    
Cr6   O17   S    
C29   C51   S    
C10   C19   A    
Cr6   O11   S    
C48   C56   S    
C54   C55   A    
C36   C37   A    
N9    H31   S    
C4    C54   A    
C27   C32   A    
C52   O18   A    
C53   O4    A    
C34   O25   A    
Cr1   O12   S    
N10   H35   S    
Cr5   O15   S    
N6    H22   S    
N11   H36   S    
N12   H40   S    
C55   N6    S    
Cr6   O18   S    
Cr4   O6    S    
C49   O11   A    
C30   N5    S    
C10   C11   A    
C2    C3    A    
C2    C56   A    
N7    H23   S    
C41   H32   S    
C30   C31   A    
C20   C26   A    
C27   N4    S    
C33   C35   A    
N4    H18   S    
C28   H3    S    
C24   N2    S    
Cr3   O23   S    
N2    H13   S    
C16   N1    S    
Cr2   O20   S    
N12   H39   S    
C37   H27   S    
C20   C21   A    
C33   H25   S    
C27   C28   A    
C15   H1    S    
C23   O23   A    
C13   C14   A    
N10   H34   S    
C42   C52   S    
