data_mof_unit_34152.cif
_audit_creation_date              2012-12-11T14:07:42-0500
_audit_creation_method            fapswitch 2.2
_symmetry_space_group_name_H-M    P1
_symmetry_Int_Tables_number       1
_space_group_crystal_system       triclinic
_cell_length_a                    19.771869
_cell_length_b                    17.005589
_cell_length_c                    15.42497
_cell_angle_alpha                 90.224117
_cell_angle_beta                  53.335898
_cell_angle_gamma                 90.369793
_cell_volume                      4160.16187804

loop_
_atom_site_label
_atom_site_type_symbol
_atom_type_description
_atom_site_fract_x
_atom_site_fract_y
_atom_site_fract_z
_atom_type_partial_charge
C1    C     C_R   0.341316 0.176141 0.047328 -0.104934
C2    C     C_R   0.651305 0.817405 0.070186 0.106171
C3    C     C_R   0.214887 0.643440 0.971332 0.096736
C4    C     C_R   0.147510 0.314652 0.076332 0.098443
C5    C     C_R   0.611538 0.815091 0.698263 0.103071
C6    C     C_R   0.691879 0.138185 0.679008 0.036501
C7    C     C_R   0.191522 0.361733 0.678193 0.015048
C8    C     C_R   0.113562 0.683829 0.696234 0.089128
C9    C     C_3   0.379753 0.229987 0.467139 -0.490061
C10   C     C_3   0.219303 0.868913 0.525139 -0.516764
C11   C     C_3   0.717834 0.631345 0.525690 -0.512377
C12   C     C_R   0.377046 0.801509 0.991842 -0.037091
C13   C     C_3   0.756473 0.306122 0.482386 -0.530389
C14   C     C_3   0.318522 0.270696 0.577520 0.646139
C15   C     C_3   0.163092 0.820835 0.628783 0.683412
C16   C     C_3   0.661567 0.678860 0.629833 0.672143
C17   C     C_3   0.704957 0.260419 0.587743 0.699285
C18   C     C_3   0.351324 0.326133 0.370071 -0.363811
C19   C     C_3   0.307013 0.749280 0.423090 -0.424495
C20   C     C_3   0.810505 0.750561 0.431419 -0.418220
C21   C     C_3   0.890051 0.254269 0.448885 -0.439551
C22   C     C_3   0.684529 0.723743 0.429267 -0.402822
C23   C     C_R   0.852337 0.685639 0.026548 -0.094454
C24   C     C_3   0.823289 0.181823 0.374888 -0.317181
C25   C     C_3   0.253761 0.209495 0.464034 -0.407993
C26   C     C_3   0.176599 0.781068 0.433807 -0.377115
C27   C     C_3   0.346637 0.237821 0.397919 0.265607
C28   C     C_3   0.253374 0.816073 0.424302 0.301546
C29   C     C_3   0.757450 0.686307 0.425717 0.306385
C30   C     C_3   0.841309 0.264265 0.399719 0.249064
C31   C     C_3   0.662240 0.766842 0.601633 0.152524
C32   C     C_3   0.750360 0.182502 0.577309 0.149723
C33   C     C_3   0.252237 0.318991 0.575976 0.160624
C34   C     C_R   0.840935 0.323787 0.048084 -0.119528
C35   C     C_3   0.162192 0.733244 0.599784 0.147190
C36   C     C_3   0.754308 0.801279 0.532064 0.023360
C37   C     C_3   0.839348 0.199987 0.550101 0.059650
C38   C     C_3   0.299874 0.375394 0.474983 -0.008425
C39   C     C_3   0.253976 0.699552 0.525756 0.029276
C40   C     C_R   0.350658 0.827298 0.220715 0.676474
C41   C     C_R   0.400769 0.199893 0.207031 0.651652
C42   C     C_R   0.898369 0.300589 0.207473 0.648833
C43   C     C_R   0.856118 0.677458 0.222373 0.659637
C44   C     C_3   0.627346 0.770797 0.534140 -0.455297
C45   C     C_R   0.634535 0.895661 0.103480 -0.115737
C46   C     C_3   0.766444 0.135531 0.479315 -0.528861
C47   C     C_3   0.197802 0.260958 0.563254 -0.401470
C48   C     C_3   0.123741 0.730078 0.536302 -0.457603
C49   C     C_2   0.296737 0.677167 0.934372 0.238739
C50   C     C_2   0.180879 0.254122 0.108594 0.276251
C51   C     C_2   0.679762 0.245904 0.111130 0.269381
C52   C     C_2   0.692771 0.759175 0.089732 0.266989
C53   C     C_2   0.714644 0.310183 0.047379 -0.214981
C54   C     C_2   0.738544 0.706805 0.009181 -0.231999
C55   C     C_2   0.313987 0.752165 0.897959 -0.197097
C56   C     C_R   0.631850 0.105875 0.107012 -0.108486
C57   C     C_2   0.216435 0.190258 0.043779 -0.208182
C58   C     C_R   0.368048 0.887707 0.893850 -0.154805
C59   C     C_R   0.329862 0.086988 0.951649 -0.112088
C60   C     C_R   0.830505 0.410700 0.950391 -0.143838
C61   C     C_R   0.839524 0.596007 0.933269 -0.143658
C62   C     C_R   0.408515 0.108822 0.302733 -0.268541
C63   C     C_R   0.359119 0.921904 0.314355 -0.252517
C64   C     C_R   0.861559 0.580339 0.315353 -0.241296
C65   C     C_R   0.906488 0.391895 0.303797 -0.259609
C66   C     C_R   0.288161 0.148660 0.024178 0.114430
C67   C     C_R   0.131119 0.393753 0.107569 -0.129641
C68   C     C_R   0.352124 0.810362 0.926436 0.111770
C69   C     C_R   0.802960 0.661197 0.997302 0.130740
C70   C     C_R   0.788096 0.350474 0.024793 0.128391
C71   C     C_R   0.309844 0.860068 0.323212 -0.117532
C72   C     C_R   0.393283 0.187497 0.300848 -0.083969
C73   C     C_R   0.887189 0.314267 0.303245 -0.079720
C74   C     C_R   0.815124 0.644107 0.324420 -0.119246
C75   C     C_R   0.620948 0.200490 0.014365 -0.164745
C76   C     C_R   0.621974 0.800484 0.011322 -0.172996
C77   C     C_R   0.162367 0.675354 0.949001 -0.151562
C78   C     C_R   0.172386 0.580312 0.043598 -0.122126
C79   C     C_R   0.121127 0.299553 0.013309 -0.147354
C80   C     C_R   0.601614 0.800974 0.792887 -0.119762
C81   C     C_R   0.650319 0.171394 0.781547 -0.089668
C82   C     C_R   0.150124 0.328880 0.780947 -0.090086
C83   C     C_R   0.101793 0.698942 0.792010 -0.117574
C84   C     C_R   0.642887 0.075854 0.686848 -0.046540
C85   C     C_R   0.593009 0.892780 0.696849 -0.183408
C86   C     C_R   0.094812 0.605980 0.695402 -0.165144
C87   C     C_R   0.141119 0.421864 0.685372 -0.144617
C88   C     C_3   0.794712 0.811684 0.591711 -1.017399
C89   C     C_R   0.647248 0.185248 0.077416 0.092802
C90   C     C_3   0.838843 0.234508 0.642846 -1.060190
C91   C     C_3   0.355299 0.437717 0.478120 -1.011668
C92   C     C_3   0.298726 0.691920 0.580105 -1.022275
C93   C     C_3   0.355283 0.628108 0.943897 -0.898057
C94   C     C_3   0.176094 0.267081 0.209018 -1.028971
C95   C     C_3   0.675340 0.232645 0.211138 -1.000404
C96   C     C_3   0.683108 0.760918 0.194490 -0.990214
F1    F     F_    0.580102 0.648741 0.690706 -0.714546
F2    F     F_    0.625389 0.245141 0.614669 -0.694364
F3    F     F_    0.280049 0.212857 0.656431 -0.725470
F4    F     F_    0.082007 0.851106 0.690940 -0.700240
F5    F     F_    0.333253 0.756604 0.197642 -0.771058
F6    F     F_    0.412040 0.270625 0.159821 -0.753768
F7    F     F_    0.910815 0.229475 0.160093 -0.752143
F8    F     F_    0.849046 0.753068 0.201912 -0.768862
H1    H     H_    0.334888 0.228009 0.091652 0.183116
H2    H     H_    0.188491 0.827153 0.676094 -0.002903
H3    H     H_    0.686237 0.671781 0.677791 -0.004708
H4    H     H_    0.696288 0.298057 0.652716 0.008921
H5    H     H_    0.418363 0.345732 0.315736 0.206928
H6    H     H_    0.362810 0.775403 0.413995 0.180918
H7    H     H_    0.861204 0.721739 0.430988 0.178700
H8    H     H_    0.901130 0.313031 0.470419 0.178752
H9    H     H_    0.708955 0.764253 0.360305 0.229822
H10   H     H_    0.883394 0.149496 0.318860 0.208539
H11   H     H_    0.230404 0.211220 0.413806 0.156153
H12   H     H_    0.385290 0.747138 0.019331 0.181429
H13   H     H_    0.196522 0.744140 0.362869 0.224327
H14   H     H_    0.647149 0.677168 0.424318 0.176438
H15   H     H_    0.790504 0.186567 0.336388 0.205215
H16   H     H_    0.248666 0.147439 0.490306 0.197123
H17   H     H_    0.137180 0.829371 0.437654 0.175284
H18   H     H_    0.561844 0.747134 0.581452 0.227129
H19   H     H_    0.706153 0.124334 0.490438 0.222887
H20   H     H_    0.158673 0.222574 0.635733 0.215783
H21   H     H_    0.057348 0.750910 0.587883 0.224874
H22   H     H_    0.625119 0.832308 0.512046 0.154091
H23   H     H_    0.853952 0.743407 0.053684 0.206092
H24   H     H_    0.795781 0.077657 0.471176 0.167663
H25   H     H_    0.153466 0.294013 0.554974 0.154252
H26   H     H_    0.122878 0.668864 0.511480 0.152163
H27   H     H_    0.323306 0.335365 0.326297 0.201100
H28   H     H_    0.332283 0.709947 0.352260 0.201041
H29   H     H_    0.842828 0.789654 0.359463 0.211817
H30   H     H_    0.953080 0.228211 0.387793 0.163586
H31   H     H_    0.752431 0.861199 0.504416 0.160570
H32   H     H_    0.873533 0.143083 0.528607 0.162917
H33   H     H_    0.253357 0.408140 0.471108 0.148022
H34   H     H_    0.833925 0.272491 0.093234 0.182685
H35   H     H_    0.250631 0.638841 0.500842 0.161213
H36   H     H_    0.704960 0.323080 0.986870 0.103307
H37   H     H_    0.738661 0.704780 0.938702 0.111007
H38   H     H_    0.280600 0.779601 0.870669 0.100586
H39   H     H_    0.207937 0.178131 0.981867 0.121106
H40   H     H_    0.364616 0.913892 0.832771 0.106389
H41   H     H_    0.309132 0.053221 0.911830 0.112165
H42   H     H_    0.810823 0.440363 0.907286 0.098507
H43   H     H_    0.824387 0.568288 0.883699 0.095369
H44   H     H_    0.413629 0.078930 0.360179 0.137109
H45   H     H_    0.386377 0.167603 0.481492 0.202349
H46   H     H_    0.349969 0.959426 0.376905 0.148930
H47   H     H_    0.852756 0.543156 0.377726 0.142544
H48   H     H_    0.911781 0.420911 0.362012 0.128528
H49   H     H_    0.609735 0.257062 0.993576 0.131259
H50   H     H_    0.613363 0.743493 0.987595 0.107085
H51   H     H_    0.174776 0.722955 0.895424 0.097434
H52   H     H_    0.110392 0.242886 0.991432 0.133865
H53   H     H_    0.605371 0.745820 0.824256 0.109718
H54   H     H_    0.667327 0.223634 0.804593 0.099438
H55   H     H_    0.168237 0.278826 0.805212 0.178937
H56   H     H_    0.184010 0.919696 0.525248 0.208345
H57   H     H_    0.102889 0.755136 0.824002 0.120978
H58   H     H_    0.654243 0.037659 0.623606 0.084068
H59   H     H_    0.588379 0.921864 0.638489 0.097012
H60   H     H_    0.090681 0.576302 0.636670 0.088901
H61   H     H_    0.150339 0.457194 0.621377 0.099189
H62   H     H_    0.641160 0.923545 0.161199 0.107029
H63   H     H_    0.635203 0.078458 0.167489 0.108623
H64   H     H_    0.133591 0.420593 0.169308 0.107661
H65   H     H_    0.195760 0.544298 0.077889 0.114989
H66   H     H_    0.443501 0.257227 0.423683 0.132496
H67   H     H_    0.681132 0.583287 0.521993 0.212283
H68   H     H_    0.271952 0.892550 0.524902 0.123713
H69   H     H_    0.767267 0.603842 0.528567 0.115814
H70   H     H_    0.766827 0.366710 0.500113 0.136814
H71   H     H_    0.795133 0.755608 0.627845 0.248688
H72   H     H_    0.860919 0.832424 0.534127 0.264939
H73   H     H_    0.761282 0.857163 0.655659 0.268475
H74   H     H_    0.802264 0.289853 0.674098 0.248411
H75   H     H_    0.813036 0.191191 0.709329 0.264913
H76   H     H_    0.904496 0.247714 0.613393 0.270290
H77   H     H_    0.410120 0.410456 0.468854 0.255692
H78   H     H_    0.720375 0.311884 0.448394 0.207984
H79   H     H_    0.379670 0.480213 0.410899 0.267341
H80   H     H_    0.318171 0.471214 0.555078 0.264153
H81   H     H_    0.303960 0.749556 0.609617 0.247729
H82   H     H_    0.265288 0.649582 0.648247 0.267123
H83   H     H_    0.363395 0.668646 0.520889 0.268533
H84   H     H_    0.360440 0.568518 0.910802 0.253160
H85   H     H_    0.420062 0.653158 0.895609 0.281548
H86   H     H_    0.329981 0.622121 0.030034 0.241807
H87   H     H_    0.110807 0.284059 0.276757 0.243664
H88   H     H_    0.190657 0.212780 0.234545 0.252521
H89   H     H_    0.354162 0.309671 0.595287 0.041902
H90   H     H_    0.219519 0.315342 0.195477 0.258308
H91   H     H_    0.610032 0.215244 0.278920 0.247959
H92   H     H_    0.718641 0.184601 0.196978 0.254870
H93   H     H_    0.690312 0.286962 0.236885 0.253105
H94   H     H_    0.615892 0.770775 0.262752 0.238137
H95   H     H_    0.701369 0.704373 0.210624 0.259445
H96   H     H_    0.721209 0.809865 0.192945 0.274078
N1    N     N_R   0.408680 0.130160 0.995800 -0.046149
N2    N     N_R   0.403730 0.078230 0.935950 -0.045799
N3    N     N_R   0.903730 0.421770 0.935950 -0.047051
N4    N     N_R   0.903730 0.578230 0.935950 -0.044780
N5    N     N_R   0.426630 0.075970 0.212960 -0.062828
N6    N     N_R   0.426630 0.924030 0.212960 -0.066090
N7    N     N_R   0.926630 0.575970 0.212960 -0.065742
N8    N     N_R   0.926630 0.424030 0.212960 -0.061934
N9    N     N_R   0.591320 0.134600 0.004200 -0.045731
N10   N     N_R   0.591320 0.865400 0.004200 -0.043232
N11   N     N_R   0.091320 0.634600 0.004200 -0.041387
N12   N     N_R   0.408680 0.869840 0.995800 -0.062847
N13   N     N_R   0.091320 0.365400 0.004200 -0.045020
N14   N     N_R   0.578320 0.867660 0.846880 -0.047550
N15   N     N_R   0.578320 0.132340 0.846880 -0.034265
N16   N     N_R   0.078320 0.367660 0.846880 -0.048193
N17   N     N_R   0.078320 0.632340 0.846880 -0.046642
N18   N     N_R   0.573370 0.074390 0.787040 -0.039955
N19   N     N_R   0.573370 0.925610 0.787040 -0.043857
N20   N     N_R   0.073370 0.574390 0.787040 -0.037424
N21   N     N_R   0.073370 0.425610 0.787040 -0.041786
N22   N     N_R   0.596270 0.927870 0.064040 -0.043376
N23   N     N_R   0.908680 0.630160 0.995800 -0.058534
N24   N     N_R   0.596270 0.072130 0.064040 -0.045215
N25   N     N_R   0.096270 0.427870 0.064040 -0.043908
N26   N     N_R   0.096270 0.572130 0.064040 -0.045443
N27   N     N_R   0.908680 0.369840 0.995800 -0.047176
N28   N     N_R   0.421680 0.867580 0.153120 -0.098982
N29   N     N_R   0.421680 0.132420 0.153120 -0.099525
N30   N     N_R   0.921680 0.367580 0.153120 -0.097571
N31   N     N_R   0.921680 0.632420 0.153120 -0.093663
N32   N     N_R   0.403730 0.921770 0.935950 -0.050119
Ni1   Ni    Ni4+2 0.500000 0.131190 0.000000 0.271728
Ni2   Ni    Ni4+2 0.500000 0.868810 0.000000 0.225204
Ni3   Ni    Ni4+2 0.000000 0.631190 0.000000 0.250371
Ni4   Ni    Ni4+2 0.000000 0.368810 0.000000 0.263727
Ni5   Ni    Ni4+2 0.488650 0.000000 0.862740 0.223418
Ni6   Ni    Ni4+2 0.988650 0.500000 0.862740 0.206092
Ni7   Ni    Ni4+2 0.511350 0.000000 0.137260 0.193111
Ni8   Ni    Ni4+2 0.011350 0.500000 0.137260 0.197341

loop_
_geom_bond_atom_site_label_1
_geom_bond_atom_site_label_2
_ccdc_geom_bond_type
C67   H64   S    
C78   N26   A    
C96   H95   S    
C6    C32   S    
C90   H74   S    
C24   H10   S    
C95   H92   S    
N10   N22   A    
C40   C71   A    
C91   H79   S    
C53   H36   S    
N1    N2    A    
C23   C69   A    
N5    N29   A    
N15   Ni1   S    
C18   H5    S    
C57   C66   S    
C1    N1    A    
C42   F7    S    
N8    Ni8   S    
N2    Ni5   S    
N3    N27   A    
C55   C68   S    
C18   H27   S    
C92   H83   S    
C84   H58   S    
C88   H73   S    
C65   N8    A    
C87   H61   S    
C93   H86   S    
C36   C88   S    
C16   C31   S    
C11   H67   S    
N27   Ni4   S    
C12   C68   A    
C39   C92   S    
C9    H45   S    
C49   C93   S    
C88   H71   S    
C37   C90   S    
C47   H25   S    
N9    Ni1   S    
C45   N22   A    
C87   N21   A    
C15   H2    S    
C46   H24   S    
C22   C29   S    
N14   N19   A    
C25   H11   S    
C59   C66   A    
C83   N17   A    
C43   N31   A    
C16   F1    S    
C59   H41   S    
C53   C70   S    
C24   C30   S    
C76   N10   A    
C8    C83   A    
N22   Ni7   S    
C65   C73   A    
C41   F6    S    
C22   H14   S    
C76   H50   S    
N5    Ni7   S    
C94   H87   S    
N3    Ni6   S    
C5    C31   S    
C25   H16   S    
C16   H3    S    
C79   H52   S    
N16   N21   A    
C1    H1    S    
C22   H9    S    
C7    C87   A    
N11   Ni3   S    
C42   C73   A    
C63   N6    A    
C26   H13   S    
N30   Ni4   S    
N6    Ni7   S    
C26   H17   S    
C20   H29   S    
N13   Ni4   S    
C45   H62   S    
C15   F4    S    
C62   N5    A    
N28   Ni2   S    
C26   C48   S    
C5    C85   A    
C43   C74   A    
C40   F5    S    
C41   N29   A    
C6    C81   A    
C62   H44   S    
C91   H80   S    
C7    C33   S    
C48   H26   S    
C9    H66   S    
N14   Ni2   S    
C60   H42   S    
C14   C33   S    
C35   C48   S    
C15   C35   S    
C52   C54   D    
C90   H76   S    
C20   C29   S    
C61   H43   S    
C2    C45   A    
C3    C49   S    
C13   H70   S    
C64   N7    A    
C22   C44   S    
C11   H69   S    
N26   Ni8   S    
C31   C44   S    
C57   H39   S    
C64   H47   S    
C13   C30   S    
C14   F3    S    
C6    C84   A    
C12   N12   A    
C4    C79   A    
N4    Ni6   S    
C17   H4    S    
C56   N24   A    
C30   C73   S    
C75   C89   A    
C92   H81   S    
C50   C94   S    
C80   N14   A    
C29   C74   S    
C49   C55   D    
C38   C91   S    
N11   N26   A    
C78   H65   S    
C4    C50   S    
N17   N20   A    
C8    C35   S    
C40   N28   A    
C35   C39   S    
C9    C14   S    
C63   H46   S    
C2    C52   S    
C20   H7    S    
C11   C16   S    
C75   H49   S    
C60   N3    A    
N1    Ni1   S    
C60   C70   A    
C95   H93   S    
C44   H22   S    
C54   H37   S    
C1    C66   A    
C96   H94   S    
C37   H32   S    
C62   C72   A    
C86   N20   A    
C32   C37   S    
C48   H21   S    
C5    C80   A    
C19   C28   S    
C80   H53   S    
C19   C39   S    
N7    Ni8   S    
C41   C72   A    
C82   N16   A    
C42   N30   A    
C58   C68   A    
C56   C89   A    
C14   H89   S    
C63   C71   A    
C59   N2    A    
C91   H77   S    
N4    N23   A    
N6    N28   A    
N32   Ni5   S    
N16   Ni4   S    
C46   H19   S    
N15   N18   A    
C28   C71   S    
C86   H60   S    
C3    C77   A    
C36   H31   S    
C10   H56   S    
C21   H30   S    
C83   H57   S    
C21   H8    S    
C2    C76   A    
C9    C27   S    
C23   H23   S    
C17   F2    S    
C19   H6    S    
C10   C28   S    
C19   H28   S    
C96   H96   S    
N13   N25   A    
C25   C47   S    
C90   H75   S    
C75   N9    A    
C24   H15   S    
C95   H91   S    
C81   H54   S    
C94   H90   S    
C50   C57   D    
C32   C46   S    
C18   C27   S    
N23   Ni3   S    
C23   N23   A    
C4    C67   A    
N12   Ni2   S    
C64   C74   A    
C84   N18   A    
C93   H85   S    
N20   Ni6   S    
C21   C30   S    
C26   C28   S    
C33   C38   S    
C88   H72   S    
N12   N32   A    
C13   C17   S    
N21   Ni6   S    
C10   C15   S    
C61   C69   A    
N19   Ni5   S    
C65   H48   S    
C34   N27   A    
C18   C38   S    
C24   C46   S    
C61   N4    A    
C51   C89   S    
C43   F8    S    
C34   H34   S    
N7    N31   A    
C47   H20   S    
C81   N15   A    
C54   C69   S    
C85   H59   S    
C56   H63   S    
C44   H18   S    
N17   Ni3   S    
C33   C47   S    
C38   H33   S    
N25   Ni8   S    
C52   C96   S    
C92   H82   S    
N10   Ni2   S    
N29   Ni1   S    
N9    N24   A    
N24   Ni7   S    
C94   H88   S    
C58   N32   A    
C77   N11   A    
C20   C36   S    
C93   H84   S    
C58   H40   S    
C79   N13   A    
C7    C82   A    
C21   C37   S    
C11   C29   S    
C8    C86   A    
C13   H78   S    
C85   N19   A    
N8    N30   A    
C55   H38   S    
C17   C32   S    
C67   N25   A    
C31   C36   S    
N31   Ni3   S    
N18   Ni5   S    
C51   C53   D    
C3    C78   A    
C10   H68   S    
C34   C70   A    
C82   H55   S    
C77   H51   S    
C27   C72   S    
C51   C95   S    
C12   H12   S    
C25   C27   S    
C39   H35   S    
