data_mof_unit_7706.cif
_audit_creation_date              2012-12-11T16:37:26-0500
_audit_creation_method            fapswitch 2.2
_symmetry_space_group_name_H-M    P1
_symmetry_Int_Tables_number       1
_space_group_crystal_system       triclinic
_cell_length_a                    19.630114
_cell_length_b                    6.943102
_cell_length_c                    17.603982
_cell_angle_alpha                 90.0
_cell_angle_beta                  109.063682
_cell_angle_gamma                 90.000102
_cell_volume                      2267.72736566

loop_
_atom_site_label
_atom_site_type_symbol
_atom_type_description
_atom_site_fract_x
_atom_site_fract_y
_atom_site_fract_z
_atom_type_partial_charge
O1    O     O_R   0.561710 0.369960 0.440200 -0.532520
O2    O     O_R   0.061710 0.630040 0.940200 -0.532520
O3    O     O_R   0.412630 0.033330 0.406330 -0.541949
O4    O     O_R   0.912630 0.966670 0.906330 -0.541949
O5    O     O_R   0.438290 0.869790 0.559800 -0.546374
O6    O     O_R   0.938290 0.130210 0.059800 -0.546374
C1    C     C_R   0.384954 0.203215 0.382941 0.683753
C2    C     C_R   0.884954 0.796784 0.882941 0.683754
O7    O     O_R   0.559570 0.039810 0.430640 -0.509124
O8    O     O_R   0.059570 0.960190 0.930640 -0.509124
O9    O     O_R   0.586280 0.876320 0.584290 -0.527619
O10   O     O_R   0.086280 0.123680 0.084290 -0.527619
C3    C     C_R   0.580967 0.208576 0.415174 0.793297
C4    C     C_R   0.080967 0.791424 0.915174 0.793297
O11   O     O_R   0.413720 0.363440 0.415710 -0.551790
O12   O     O_R   0.913720 0.636560 0.915710 -0.551790
O13   O     O_3   0.508590 0.205630 0.550380 -0.359390
O14   O     O_3   0.008590 0.794370 0.050380 -0.359390
V1    V     V_3+5 0.498410 0.928130 0.490650 1.529264
V2    V     V_3+5 0.998410 0.071870 0.990650 1.529264
O15   O     O_R   0.587370 0.546990 0.593670 -0.532751
O16   O     O_R   0.087370 0.453010 0.093670 -0.532750
C5    C     C_R   0.614554 0.717041 0.617678 0.730777
C6    C     C_R   0.114554 0.282959 0.117678 0.730777
O17   O     O_R   0.440430 0.540520 0.569360 -0.536937
O18   O     O_R   0.940430 0.459480 0.069360 -0.536936
C7    C     C_R   0.420598 0.709554 0.586458 0.661320
C8    C     C_R   0.920597 0.290445 0.086457 0.661320
V3    V     V_3+5 0.501590 0.428960 0.509350 1.507668
V4    V     V_3+5 0.001590 0.571040 0.009350 1.507669
O19   O     O_3   0.491410 0.701330 0.449620 -0.359854
O20   O     O_3   0.991410 0.298670 0.949620 -0.359854
C9    C     C_R   0.325681 0.890856 0.731504 -0.170198
C10   C     C_R   0.825684 0.109153 0.231509 -0.170195
H1    H     H_    0.324749 0.018223 0.766841 0.118142
H2    H     H_    0.824755 0.981791 0.266850 0.118145
C11   C     C_R   0.372377 0.884924 0.685897 -0.047163
C12   C     C_R   0.872378 0.115081 0.185899 -0.047165
C13   C     C_R   0.374361 0.719766 0.639091 -0.087612
C14   C     C_R   0.874360 0.280234 0.139091 -0.087609
C15   C     C_R   0.330781 0.561044 0.642791 -0.145399
C16   C     C_R   0.830778 0.438952 0.142787 -0.145397
H3    H     H_    0.330984 0.432169 0.608201 0.130883
H4    H     H_    0.830979 0.567823 0.108194 0.130881
C17   C     C_R   0.285020 0.567637 0.689439 -0.133089
C18   C     C_R   0.785016 0.432358 0.189434 -0.133093
H5    H     H_    0.251194 0.444431 0.689510 0.118482
H6    H     H_    0.751186 0.555557 0.189499 0.118488
C19   C     C_R   0.281083 0.733926 0.733201 0.095437
C20   C     C_R   0.781084 0.266078 0.233202 0.095432
C21   C     C_R   0.220712 0.595593 0.827601 -0.101170
C22   C     C_R   0.720713 0.404409 0.327602 -0.101171
H7    H     H_    0.251859 0.464577 0.832810 0.130640
H8    H     H_    0.751859 0.535425 0.332811 0.130642
C23   C     C_R   0.172909 0.612876 0.871493 -0.097603
C24   C     C_R   0.672909 0.387126 0.371494 -0.097602
H9    H     H_    0.169099 0.494313 0.909852 0.176397
H10   H     H_    0.669100 0.505688 0.409852 0.176397
C25   C     C_R   0.131389 0.780890 0.867157 -0.111699
C26   C     C_R   0.631390 0.219111 0.367158 -0.111699
C27   C     C_R   0.140304 0.933804 0.817681 0.263178
C28   C     C_R   0.640305 0.066197 0.317681 0.263177
C29   C     C_R   0.188908 0.915853 0.774909 -0.153784
C30   C     C_R   0.688909 0.084149 0.274910 -0.153784
H11   H     H_    0.194115 0.033797 0.736873 0.138562
H12   H     H_    0.694116 0.966205 0.236873 0.138563
C31   C     C_R   0.229512 0.747608 0.779139 0.033750
C32   C     C_R   0.729512 0.252395 0.279140 0.033748
C33   C     C_R   0.804106 0.623824 0.760106 0.046574
C34   C     C_R   0.304106 0.376176 0.260106 0.046574
C35   C     C_R   0.817725 0.782435 0.812717 -0.100301
C36   C     C_R   0.317725 0.217565 0.312717 -0.100300
C37   C     C_R   0.764328 0.926273 0.796455 -0.155771
C38   C     C_R   0.264328 0.073726 0.296455 -0.155771
H13   H     H_    0.772014 0.051044 0.835036 0.109565
H14   H     H_    0.272014 0.948956 0.335035 0.109565
C39   C     C_R   0.698121 0.903642 0.733698 -0.112555
C40   C     C_R   0.198120 0.096358 0.233698 -0.112556
H15   H     H_    0.657375 0.014113 0.724873 0.137331
H16   H     H_    0.157375 0.985886 0.224873 0.137331
C41   C     C_R   0.683166 0.736248 0.685364 -0.133481
C42   C     C_R   0.183166 0.263752 0.185364 -0.133481
C43   C     C_R   0.738673 0.602282 0.698091 0.121137
C44   C     C_R   0.238674 0.397718 0.198092 0.121137
C45   C     C_3   0.736966 0.390263 0.708767 0.050825
C46   C     C_3   0.236967 0.609737 0.208767 0.050824
C47   C     C_3   0.808716 0.412540 0.777210 -0.324304
C48   C     C_3   0.308716 0.587460 0.277210 -0.324304
H17   H     H_    0.691842 0.346016 0.729977 0.100716
H18   H     H_    0.191843 0.653984 0.229978 0.100715
H19   H     H_    0.805593 0.378551 0.837677 0.099519
H20   H     H_    0.305594 0.621450 0.337677 0.099519
Br1   Br    Br    0.738192 0.258173 0.611256 -0.542396
Br2   Br    Br    0.238192 0.741827 0.111256 -0.542396
C49   C     C_1   0.870896 0.324306 0.761880 0.492699
N1    N     N_1   0.919416 0.253856 0.749191 -0.253104
C50   C     C_1   0.370897 0.675693 0.261879 0.492699
N2    N     N_1   0.419417 0.746143 0.249190 -0.253104
C51   C     C_1   0.419482 0.047963 0.691547 0.284869
N3    N     N_1   0.457275 0.178718 0.696618 -0.346697
C52   C     C_1   0.919481 0.952037 0.191547 0.284868
N4    N     N_1   0.957272 0.821276 0.196617 -0.346695
Br3   Br    Br    0.087249 0.170196 0.801878 -0.540153
Br4   Br    Br    0.587249 0.829805 0.301878 -0.540154

loop_
_geom_bond_atom_site_label_1
_geom_bond_atom_site_label_2
_ccdc_geom_bond_type
C12   C14   A    
C29   H11   S    
C52   N4    T    
C23   C25   A    
O13   V3    S    
C49   N1    T    
O4    C2    A    
V1    O19   S    
C50   N2    T    
C13   C15   A    
C3    C26   S    
C4    C25   S    
O9    V1    S    
C38   H14   S    
C30   C32   A    
C27   Br3   S    
C44   C46   S    
C12   C52   S    
O3    C1    A    
C46   C48   S    
C8    C14   S    
O12   V4    S    
O7    C3    A    
C26   C28   A    
C16   C18   A    
C33   C35   A    
C6    C42   S    
C28   C30   A    
C46   Br2   S    
O13   V1    S    
O5    C7    A    
C45   Br1   S    
O7    V1    S    
O6    C8    A    
C48   H20   S    
O8    V2    S    
C47   C49   S    
O3    V1    S    
O14   V4    S    
C17   C19   A    
C34   C44   A    
C21   C23   A    
C48   C50   S    
C33   C47   S    
C17   H5    S    
C34   C48   S    
C2    O12   A    
C15   H3    S    
C16   H4    S    
C41   C43   A    
C22   H8    S    
O11   V3    S    
C28   Br4   S    
C39   H15   S    
O17   V3    S    
C29   C31   A    
C10   C20   A    
C25   C27   A    
C47   H19   S    
C45   C47   S    
C36   C38   A    
O8    C4    A    
C7    C13   S    
C1    C36   S    
C35   C37   A    
C45   H17   S    
C1    O11   A    
O15   V3    S    
C9    C11   A    
C24   C26   A    
C21   H7    S    
C30   H12   S    
C33   C43   A    
C40   C42   A    
C51   N3    T    
C39   C41   A    
O10   V2    S    
O1    V3    S    
C40   H16   S    
C21   C31   A    
C43   C45   S    
O18   V4    S    
C42   C44   A    
O15   C5    A    
C46   H18   S    
O16   C6    A    
O1    C3    A    
C37   H13   S    
C11   C51   S    
V2    O20   S    
C18   C20   A    
C2    C35   S    
C37   C39   A    
C5    C41   S    
C10   C12   A    
C27   C29   A    
C14   C16   A    
C22   C32   A    
C19   C31   S    
O5    V1    S    
O17   C7    A    
O6    V2    S    
O10   C6    A    
O18   C8    A    
O2    V4    S    
C23   H9    S    
C11   C13   A    
O16   V4    S    
V4    O20   S    
C20   C32   S    
O9    C5    A    
C9    H1    S    
C10   H2    S    
C24   H10   S    
O14   V2    S    
O2    C4    A    
O4    V2    S    
C18   H6    S    
V3    O19   S    
C38   C40   A    
C15   C17   A    
C34   C36   A    
C9    C19   A    
C22   C24   A    
