data_mof_unit_35702.cif
_audit_creation_date              2012-12-11T16:57:18-0500
_audit_creation_method            fapswitch 2.2
_symmetry_space_group_name_H-M    P1
_symmetry_Int_Tables_number       1
_space_group_crystal_system       triclinic
_cell_length_a                    14.55522
_cell_length_b                    16.128339
_cell_length_c                    6.944194
_cell_angle_alpha                 89.891724
_cell_angle_beta                  98.456552
_cell_angle_gamma                 90.013205
_cell_volume                      1612.43358438

loop_
_atom_site_label
_atom_site_type_symbol
_atom_type_description
_atom_site_fract_x
_atom_site_fract_y
_atom_site_fract_z
_atom_type_partial_charge
O1    O     O_R   0.584990 0.413650 0.534420 -0.537590
O2    O     O_R   0.584990 0.586350 0.534420 -0.538804
O3    O     O_R   0.596190 0.585230 0.208380 -0.544810
O4    O     O_R   0.596190 0.414770 0.208380 -0.543338
O5    O     O_R   0.415010 0.586420 0.976930 -0.536982
O6    O     O_R   0.415010 0.413580 0.976930 -0.536162
C1    C     C_R   0.618483 0.614546 0.383668 0.696325
C2    C     C_R   0.618733 0.385632 0.383981 0.700900
O7    O     O_3   0.440560 0.500000 0.319140 -0.367084
V1    V     V_3+5 0.511030 0.500000 0.068070 1.415116
O8    O     O_R   0.403810 0.414840 0.643540 -0.541305
O9    O     O_R   0.403810 0.585160 0.643540 -0.541965
C3    C     C_R   0.382677 0.385276 0.806807 0.751884
C4    C     C_R   0.381338 0.613672 0.806294 0.735944
V2    V     V_3+5 0.488970 0.500000 0.560620 1.426234
O10   O     O_3   0.559440 0.500000 0.859420 -0.376184
H1    H     H_    0.318428 0.692411 0.103265 0.128893
H2    H     H_    0.319511 0.307234 0.105641 0.134660
C5    C     C_2   0.307271 0.676869 0.798055 -0.243849
C6    C     C_2   0.321154 0.311964 0.801326 -0.254056
C7    C     C_2   0.279776 0.707811 0.961670 -0.221385
C8    C     C_2   0.299693 0.276637 0.966401 -0.227254
H3    H     H_    0.248407 0.816930 0.229586 0.106020
H4    H     H_    0.195316 0.225416 0.224625 0.115506
C9    C     C_2   0.193307 0.817098 0.105626 -0.390822
C10   C     C_2   0.195946 0.180819 0.107673 -0.415712
C11   C     C_2   0.197155 0.762239 0.957740 0.498412
C12   C     C_2   0.250001 0.196085 0.967298 0.481751
H5    H     H_    0.272528 0.695839 0.655669 0.184672
H6    H     H_    0.297505 0.283965 0.660698 0.178118
C13   C     C_R   0.747451 0.691086 0.593018 0.097307
C14   C     C_R   0.751076 0.311091 0.590156 0.105920
C15   C     C_R   0.689961 0.681301 0.414333 -0.119012
C16   C     C_R   0.690517 0.319083 0.414554 -0.113891
C17   C     C_R   0.702310 0.737923 0.265457 -0.171501
C18   C     C_R   0.701448 0.261729 0.266510 -0.161636
H7    H     H_    0.657983 0.734180 0.126873 0.137680
H8    H     H_    0.656063 0.264851 0.128957 0.138246
C19   C     C_R   0.766751 0.803878 0.298971 -0.196463
C20   C     C_R   0.766073 0.195859 0.299712 -0.177028
H9    H     H_    0.771412 0.848137 0.183757 0.129713
H10   H     H_    0.769297 0.150838 0.185797 0.125896
C21   C     C_R   0.820023 0.816053 0.483359 -0.129345
C22   C     C_R   0.821290 0.184790 0.482620 -0.103351
C23   C     C_R   0.810302 0.756861 0.627063 0.230764
C24   C     C_R   0.814493 0.245785 0.623349 0.114713
C25   C     C_3   0.787222 0.769780 0.826924 -0.406258
C26   C     C_3   0.797961 0.236194 0.828771 -0.421850
C27   C     C_3   0.720139 0.697623 0.790390 -0.430603
C28   C     C_3   0.729424 0.307585 0.792854 -0.392948
H11   H     H_    0.752019 0.830181 0.840962 0.151132
H12   H     H_    0.764401 0.175957 0.853238 0.171519
H13   H     H_    0.846670 0.756455 0.942278 0.223590
H14   H     H_    0.860628 0.251401 0.934601 0.172761
H15   H     H_    0.646185 0.716018 0.785369 0.170335
H16   H     H_    0.656249 0.288917 0.797476 0.176320
H17   H     H_    0.741984 0.642387 0.881772 0.188663
H18   H     H_    0.752687 0.364233 0.877158 0.176205
O11   O     O_R   0.921430 0.915960 0.371040 -0.546539
O12   O     O_R   0.921430 0.084040 0.371040 -0.553773
O13   O     O_R   0.910450 0.087500 0.697310 -0.559669
O14   O     O_R   0.910450 0.912500 0.697310 -0.535928
O15   O     O_R   0.091710 0.087460 0.928430 -0.513445
O16   O     O_R   0.091710 0.912540 0.928430 -0.488924
C29   C     C_R   0.887880 0.114288 0.519532 0.652084
C30   C     C_R   0.887348 0.886080 0.519614 0.756894
O17   O     O_3   0.065970 1.000000 0.586140 -0.302246
V3    V     V_3+5 0.995640 0.000000 0.837400 1.594338
O18   O     O_R   0.103020 0.915700 0.261710 -0.523743
O19   O     O_R   0.103020 0.084300 0.261710 -0.519494
C31   C     C_R   0.122798 0.883995 0.099173 0.869250
C32   C     C_R   0.128033 0.111752 0.099851 0.814000
V4    V     V_3+5 0.017940 0.000000 0.344880 1.608606
O20   O     O_3   0.947330 1.000000 0.046180 -0.415759
S1    S     S_3+6 0.100914 0.744773 0.772067 -0.025249
O21   O     O_2   0.011820 0.756978 0.853096 -0.377329
O22   O     O_2   0.105387 0.804571 0.607567 -0.345436
O23   O     O_3   0.103286 0.647274 0.687294 -0.513782
H19   H     H_    0.049501 0.643767 0.582124 0.357983
S2    S     S_3+6 0.272432 0.119729 0.795575 -0.006723
O24   O     O_2   0.266112 0.033746 0.876667 -0.341167
O25   O     O_2   0.202495 0.129734 0.615514 -0.350314
O26   O     O_3   0.379621 0.133643 0.737633 -0.516711
H20   H     H_    0.382735 0.096461 0.625398 0.359062

loop_
_geom_bond_atom_site_label_1
_geom_bond_atom_site_label_2
_ccdc_geom_bond_type
O1    C2    A    
C10   C32   S    
V4    O20   S    
O2    C1    A    
O4    C2    A    
C19   H9    S    
C6    H6    S    
C26   H14   S    
O16   V3    S    
C5    C7    D    
H4    C10   S    
O3    C1    A    
O11   C30   A    
V3    O20   S    
V2    O10   S    
O12   V4    S    
C27   H17   S    
O16   C31   A    
O18   C31   A    
O8    V2    S    
C13   C15   A    
O18   V4    S    
O1    V2    S    
O7    V1    S    
O11   V4    S    
C25   H13   S    
C20   H10   S    
C7    C11   S    
C8    C12   S    
C1    C15   S    
C22   C29   S    
C13   C27   S    
S2    O26   S    
C11   S1    S    
C25   C27   S    
C22   C24   A    
C23   C25   S    
C24   C26   S    
O14   C30   A    
O17   V3    S    
C28   H18   S    
C18   C20   A    
S2    O25   D    
O23   H19   S    
C25   H11   S    
C27   H15   S    
C28   H16   S    
C14   C16   A    
C17   C19   A    
S1    O21   D    
C21   C23   A    
O26   H20   S    
O9    V2    S    
C20   C22   A    
O19   V4    S    
C2    C16   S    
O2    V2    S    
S1    O22   D    
C14   C28   S    
O5    C4    A    
C9    C31   S    
O17   V4    S    
O9    C4    A    
O12   C29   A    
O4    V1    S    
C5    H5    S    
O15   V3    S    
C3    C6    S    
C17   H7    S    
H2    C8    S    
C14   C24   A    
C4    C5    S    
C6    C8    D    
S2    O24   D    
O6    V1    S    
C19   C21   A    
C9    C11   D    
C10   C12   D    
O14   V3    S    
C18   H8    S    
O7    V2    S    
O5    V1    S    
O3    V1    S    
V1    O10   S    
O6    C3    A    
O8    C3    A    
O13   V3    S    
C21   C30   S    
C26   C28   S    
C15   C17   A    
C16   C18   A    
H3    C9    S    
C12   S2    S    
S1    O23   S    
H1    C7    S    
O13   C29   A    
C26   H12   S    
O15   C32   A    
C13   C23   A    
O19   C32   A    
