data_mof_unit_44014.cif
_audit_creation_date              2012-12-10T18:49:20-0500
_audit_creation_method            fapswitch 2.2
_symmetry_space_group_name_H-M    P1
_symmetry_Int_Tables_number       1
_space_group_crystal_system       triclinic
_cell_length_a                    9.868942
_cell_length_b                    10.798887
_cell_length_c                    13.588793
_cell_angle_alpha                 90.715418
_cell_angle_beta                  81.943115
_cell_angle_gamma                 90.122355
_cell_volume                      1433.79989985

loop_
_atom_site_label
_atom_site_type_symbol
_atom_type_description
_atom_site_fract_x
_atom_site_fract_y
_atom_site_fract_z
_atom_type_partial_charge
C1    C     C_R   0.499898 0.740678 0.500273 0.873877
C2    C     C_R   0.499496 0.260458 0.498719 0.869038
C3    C     C_R   0.497117 0.128593 0.497162 -0.142490
C4    C     C_R   0.498778 0.874365 0.499435 -0.156796
C5    C     C_R   0.474508 0.500427 0.686006 0.890957
C6    C     C_R   0.525477 0.499902 0.313991 0.885203
C7    C     C_R   0.944934 0.452315 0.420950 0.048236
C8    C     C_R   0.055858 0.549805 0.578298 0.036292
C9    C     C_R   0.087886 0.450845 0.421996 -0.147213
C10   C     C_R   0.912368 0.548466 0.578406 -0.140964
C11   C     C_1   0.545982 0.499143 0.209625 -0.178616
C12   C     C_1   0.453890 0.499476 0.790342 -0.176366
C13   C     C_2   0.559344 0.497727 0.017347 -0.165875
C14   C     C_2   0.440248 0.497348 0.982578 -0.169888
C15   C     C_1   0.442142 0.498426 0.878528 0.007801
C16   C     C_1   0.557553 0.498392 0.121415 0.011222
C17   C     C_R   0.623632 0.941828 0.483644 0.060341
C18   C     C_R   0.378855 0.064162 0.539497 0.053292
C19   C     C_R   0.614053 0.063460 0.454034 0.037670
C20   C     C_R   0.372287 0.940234 0.512493 0.049327
H1    H     H_    0.155246 0.412094 0.359518 0.150153
H2    H     H_    0.845290 0.587905 0.640682 0.156214
H3    H     H_    0.343000 0.496968 0.031379 0.159981
H4    H     H_    0.656575 0.498329 0.968526 0.160369
N1    N     N_R   0.142790 0.500030 0.500020 -0.100223
N2    N     N_R   0.857210 0.499970 0.499980 -0.100291
O1    O     O_R   0.385380 0.683250 0.500010 -0.614954
O2    O     O_R   0.614620 0.316750 0.499990 -0.620933
O3    O     O_R   0.614710 0.683220 0.500000 -0.627310
O4    O     O_R   0.385290 0.316780 0.500000 -0.617821
O5    O     O_R   0.368830 0.499990 0.640350 -0.595349
O6    O     O_R   0.631170 0.500010 0.359650 -0.601380
O7    O     O_R   0.598160 0.499960 0.640350 -0.622665
O8    O     O_R   0.401840 0.500040 0.359650 -0.620400
Zn1   Zn    Zn3+2 0.346870 0.500020 0.500000 0.941963
Zn2   Zn    Zn3+2 0.653130 0.499980 0.500000 0.938958
C21   C     C_1   0.895855 0.407903 0.332516 0.184213
N3    N     N_1   0.859285 0.373201 0.259780 -0.230839
C22   C     C_1   0.108401 0.607492 0.661037 0.170092
N4    N     N_1   0.149028 0.654947 0.727954 -0.217260
C23   C     C_3   0.761100 0.897719 0.509112 -0.382353
C24   C     C_3   0.753396 0.878784 0.621778 -0.313645
C25   C     C_3   0.895674 0.875538 0.653202 -0.924746
H5    H     H_    0.960835 0.808085 0.606416 0.262288
H6    H     H_    0.943928 0.968500 0.644802 0.254797
H7    H     H_    0.888220 0.848048 0.732232 0.260361
H8    H     H_    0.695288 0.956039 0.662922 0.219023
H9    H     H_    0.699418 0.791093 0.643902 0.232465
H10   H     H_    0.799619 0.814274 0.465866 0.217252
H11   H     H_    0.840870 0.968817 0.488275 0.196373
C26   C     C_3   0.264577 0.120828 0.614124 -0.406883
C27   C     C_3   0.318699 0.171174 0.707511 -0.320829
C28   C     C_3   0.205064 0.234250 0.778205 -0.853238
H12   H     H_    0.163995 0.314576 0.741481 0.271723
H13   H     H_    0.120805 0.167890 0.801399 0.254795
H14   H     H_    0.246533 0.268119 0.845483 0.250719
H15   H     H_    0.360929 0.093385 0.746615 0.213455
H16   H     H_    0.402043 0.239144 0.688139 0.216654
H17   H     H_    0.207789 0.192618 0.578949 0.229348
H18   H     H_    0.187789 0.049263 0.641167 0.188082
C29   C     C_3   0.719794 0.116937 0.372890 -0.378774
C30   C     C_3   0.750791 0.026381 0.284082 -0.381946
C31   C     C_3   0.847631 0.082753 0.199054 -0.847429
H19   H     H_    0.797786 0.162223 0.167506 0.273805
H20   H     H_    0.943782 0.113862 0.225547 0.264613
H21   H     H_    0.873501 0.012196 0.139265 0.246417
H22   H     H_    0.798926 0.940696 0.307185 0.222559
H23   H     H_    0.653748 0.000205 0.256309 0.225368
H24   H     H_    0.679597 0.202722 0.343468 0.223142
H25   H     H_    0.815238 0.141195 0.403368 0.198906
C32   C     C_3   0.236067 0.890251 0.487057 -0.383169
C33   C     C_3   0.245442 0.857058 0.375846 -0.304351
C34   C     C_3   0.108461 0.810010 0.350379 -0.887891
H26   H     H_    0.030525 0.884548 0.363136 0.247904
H27   H     H_    0.119744 0.781494 0.270872 0.252337
H28   H     H_    0.073090 0.729056 0.396653 0.270019
H29   H     H_    0.275207 0.940921 0.331217 0.207864
H30   H     H_    0.324355 0.785376 0.353365 0.236799
H31   H     H_    0.198342 0.812235 0.535375 0.226171
H32   H     H_    0.154707 0.961703 0.500815 0.184453

loop_
_geom_bond_atom_site_label_1
_geom_bond_atom_site_label_2
_ccdc_geom_bond_type
C29   H25   S    
C6    O6    A    
C31   H20   S    
C23   C24   S    
C32   H31   S    
C9    N1    A    
C28   H12   S    
C10   H2    S    
O3    Zn2   S    
C30   C31   S    
C7    N2    A    
O4    Zn1   S    
O6    Zn2   S    
C21   N3    T    
O7    Zn2   S    
C3    C18   A    
O8    Zn1   S    
C34   H26   S    
C33   H30   S    
C5    O7    A    
C20   C32   S    
C3    C19   A    
C8    C22   S    
C10   N2    A    
C31   H21   S    
C13   C14   D    
C8    N1    A    
C34   H27   S    
C23   H10   S    
C32   H32   S    
C18   C26   S    
C28   H13   S    
C26   C27   S    
C5    C12   S    
C6    C11   S    
O1    Zn1   S    
C6    O8    A    
C13   H4    S    
C14   H3    S    
C25   H5    S    
C33   H29   S    
C11   C16   T    
C12   C15   T    
C1    O3    A    
C7    C21   S    
C24   H9    S    
C25   H6    S    
C27   H16   S    
N1    Zn1   S    
C4    C17   A    
C30   H22   S    
N2    Zn2   S    
C34   H28   S    
O5    Zn1   S    
C26   H17   S    
C24   C25   S    
C23   H11   S    
C22   N4    T    
C27   C28   S    
C28   H14   S    
C29   H24   S    
C7    C9    A    
C33   C34   S    
C30   H23   S    
C2    O4    A    
C1    C4    S    
C2    C3    S    
C32   C33   S    
C9    H1    S    
C19   C29   S    
C17   C19   A    
C18   C20   A    
C24   H8    S    
C29   C30   S    
C25   H7    S    
C17   C23   S    
C27   H15   S    
C31   H19   S    
C4    C20   A    
O2    Zn2   S    
C8    C10   A    
C13   C16   S    
C1    O1    A    
C14   C15   S    
C2    O2    A    
C26   H18   S    
C5    O5    A    
