data_mof_unit_10398.cif
_audit_creation_date              2012-10-26T20:19:32-0400
_audit_creation_method            fapswitch 2.2
_symmetry_space_group_name_H-M    P1
_symmetry_Int_Tables_number       1
_space_group_crystal_system       triclinic
_cell_length_a                    10.742985
_cell_length_b                    10.857547
_cell_length_c                    9.57428
_cell_angle_alpha                 90.179492
_cell_angle_beta                  89.869548
_cell_angle_gamma                 92.609154
_cell_volume                      1115.60185292

loop_
_atom_site_label
_atom_site_type_symbol
_atom_type_description
_atom_site_fract_x
_atom_site_fract_y
_atom_site_fract_z
_atom_type_partial_charge
C1    C     C_R   0.509355 0.262934 0.500653 0.561510
C2    C     C_R   0.526415 0.064079 0.632498 0.037187
C3    C     C_R   0.519077 0.128885 0.504139 -0.004116
C4    C     C_R   0.259924 0.499806 0.500094 0.555024
C5    C     C_R   0.503950 0.063328 0.378775 -0.160371
C6    C     C_R   0.493021 0.936081 0.379519 -0.158950
C7    C     C_R   0.485631 0.871874 0.506094 -0.012099
C8    C     C_R   0.664844 0.665013 0.144379 -0.099743
C9    C     C_R   0.744954 0.746034 0.072078 -0.178559
C10   C     C_R   0.744970 0.746003 0.928189 -0.166809
C11   C     C_R   0.664789 0.665036 0.855819 -0.090372
C12   C     C_3   0.877801 0.502157 0.499416 0.013677
C13   C     C_R   0.580878 0.581307 0.925183 0.150517
C14   C     C_R   0.580893 0.581256 0.074911 0.155898
C15   C     C_R   0.423355 0.422387 0.073886 -0.013651
C16   C     C_R   0.492341 0.737420 0.501246 0.522594
C17   C     C_R   0.423554 0.422303 0.925833 -0.009920
C18   C     C_R   0.740025 0.501850 0.499725 0.524426
C19   C     C_3   0.076219 0.609252 0.595086 -0.018007
C20   C     C_3   0.931767 0.605003 0.597751 -0.194460
C21   C     C_3   0.072744 0.521962 0.349881 -0.229862
C22   C     C_3   0.063967 0.374040 0.551911 -0.064778
C23   C     C_3   0.930334 0.525453 0.349960 -0.234948
C24   C     C_3   0.121663 0.501677 0.500897 0.047677
C25   C     C_2   0.111242 0.332573 0.692593 0.561195
C26   C     C_3   0.919823 0.375917 0.551623 -0.237320
C27   C     C_R   0.568853 0.119725 0.759039 -0.087455
C28   C     C_R   0.548864 0.060593 0.886598 -0.123168
C29   C     C_R   0.486483 0.945878 0.890294 -0.114858
C30   C     C_R   0.455688 0.885079 0.765838 -0.089694
C31   C     C_R   0.488354 0.938301 0.634769 0.028359
Cu1   Cu    Cu3+1 0.499990 0.499990 0.640660 0.927346
Cu2   Cu    Cu3+1 0.500010 0.500010 0.359340 0.915657
H1    H     H_    0.881224 0.301224 0.482037 0.095105
H2    H     H_    0.360574 0.358803 0.129206 0.115575
H3    H     H_    0.110303 0.597975 0.703712 0.184376
H4    H     H_    0.673500 0.672091 0.254417 0.182433
H5    H     H_    0.807854 0.809020 0.128458 0.120890
H6    H     H_    0.807732 0.809073 0.871850 0.122222
H7    H     H_    0.672949 0.672527 0.745785 0.182690
H8    H     H_    0.361313 0.358390 0.870318 0.162629
H9    H     H_    0.899577 0.587420 0.706759 0.134835
H10   H     H_    0.895435 0.695259 0.566280 0.119782
H11   H     H_    0.113441 0.609492 0.305455 0.172978
H12   H     H_    0.101140 0.446107 0.279741 0.113254
H13   H     H_    0.902644 0.616975 0.311809 0.130901
H14   H     H_    0.090856 0.303386 0.473956 0.102106
H15   H     H_    0.880300 0.357070 0.657502 0.160173
H16   H     H_    0.221173 0.734802 0.554684 0.235283
H17   H     H_    0.092335 0.797981 0.611395 0.230059
H18   H     H_    0.115795 0.356823 0.901622 0.324277
H19   H     H_    0.891758 0.454224 0.275981 0.141778
H20   H     H_    0.501024 0.110313 0.279247 0.133110
H21   H     H_    0.620581 0.207374 0.761245 0.141229
H22   H     H_    0.578830 0.105330 0.982803 0.108519
H23   H     H_    0.464464 0.902543 0.989571 0.113479
H24   H     H_    0.402920 0.798510 0.774963 0.146005
H25   H     H_    0.488875 0.888050 0.280155 0.137427
N1    N     N_R   0.501200 0.501210 0.147910 -0.243887
N2    N     N_R   0.501250 0.501290 0.852040 -0.253772
N3    N     N_3   0.124245 0.729871 0.544365 -0.650999
O1    O     O_R   0.499990 0.319640 0.618810 -0.493839
O2    O     O_R   0.078795 0.394076 0.815013 -0.735147
O3    O     O_R   0.500000 0.319660 0.381240 -0.505417
O4    O     O_R   0.317680 0.499970 0.618790 -0.485699
O5    O     O_R   0.317700 0.499990 0.381210 -0.508495
O6    O     O_R   0.500000 0.680340 0.618760 -0.540870
O7    O     O_R   0.500010 0.680360 0.381190 -0.521343
O8    O     O_R   0.682300 0.500010 0.618790 -0.531141
O9    O     O_R   0.682320 0.500030 0.381210 -0.524440
O10   O     O_2   0.176539 0.243373 0.698821 -0.527990

loop_
_geom_bond_atom_site_label_1
_geom_bond_atom_site_label_2
_ccdc_geom_bond_type
C18   O9    A    
C20   H9    S    
C30   H24   S    
C2    C27   A    
C25   O10   D    
C29   H23   S    
C2    C3    A    
C10   H6    S    
C21   H11   S    
C9    C10   A    
C6    H25   S    
C21   H12   S    
C19   C20   S    
C26   H15   S    
C10   C11   A    
Cu1   Cu2   S    
Cu1   O4    S    
C18   O8    A    
C12   C18   S    
C22   H14   S    
C27   H21   S    
Cu1   O1    S    
Cu2   N1    S    
C13   N2    A    
C13   C14   A    
C1    O1    A    
C4    O5    A    
C14   N1    A    
C11   C13   A    
C12   C23   S    
C12   C20   S    
C23   H19   S    
C6    C7    A    
Cu2   O9    S    
C19   N3    S    
Cu1   O6    S    
C16   O7    A    
C5    C6    A    
C5    H20   S    
C28   C29   A    
C28   H22   S    
C23   H13   S    
Cu2   O5    S    
C19   C24   S    
C22   C24   S    
C19   H3    S    
C21   C23   S    
C22   C26   S    
C30   C31   A    
C4    C24   S    
C17   H8    S    
H16   N3    S    
C8    H4    S    
Cu1   N2    S    
C17   N2    A    
C29   C30   A    
C11   H7    S    
C1    O3    A    
Cu2   O3    S    
C20   H10   S    
H18   O2    S    
C15   C17   A    
C25   O2    S    
C21   C24   S    
C15   H2    S    
C27   C28   A    
C16   O6    A    
H17   N3    S    
C4    O4    A    
C2    C31   A    
C9    H5    S    
C8    C14   A    
C3    C5    A    
Cu1   O8    S    
C15   N1    A    
C26   H1    S    
C7    C31   A    
C7    C16   S    
Cu2   O7    S    
C12   C26   S    
C8    C9    A    
C1    C3    S    
C22   C25   S    
