data_mof_unit_62096.cif
_audit_creation_date              2013-03-05T16:13:55-0500
_audit_creation_method            fapswitch 2.2
_symmetry_space_group_name_H-M    P1
_symmetry_Int_Tables_number       1
_space_group_crystal_system       triclinic
_cell_length_a                    37.61361
_cell_length_b                    30.403165
_cell_length_c                    21.759807
_cell_angle_alpha                 90.030198
_cell_angle_beta                  53.811973
_cell_angle_gamma                 90.033306
_cell_volume                      20083.40522

loop_
_atom_site_label
_atom_site_type_symbol
_atom_site_description
_atom_site_fract_x
_atom_site_fract_y
_atom_site_fract_z
_atom_type_partial_charge
O1    O     O_R   0.064270 0.537190 0.435730 -0.597226
O2    O     O_R   0.935730 0.537190 0.564270 -0.598609
O3    O     O_R   0.564270 0.037190 0.435730 -0.597828
O4    O     O_R   0.435730 0.037190 0.564270 -0.597767
O5    O     O_R   0.064260 0.462790 0.435740 -0.556788
O6    O     O_R   0.935740 0.462790 0.564260 -0.554895
O7    O     O_R   0.564260 0.962790 0.435740 -0.555407
O8    O     O_R   0.435740 0.962790 0.564260 -0.555434
C1    C     C_R   0.085046 0.499961 0.414951 0.731145
C2    C     C_R   0.914972 0.499959 0.585041 0.734715
C3    C     C_R   0.585032 0.999970 0.414940 0.731952
C4    C     C_R   0.414968 0.999957 0.585056 0.732065
O9    O     O_R   0.000000 0.537190 0.590180 -0.605422
O10   O     O_R   1.000000 0.537190 0.409820 -0.604446
O11   O     O_R   0.500000 0.037190 0.590180 -0.605433
O12   O     O_R   0.500000 0.037190 0.409820 -0.605399
O13   O     O_R   0.999990 0.462790 0.590190 -0.525849
O14   O     O_R   0.000010 0.462790 0.409810 -0.527775
O15   O     O_R   0.499990 0.962790 0.590190 -0.525960
O16   O     O_R   0.500010 0.962790 0.409810 -0.526068
C5    C     C_R   0.999216 0.500119 0.619653 0.819649
C6    C     C_R   0.001092 0.500095 0.380126 0.822290
C7    C     C_R   0.499173 0.000118 0.619681 0.819879
C8    C     C_R   0.500846 0.000099 0.380303 0.819910
Cu1   Cu    Cu3+1 0.000000 0.544040 0.500000 1.006618
Cu2   Cu    Cu3+1 0.500000 0.044040 0.500000 1.004356
Cu3   Cu    Cu3+1 1.000000 0.455940 0.500000 1.111266
Cu4   Cu    Cu3+1 0.500000 0.955940 0.500000 1.113307
H1    H     H_    0.842062 0.610702 0.753382 0.156865
H2    H     H_    0.165273 0.601643 0.237567 0.156924
H3    H     H_    0.340670 0.108954 0.755024 0.156181
H4    H     H_    0.659678 0.108619 0.244705 0.157164
C9    C     C_R   0.910035 0.614077 0.713560 0.037302
C10   C     C_R   0.097012 0.607997 0.280057 0.039590
C11   C     C_R   0.408701 0.112928 0.714731 0.038040
C12   C     C_R   0.591640 0.112696 0.285082 0.037717
C13   C     C_R   0.943155 0.593011 0.713969 -0.083420
C14   C     C_R   0.062532 0.588670 0.281594 -0.093302
C15   C     C_R   0.442080 0.092211 0.714803 -0.085396
C16   C     C_R   0.558200 0.092034 0.285065 -0.085658
H5    H     H_    0.975772 0.607340 0.683762 0.181816
H6    H     H_    0.030571 0.604468 0.312214 0.183719
H7    H     H_    0.474577 0.106831 0.684519 0.181885
H8    H     H_    0.525736 0.106708 0.315361 0.182019
C17   C     C_R   0.934747 0.552648 0.751645 0.032884
C18   C     C_R   0.068774 0.548310 0.245033 0.021142
C19   C     C_R   0.434084 0.051847 0.752277 0.031137
C20   C     C_R   0.566093 0.051661 0.247621 0.030495
C21   C     C_R   0.891965 0.534738 0.793373 0.397948
C22   C     C_R   0.110754 0.528560 0.202660 0.405542
C23   C     C_R   0.391448 0.033573 0.794127 0.399493
C24   C     C_R   0.608689 0.033320 0.205748 0.399498
C25   C     C_R   0.858950 0.555924 0.793474 -0.168952
C26   C     C_R   0.145199 0.548183 0.200207 -0.169870
C27   C     C_R   0.358160 0.054444 0.794646 -0.169963
C28   C     C_R   0.642041 0.054142 0.205158 -0.169069
H9    H     H_    0.826119 0.542072 0.824958 0.176436
H10   H     H_    0.177456 0.533012 0.167974 0.177321
H11   H     H_    0.325435 0.040330 0.826268 0.176178
H12   H     H_    0.674737 0.039981 0.173508 0.176725
C29   C     C_R   0.868016 0.595051 0.753120 -0.257266
C30   C     C_R   0.138272 0.587319 0.239434 -0.262197
C31   C     C_R   0.366823 0.093570 0.754483 -0.258764
C32   C     C_R   0.633478 0.093277 0.245293 -0.257873
C33   C     C_R   0.973755 0.532175 0.809679 -0.014084
C34   C     C_R   0.028423 0.530306 0.188405 -0.011215
C35   C     C_R   0.473354 0.031842 0.810037 -0.013330
C36   C     C_R   0.526752 0.031746 0.189913 -0.013489
C37   C     C_R   0.001166 0.501884 0.813011 -0.199815
C38   C     C_R   0.998578 0.502336 0.187517 -0.203987
C39   C     C_R   0.501226 0.001968 0.812903 -0.200755
C40   C     C_R   0.498777 0.001950 0.187107 -0.200891
C41   C     C_R   0.028078 0.472108 0.752851 -0.055726
C42   C     C_R   0.968812 0.475347 0.250807 -0.058912
C43   C     C_R   0.528694 0.972691 0.752136 -0.056107
C44   C     C_R   0.471220 0.972734 0.247926 -0.056172
C45   C     C_R   0.028843 0.473403 0.688022 0.342075
C46   C     C_R   0.968973 0.476103 0.314745 0.336790
C47   C     C_R   0.529289 0.973903 0.687468 0.340931
C48   C     C_R   0.470669 0.973916 0.312556 0.340728
C49   C     C_R   0.999315 0.500805 0.686584 -0.180636
C50   C     C_R   0.000968 0.500743 0.313368 -0.174134
C51   C     C_R   0.499286 0.000806 0.686571 -0.179602
C52   C     C_R   0.500758 0.000747 0.313393 -0.179289
C53   C     C_R   0.970589 0.529299 0.748327 -0.018349
C54   C     C_R   0.031581 0.527108 0.249708 -0.019451
C55   C     C_R   0.470193 0.028908 0.748690 -0.018541
C56   C     C_R   0.529922 0.028790 0.251241 -0.018524
C57   C     C_R   0.095686 0.444586 0.737460 -0.011112
C58   C     C_R   0.897202 0.459628 0.271294 -0.012424
C59   C     C_R   0.596990 0.947253 0.736375 -0.010669
C60   C     C_R   0.402760 0.947672 0.263857 -0.010790
H13   H     H_    0.109422 0.477421 0.720514 0.177266
H14   H     H_    0.889012 0.494189 0.283884 0.174088
H15   H     H_    0.609742 0.980479 0.720366 0.176909
H16   H     H_    0.390214 0.980967 0.279723 0.176787
C61   C     C_R   0.120529 0.410026 0.737281 0.028707
C62   C     C_R   0.867109 0.430113 0.275447 0.031989
C63   C     C_R   0.622692 0.913567 0.735943 0.028977
C64   C     C_R   0.376838 0.914133 0.264475 0.029152
C65   C     C_R   0.102707 0.367429 0.756737 -0.310574
C66   C     C_R   0.877815 0.385282 0.261229 -0.302449
C67   C     C_R   0.606136 0.870471 0.754297 -0.308752
C68   C     C_R   0.393122 0.870945 0.246320 -0.308692
H17   H     H_    0.121943 0.340546 0.755811 0.128877
H18   H     H_    0.854458 0.362266 0.265379 0.132136
H19   H     H_    0.626051 0.844254 0.753134 0.129718
H20   H     H_    0.373034 0.844842 0.247636 0.129883
C69   C     C_R   0.060233 0.359260 0.777356 0.045158
C70   C     C_R   0.918184 0.369843 0.242787 0.020730
C71   C     C_R   0.564129 0.860921 0.773810 0.043976
C72   C     C_R   0.435072 0.861158 0.226836 0.043800
C73   C     C_R   0.035369 0.394263 0.779047 -0.080239
C74   C     C_R   0.948535 0.399870 0.236571 -0.067646
C75   C     C_R   0.538339 0.895074 0.775948 -0.078812
C76   C     C_R   0.461091 0.895166 0.224488 -0.078482
H21   H     H_    0.002683 0.388408 0.794106 0.190228
H22   H     H_    0.979816 0.388435 0.222533 0.190750
H23   H     H_    0.505950 0.888172 0.790386 0.189796
H24   H     H_    0.493439 0.888081 0.210066 0.189724
C77   C     C_R   0.053040 0.436822 0.758829 0.057405
C78   C     C_R   0.938169 0.444713 0.250700 0.068369
C79   C     C_R   0.554688 0.938152 0.757082 0.059279
C80   C     C_R   0.445016 0.938337 0.243145 0.059502
C81   C     C_R   0.203810 0.473372 0.256220 -0.093332
C82   C     C_R   0.796245 0.474322 0.744973 -0.091648
C83   C     C_R   0.703763 0.974160 0.255227 -0.092114
C84   C     C_R   0.296228 0.974162 0.744802 -0.092062
H25   H     H_    0.222853 0.452783 0.205966 0.192474
H26   H     H_    0.777206 0.454424 0.796086 0.192974
H27   H     H_    0.722797 0.954089 0.204312 0.192927
H28   H     H_    0.277185 0.954136 0.795757 0.192845
C85   C     C_R   0.157721 0.472349 0.301682 -0.060174
C86   C     C_R   0.842338 0.473335 0.699514 -0.062767
C87   C     C_R   0.657670 0.973140 0.300703 -0.062082
C88   C     C_R   0.342321 0.973155 0.699327 -0.062087
C89   C     C_R   0.133528 0.499865 0.367058 -0.165322
C90   C     C_R   0.866518 0.499883 0.632965 -0.166089
C91   C     C_R   0.633494 0.999919 0.366994 -0.166478
C92   C     C_R   0.366507 0.999878 0.632988 -0.166408
C93   C     C_R   0.156285 0.527128 0.386396 -0.021757
C94   C     C_R   0.843802 0.526199 0.612478 -0.019029
C95   C     C_R   0.656227 0.026498 0.387196 -0.020399
C96   C     C_R   0.343787 0.026382 0.612730 -0.019971
C97   C     C_R   0.202426 0.527561 0.338954 -0.064736
C98   C     C_R   0.797658 0.526585 0.659842 -0.061280
C99   C     C_R   0.702371 0.026920 0.339799 -0.061760
C100  C     C_R   0.297644 0.026793 0.660122 -0.062764
H29   H     H_    0.220421 0.547869 0.352967 0.192793
H30   H     H_    0.779682 0.546174 0.644979 0.193463
H31   H     H_    0.720355 0.046700 0.354465 0.193302
H32   H     H_    0.279669 0.046521 0.645419 0.192936
C101  C     C_R   0.225924 0.500780 0.274616 0.058229
C102  C     C_R   0.774128 0.500707 0.725320 0.057444
C103  C     C_R   0.725886 0.000815 0.274585 0.057707
C104  C     C_R   0.274116 0.000748 0.725391 0.057625
C105  C     C_R   0.298038 0.519779 0.156214 -0.205776
C106  C     C_R   0.701998 0.519648 0.843801 -0.204880
C107  C     C_R   0.798040 0.019776 0.156172 -0.204445
C108  C     C_R   0.201982 0.019737 0.843815 -0.207338
H33   H     H_    0.281149 0.536208 0.136077 0.177067
H34   H     H_    0.718897 0.536081 0.863949 0.177790
H35   H     H_    0.781167 0.036228 0.136025 0.178045
H36   H     H_    0.218874 0.036199 0.863952 0.176663
C109  C     C_R   0.343820 0.519043 0.110372 -0.185577
C110  C     C_R   0.656215 0.518952 0.889635 -0.185981
C111  C     C_R   0.843821 0.019050 0.110357 -0.181974
C112  C     C_R   0.156200 0.019031 0.889634 -0.184648
H37   H     H_    0.361627 0.535358 0.055566 0.211761
H38   H     H_    0.638430 0.535281 0.944441 0.211648
H39   H     H_    0.861635 0.035381 0.055564 0.213503
H40   H     H_    0.138405 0.035384 0.944420 0.212816
C113  C     C_R   0.366453 0.498142 0.135278 -0.180764
C114  C     C_R   0.633553 0.498087 0.864718 -0.180591
C115  C     C_R   0.866447 0.998145 0.135269 -0.181027
C116  C     C_R   0.133550 0.998119 0.864730 -0.180344
C117  C     C_R   0.342367 0.476911 0.207055 0.324210
C118  C     C_R   0.657612 0.476826 0.792952 0.324806
C119  C     C_R   0.842352 0.976887 0.207020 0.324028
C120  C     C_R   0.157620 0.976830 0.792990 0.323567
C121  C     C_R   0.296108 0.478143 0.253509 0.375451
C122  C     C_R   0.703877 0.478009 0.746499 0.374945
C123  C     C_R   0.796090 0.978099 0.253451 0.375082
C124  C     C_R   0.203884 0.978021 0.746556 0.374942
C125  C     C_R   0.274104 0.499847 0.227874 -0.062970
C126  C     C_R   0.725924 0.499715 0.772114 -0.062357
C127  C     C_R   0.774083 0.999830 0.227831 -0.063200
C128  C     C_R   0.225917 0.999764 0.772163 -0.061980
O17   O     O_R   0.962800 0.435700 0.037190 -0.583800
O18   O     O_R   0.037200 0.435700 0.962810 -0.580707
O19   O     O_R   0.462800 0.935700 0.037190 -0.583048
O20   O     O_R   0.537200 0.935700 0.962810 -0.582947
C129  C     C_R   0.999997 0.414891 0.000434 0.788206
C130  C     C_R   0.499993 0.914890 0.000012 0.783579
O21   O     O_R   0.962790 0.499970 0.947030 -0.563641
O22   O     O_R   0.037210 0.499970 0.052970 -0.562208
O23   O     O_R   0.462790 0.999970 0.947030 -0.563160
O24   O     O_R   0.537210 0.999970 0.052970 -0.563052
O25   O     O_R   0.037190 0.499990 0.872630 -0.587320
O26   O     O_R   0.962810 0.499990 0.127370 -0.589457
O27   O     O_R   0.537190 0.999990 0.872630 -0.587720
O28   O     O_R   0.462810 0.999990 0.127370 -0.587814
C131  C     C_R   0.000344 0.500139 0.880822 0.784228
C132  C     C_R   0.999595 0.500309 0.119340 0.786352
C133  C     C_R   0.500356 0.000171 0.880792 0.784514
C134  C     C_R   0.499643 0.000165 0.119212 0.784540
Cu5   Cu    Cu3+1 0.955940 0.499960 0.044050 1.016867
Cu6   Cu    Cu3+1 0.044060 0.499960 0.955950 1.024479
Cu7   Cu    Cu3+1 0.455940 0.999960 0.044050 1.020858
Cu8   Cu    Cu3+1 0.544060 0.999960 0.955950 1.021367
O29   O     O_R   0.962790 0.564230 0.037210 -0.586137
O30   O     O_R   0.037210 0.564230 0.962790 -0.586845
O31   O     O_R   0.462790 0.064230 0.037210 -0.586336
O32   O     O_R   0.537210 0.064230 0.962790 -0.586242
C135  C     C_R   0.000006 0.585129 0.999993 0.765013
C136  C     C_R   0.500006 0.085129 0.999987 0.764712
O33   O     O_R   0.499980 0.435740 0.052200 -0.578244
O34   O     O_R   0.500020 0.435740 0.947800 -0.578331
O35   O     O_R   0.999980 0.935740 0.052200 -0.578729
O36   O     O_R   0.000020 0.935740 0.947800 -0.578383
C137  C     C_R   0.500003 0.414916 0.999983 0.794016
C138  C     C_R   0.000002 0.914916 0.999983 0.794092
O37   O     O_R   0.435720 0.500010 0.116470 -0.535967
O38   O     O_R   0.564280 0.500010 0.883530 -0.536030
O39   O     O_R   0.935720 0.000010 0.116470 -0.536620
O40   O     O_R   0.064280 0.000010 0.883530 -0.536845
O41   O     O_R   0.435720 0.500010 0.012080 -0.577867
O42   O     O_R   0.564280 0.500010 0.987920 -0.577844
O43   O     O_R   0.935720 0.000010 0.012080 -0.577774
O44   O     O_R   0.064280 0.000010 0.987920 -0.576821
C139  C     C_R   0.414921 0.499040 0.085585 0.846761
C140  C     C_R   0.585080 0.499029 0.914413 0.846808
C141  C     C_R   0.914919 0.999044 0.085585 0.849662
C142  C     C_R   0.085080 0.999039 0.914415 0.850250
Cu9   Cu    Cu3+1 0.499990 0.500000 0.061810 1.109028
Cu10  Cu    Cu3+1 0.500010 0.500000 0.938190 1.108688
Cu11  Cu    Cu3+1 0.999990 0.000000 0.061810 1.106917
Cu12  Cu    Cu3+1 0.000010 0.000000 0.938190 1.106192
O45   O     O_R   0.500000 0.564270 0.052190 -0.539287
O46   O     O_R   0.500000 0.564270 0.947810 -0.539300
O47   O     O_R   0.000000 0.064270 0.052190 -0.535893
O48   O     O_R   1.000000 0.064270 0.947810 -0.545550
C143  C     C_R   0.499992 0.585070 0.000022 0.877059
C144  C     C_R   0.000164 0.085023 0.999850 0.888153
C145  C     C_R   0.039079 0.297555 0.950965 -0.127474
C146  C     C_R   0.960823 0.297736 0.053021 -0.137027
C147  C     C_R   0.460583 0.797658 0.049594 -0.186980
C148  C     C_R   0.539318 0.797646 0.950584 -0.188411
H41   H     H_    0.069495 0.279989 0.911274 0.118847
H42   H     H_    0.930405 0.280266 0.093139 0.123746
H43   H     H_    0.429976 0.780110 0.088236 0.134041
H44   H     H_    0.569912 0.780090 0.911966 0.134369
C149  C     C_R   0.039330 0.343328 0.951826 -0.164789
C150  C     C_R   0.960724 0.343501 0.051933 -0.177745
C151  C     C_R   0.460444 0.843417 0.048533 -0.172271
C152  C     C_R   0.539491 0.843406 0.951594 -0.172386
H45   H     H_    0.070151 0.360415 0.912928 0.157153
H46   H     H_    0.930026 0.360704 0.091232 0.153272
H47   H     H_    0.429513 0.860549 0.086342 0.159611
H48   H     H_    0.570435 0.860531 0.913780 0.159780
C153  C     C_R   0.000007 0.366656 0.001356 -0.018470
C154  C     C_R   0.499976 0.866656 0.000045 -0.014104
C155  C     C_R   0.999789 0.274565 0.001449 0.182057
C156  C     C_R   0.499941 0.774618 0.000101 0.113450
C157  C     C_R   0.478872 0.703022 0.973301 -0.093926
C158  C     C_R   0.520982 0.703080 0.026979 -0.093703
C159  C     C_R   0.975787 0.202958 0.979971 -0.130668
C160  C     C_R   0.024985 0.202761 0.019734 -0.052567
C161  C     C_R   0.476140 0.656820 0.979088 0.347246
C162  C     C_R   0.523752 0.656879 0.021136 0.347074
C163  C     C_R   0.973956 0.156679 0.984294 0.350197
C164  C     C_R   0.027053 0.156600 0.014602 0.246647
C165  C     C_R   0.499962 0.633615 0.000083 -0.249545
C166  C     C_R   0.000416 0.133487 0.999572 -0.204041
C167  C     C_R   0.499927 0.726150 0.000136 -0.186766
C168  C     C_R   0.999612 0.226035 0.001564 -0.135162
C169  C     C_R   0.959645 0.702734 0.035768 -0.021245
C170  C     C_R   0.040409 0.702759 0.963916 -0.020809
C171  C     C_R   0.459658 0.202735 0.035653 -0.020609
C172  C     C_R   0.540403 0.202756 0.964100 -0.020862
C173  C     C_R   0.960392 0.656735 0.035042 -0.250316
C174  C     C_R   0.039650 0.656759 0.964741 -0.253042
C175  C     C_R   0.460404 0.156737 0.034917 -0.251338
C176  C     C_R   0.539643 0.156756 0.964916 -0.251304
H49   H     H_    0.929661 0.638813 0.062216 0.164002
H50   H     H_    0.070377 0.638855 0.937598 0.163164
H51   H     H_    0.429680 0.138815 0.061968 0.163419
H52   H     H_    0.570360 0.138849 0.937893 0.163521
C177  C     C_R   0.000017 0.633574 0.999928 -0.028285
C178  C     C_R   0.500019 0.133574 0.999942 -0.028512
C179  C     C_R   0.000029 0.726138 0.999829 0.024962
C180  C     C_R   0.500035 0.226137 0.999862 0.024858
C181  C     C_R   0.497710 0.297348 0.057908 -0.055652
C182  C     C_R   0.502357 0.297336 0.941872 -0.055423
C183  C     C_R   0.997744 0.797343 0.057854 -0.056142
C184  C     C_R   0.002308 0.797342 0.941895 -0.054853
H53   H     H_    0.495900 0.279710 0.102925 0.139848
H54   H     H_    0.504172 0.279687 0.896833 0.139748
H55   H     H_    0.995964 0.779700 0.102838 0.139412
H56   H     H_    0.004092 0.779698 0.896882 0.140125
C185  C     C_R   0.497726 0.343179 0.057960 -0.125336
C186  C     C_R   0.502318 0.343168 0.941887 -0.125455
C187  C     C_R   0.997761 0.843174 0.057915 -0.125382
C188  C     C_R   0.002273 0.843173 0.941917 -0.125267
H57   H     H_    0.495866 0.360272 0.103449 0.174133
H58   H     H_    0.504168 0.360254 0.896425 0.174001
H59   H     H_    0.995934 0.860263 0.103376 0.173886
H60   H     H_    0.004093 0.860263 0.896487 0.174129
C189  C     C_R   0.500014 0.366514 0.999943 -0.039364
C190  C     C_R   0.000011 0.866514 0.999938 -0.039171
C191  C     C_R   0.500038 0.274403 0.999875 0.189790
C192  C     C_R   0.000030 0.774403 0.999855 0.189691
C193  C     C_2   0.042600 0.313930 0.795790 0.400144
H61   H     H_    0.062660 0.287100 0.792594 0.068988
O49   O     O_2   0.005547 0.305939 0.814827 -0.507969
C194  C     C_2   0.927712 0.322196 0.231770 0.433698
H62   H     H_    0.904020 0.299534 0.236083 0.060418
O50   O     O_2   0.961948 0.307609 0.218035 -0.456730
C195  C     C_2   0.547985 0.815051 0.790512 0.411999
H63   H     H_    0.568604 0.788949 0.787620 0.071307
O51   O     O_2   0.511576 0.805790 0.807626 -0.508242
C196  C     C_2   0.450911 0.815192 0.210400 0.411840
H64   H     H_    0.430095 0.789203 0.213537 0.071210
O52   O     O_2   0.487285 0.805726 0.193221 -0.508454
C197  C     C_2   0.135845 0.443249 0.278292 0.474018
H65   H     H_    0.101568 0.447860 0.301064 0.088235
O53   O     O_2   0.156203 0.413805 0.231976 -0.469675
C198  C     C_2   0.864290 0.445158 0.723802 0.480177
H66   H     H_    0.898736 0.449677 0.700008 0.086776
O54   O     O_2   0.843846 0.416565 0.771892 -0.469054
C199  C     C_2   0.635724 0.944715 0.276635 0.479374
H67   H     H_    0.601312 0.949232 0.300225 0.087184
O55   O     O_2   0.656145 0.915925 0.228931 -0.468911
C200  C     C_2   0.364257 0.944798 0.723435 0.479458
H68   H     H_    0.398677 0.949326 0.699809 0.087212
O56   O     O_2   0.343821 0.916050 0.771208 -0.469044
C201  C     C_2   0.132756 0.553247 0.458063 0.435788
H69   H     H_    0.098366 0.547116 0.503425 0.096247
O57   O     O_2   0.151827 0.581734 0.467933 -0.518839
C202  C     C_2   0.867408 0.551372 0.539828 0.441226
H70   H     H_    0.901991 0.545553 0.495259 0.098500
O58   O     O_2   0.848207 0.578713 0.528253 -0.518619
C203  C     C_2   0.632645 0.051902 0.459623 0.437532
H71   H     H_    0.598124 0.045942 0.504429 0.095807
O59   O     O_2   0.651802 0.079599 0.470742 -0.518747
C204  C     C_2   0.367383 0.051720 0.540253 0.437608
H72   H     H_    0.401909 0.045771 0.495480 0.095937
O60   O     O_2   0.348234 0.079346 0.529057 -0.519136
Cl1   Cl    Cl    0.369136 0.446314 0.237945 -0.472817
Cl2   Cl    Cl    0.630790 0.446243 0.762084 -0.474524
Cl3   Cl    Cl    0.869123 0.946274 0.237892 -0.473599
Cl4   Cl    Cl    0.130812 0.946205 0.762139 -0.473570
C205  C     C_2   0.918835 0.655694 0.671744 0.412096
H73   H     H_    0.892776 0.671413 0.672192 0.080731
O61   O     O_2   0.955170 0.672906 0.636230 -0.508440
C206  C     C_2   0.090444 0.649536 0.320826 0.415222
H74   H     H_    0.117541 0.663910 0.318816 0.081289
O62   O     O_2   0.054813 0.668168 0.357235 -0.510056
C207  C     C_2   0.417082 0.154525 0.673082 0.412553
H75   H     H_    0.390824 0.169977 0.673809 0.080736
O63   O     O_2   0.453290 0.172015 0.637388 -0.509365
C208  C     C_2   0.583364 0.154299 0.326706 0.413197
H76   H     H_    0.609668 0.169708 0.325935 0.081132
O64   O     O_2   0.547193 0.171841 0.362431 -0.509400
Cl5   Cl    Cl    0.265634 0.451240 0.342815 -0.455514
Cl6   Cl    Cl    0.734281 0.450946 0.657310 -0.458571
Cl7   Cl    Cl    0.765631 0.951062 0.342640 -0.455973
Cl8   Cl    Cl    0.234309 0.950942 0.657384 -0.456244
C209  C     C_2   0.460544 0.727271 0.938063 0.523383
H77   H     H_    0.450234 0.761219 0.952518 0.087574
O65   O     O_2   0.458491 0.710170 0.889467 -0.424216
C210  C     C_2   0.539267 0.727394 0.062282 0.524256
H78   H     H_    0.549483 0.761377 0.047966 0.087518
O66   O     O_2   0.541383 0.710306 0.110791 -0.424285
C211  C     C_2   0.954323 0.227234 0.950214 0.515075
H79   H     H_    0.944091 0.261107 0.965734 0.074416
O67   O     O_2   0.949539 0.210246 0.904694 -0.421249
C212  C     C_2   0.049603 0.225992 0.044296 0.467919
H80   H     H_    0.080307 0.212739 0.030365 0.126125
O68   O     O_2   0.035263 0.259533 0.082392 -0.468341
Cl9   Cl    Cl    0.439205 0.628369 0.967461 -0.523608
Cl10  Cl    Cl    0.560695 0.628505 0.032759 -0.523330
Cl11  Cl    Cl    0.934975 0.127841 0.978387 -0.529630
Cl12  Cl    Cl    0.063486 0.127648 0.026826 -0.611553
C213  C     C_2   0.915641 0.724138 0.075096 0.392514
H81   H     H_    0.886445 0.703840 0.099630 0.096555
O69   O     O_2   0.910924 0.763980 0.081281 -0.512270
C214  C     C_2   0.084417 0.724193 0.924540 0.391116
H82   H     H_    0.113605 0.703919 0.900104 0.095785
O70   O     O_2   0.089147 0.764033 0.918195 -0.512160
C215  C     C_2   0.415665 0.224142 0.074835 0.391355
H83   H     H_    0.386483 0.203847 0.099184 0.095606
O71   O     O_2   0.410941 0.263982 0.081114 -0.512588
C216  C     C_2   0.584403 0.224187 0.924886 0.391707
H84   H     H_    0.613576 0.203912 0.900609 0.096001
O72   O     O_2   0.589142 0.264025 0.918492 -0.512378
Cl13  Cl    Cl    0.878522 0.486786 0.848428 -0.556840
Cl14  Cl    Cl    0.121402 0.480107 0.149939 -0.546864
Cl15  Cl    Cl    0.378532 0.985530 0.848770 -0.555431
Cl16  Cl    Cl    0.621476 0.985248 0.151171 -0.554534
C217  C     C_2   0.950561 0.567604 0.868759 0.449915
H85   H     H_    0.962631 0.577291 0.901368 0.050561
O73   O     O_2   0.918132 0.586551 0.881978 -0.511251
C218  C     C_2   0.053660 0.564426 0.127519 0.452891
H86   H     H_    0.041273 0.576081 0.096331 0.049719
O74   O     O_2   0.088131 0.580053 0.111200 -0.508130
C219  C     C_2   0.449768 0.067030 0.869473 0.450097
H87   H     H_    0.461913 0.077080 0.901814 0.050350
O75   O     O_2   0.416930 0.085363 0.883292 -0.511357
C220  C     C_2   0.550420 0.066901 0.130460 0.450597
H88   H     H_    0.538243 0.077044 0.098229 0.050210
O76   O     O_2   0.583367 0.085095 0.116497 -0.510509
Cl17  Cl    Cl    0.068030 0.440885 0.607803 -0.554220
Cl18  Cl    Cl    0.927680 0.446822 0.397892 -0.563581
Cl19  Cl    Cl    0.568897 0.941989 0.606675 -0.555427
Cl20  Cl    Cl    0.430996 0.942078 0.393401 -0.555810
C221  C     C_2   0.165315 0.417681 0.715966 0.420749
H89   H     H_    0.184092 0.390477 0.715685 0.081400
O77   O     O_2   0.181796 0.454325 0.698591 -0.499886
C222  C     C_2   0.824155 0.445413 0.295536 0.419090
H90   H     H_    0.801221 0.422024 0.298978 0.084454
O78   O     O_2   0.813823 0.484195 0.308396 -0.502758
C223  C     C_2   0.667072 0.922670 0.715518 0.419502
H91   H     H_    0.686543 0.896125 0.714984 0.081923
O79   O     O_2   0.682442 0.959791 0.699166 -0.500943
C224  C     C_2   0.332505 0.923487 0.284902 0.419401
H92   H     H_    0.312854 0.897051 0.285606 0.082234
O80   O     O_2   0.317374 0.960696 0.301068 -0.501345

loop_
_geom_bond_atom_site_label_1
_geom_bond_atom_site_label_2
_geom_bond_distance
_ccdc_geom_bond_type
C63   C67   1.403580 A    
C85   C89   1.422176 A    
C152  C154  1.403674 A    
O24   C134  1.291977 A    
O39   Cu11  1.965522 S    
C94   C98   1.400874 A    
C196  O52   1.220987 D    
C68   H20   1.084123 S    
C88   C92   1.421655 A    
O9    Cu1   1.973429 S    
C201  H69   1.083712 S    
C87   C91   1.421682 A    
C170  C179  1.421914 A    
C13   H5    1.083713 S    
C6    C50   1.455552 S    
C222  H90   1.085593 S    
C182  H54   1.083274 S    
C27   H11   1.082716 S    
C88   C200  1.487172 S    
O21   C131  1.291402 A    
C64   C68   1.403565 A    
C210  H78   1.081991 S    
C169  C173  1.398698 A    
C113  C139  1.471627 S    
C98   H30   1.084121 S    
C124  Cl8   1.769080 S    
C150  C153  1.403329 A    
C38   C42   1.415187 A    
O48   C144  1.299226 A    
C171  C175  1.398700 A    
O22   C132  1.294096 A    
C99   C103  1.394049 A    
C93   C97   1.400802 A    
C176  C178  1.398902 A    
C163  Cl11  1.776488 S    
O36   Cu12  1.965000 S    
C205  O61   1.221185 D    
C109  H37   1.083456 S    
C110  C114  1.402786 A    
C75   C79   1.401272 A    
C202  H70   1.083650 S    
C122  Cl6   1.769121 S    
C40   C134  1.459342 S    
O16   Cu4   1.973427 S    
C62   C66   1.403094 A    
C145  C149  1.391871 A    
O13   C5    1.295054 A    
O7    Cu4   1.961988 S    
C194  H62   1.085488 S    
C44   C80   1.481829 S    
C188  C190  1.406096 A    
C93   C201  1.488465 S    
C46   C50   1.402411 A    
O4    Cu2   1.962294 S    
C98   C102  1.394142 A    
C185  H57   1.082806 S    
C158  C167  1.416910 A    
Cu6   O30   1.965119 S    
O9    C5    1.288746 A    
O20   Cu8   1.964704 S    
C118  C122  1.405041 A    
C112  C116  1.402806 A    
C82   C102  1.392714 A    
Cu12  O48   1.965059 S    
C36   C220  1.499624 S    
C47   Cl19  1.777254 S    
O8    Cu4   1.962130 S    
C48   Cl20  1.777261 S    
C13   C17   1.404430 A    
C15   C19   1.404430 A    
C149  C153  1.403654 A    
C16   C20   1.404431 A    
C170  C214  1.491092 S    
C130  C154  1.466479 S    
O3    Cu2   1.962429 S    
C52   C56   1.416868 A    
C202  O58   1.221370 D    
C21   Cl13  1.761247 S    
C15   H7    1.083710 S    
C211  H79   1.081366 S    
C71   C195  1.478062 S    
C186  H58   1.082807 S    
C61   C221  1.477864 S    
O35   Cu11  1.964781 S    
C60   C80   1.401566 A    
O19   C130  1.294564 A    
C103  C127  1.464406 S    
C72   C196  1.478074 S    
C34   C38   1.417110 A    
C136  C178  1.472867 S    
C107  C111  1.390128 A    
O44   C142  1.301354 A    
C23   C27   1.398117 A    
C108  C112  1.390130 A    
C83   H27   1.084211 S    
O3    C3    1.295508 A    
C216  H84   1.085837 S    
C84   C104  1.392654 A    
C35   C219  1.499655 S    
C81   H25   1.084224 S    
C20   C24   1.408794 A    
C82   C86   1.400014 A    
C9    C29   1.402297 A    
C207  H75   1.085590 S    
C41   C45   1.394447 A    
O45   C143  1.299872 A    
C2    C90   1.471327 S    
C212  H80   1.083997 S    
C12   C32   1.402243 A    
C43   C47   1.394572 A    
C148  H44   1.083337 S    
C19   C55   1.487642 S    
C213  O69   1.220170 D    
O41   C139  1.301364 A    
C195  O51   1.220975 D    
C159  C211  1.494780 S    
O33   Cu9   1.964781 S    
C217  H85   1.084598 S    
C102  C126  1.464574 S    
C57   C77   1.401360 A    
C67   C71   1.403007 A    
C105  C125  1.397068 A    
O32   C136  1.296172 A    
C193  O49   1.221036 D    
C208  H76   1.085590 S    
C60   H16   1.083687 S    
C107  C127  1.397207 A    
C197  O53   1.221465 D    
C157  C161  1.408649 A    
C117  Cl1   1.769723 S    
O5    Cu3   1.961988 S    
C91   C95   1.421277 A    
C182  C191  1.399140 A    
C160  C164  1.406380 A    
C119  Cl3   1.769726 S    
C214  H82   1.085838 S    
C115  C141  1.471736 S    
C27   C31   1.396202 A    
C28   C32   1.396192 A    
C113  C117  1.416428 A    
C70   C74   1.404103 A    
C63   C223  1.477907 S    
O26   C132  1.288239 A    
C161  Cl9   1.776416 S    
C33   C217  1.499765 S    
C59   C79   1.401545 A    
Cu11  Cu12  2.689505 S    
C144  C166  1.473458 S    
C1    C89   1.472213 S    
C221  O77   1.221190 D    
O7    C3    1.294232 A    
C175  C178  1.398909 A    
H1    C29   1.083251 S    
O13   Cu3   1.973204 S    
H3    C31   1.083254 S    
C218  H86   1.084880 S    
H4    C32   1.083254 S    
C105  C109  1.390122 A    
C68   C72   1.403019 A    
C200  H68   1.083179 S    
C41   C77   1.481527 S    
C85   C197  1.487321 S    
C138  C190  1.471577 S    
C172  C216  1.491083 S    
C76   H24   1.083825 S    
C45   Cl17  1.777252 S    
O20   C130  1.294552 A    
O22   Cu6   1.970014 S    
C99   H31   1.084121 S    
O5    C1    1.294196 A    
C204  O60   1.221373 D    
C183  C192  1.399124 A    
O30   C135  1.296174 A    
C39   C133  1.459227 S    
O8    C4    1.294259 A    
C160  C168  1.419317 A    
C206  O62   1.221180 D    
Cu7   Cu8   2.675387 S    
C96   C204  1.488605 S    
O15   Cu4   1.973204 S    
C164  Cl12  1.776399 S    
C220  H88   1.084670 S    
C24   Cl16  1.761317 S    
O19   Cu7   1.964845 S    
C73   H21   1.083832 S    
C110  H38   1.083454 S    
C75   H23   1.083830 S    
C203  O59   1.221371 D    
O4    C4    1.295464 A    
O28   Cu7   1.976630 S    
C181  C185  1.393401 A    
C145  C155  1.400634 A    
C72   C76   1.403320 A    
O34   C137  1.300027 A    
C183  C187  1.393404 A    
C112  H40   1.083451 S    
O18   Cu6   1.964704 S    
C215  O71   1.220171 D    
C114  C118  1.416417 A    
C118  Cl2   1.769741 S    
Cu10  O46   1.965059 S    
O14   C6    1.294202 A    
C100  H32   1.084121 S    
C198  H66   1.083200 S    
C34   C54   1.410751 A    
C67   H19   1.084133 S    
O1    Cu1   1.962429 S    
C37   C131  1.458501 S    
C169  C179  1.421905 A    
C147  H43   1.083338 S    
C162  Cl10  1.776394 S    
Cu11  O47   1.965278 S    
O47   C144  1.299104 A    
O10   C6    1.288039 A    
C222  O78   1.221201 D    
O35   C138  1.299987 A    
C114  C140  1.471789 S    
C117  C121  1.404903 A    
C152  H48   1.082416 S    
C186  C189  1.406089 A    
O25   Cu6   1.976636 S    
C210  O66   1.220747 D    
C219  O75   1.220155 D    
O43   C141  1.301358 A    
O24   Cu8   1.970014 S    
C14   C18   1.404436 A    
C21   C25   1.398098 A    
C64   C224  1.477925 S    
C149  H45   1.082270 S    
C188  H60   1.082806 S    
C73   C77   1.401391 A    
C38   C132  1.462495 S    
C164  C166  1.410857 A    
C171  C180  1.421905 A    
O27   C133  1.288609 A    
O44   Cu11  1.959958 S    
C59   C63   1.404987 A    
C49   C53   1.417256 A    
C209  O65   1.220750 D    
C163  C166  1.410667 A    
C51   C55   1.416934 A    
O23   C133  1.291915 A    
C48   C52   1.403537 A    
C205  H73   1.085594 S    
C223  O79   1.221197 D    
O41   Cu10  1.959964 S    
C22   C26   1.398167 A    
C7    C51   1.458159 S    
C108  H36   1.083668 S    
C111  C115  1.402817 A    
C83   C87   1.400006 A    
C84   C88   1.400022 A    
C146  H42   1.083320 S    
C224  H92   1.085576 S    
C82   H26   1.084205 S    
C65   C69   1.403048 A    
C10   C30   1.402044 A    
C194  O50   1.220794 D    
C122  C126  1.406660 A    
C3    C91   1.471548 S    
O42   Cu9   1.959958 S    
C145  H41   1.083259 S    
O18   C129  1.294359 A    
C159  C163  1.409147 A    
C157  C167  1.416891 A    
C62   C222  1.477981 S    
Cu9   Cu10  2.689505 S    
C4    C92   1.471517 S    
C37   C41   1.411688 A    
C23   Cl15  1.761305 S    
C143  C165  1.475901 S    
C94   C202  1.488673 S    
C11   C31   1.402253 A    
C196  H64   1.085489 S    
O25   C131  1.288734 A    
C162  C165  1.412044 A    
C106  C126  1.397266 A    
C201  O57   1.221375 D    
O37   C139  1.298214 A    
C58   H14   1.083727 S    
C9    C205  1.477648 S    
C104  C128  1.464442 S    
O12   Cu2   1.973211 S    
C137  C189  1.471580 S    
C159  C168  1.418534 A    
C175  H51   1.084059 S    
Cu5   Cu6   2.675387 S    
C44   C48   1.394635 A    
C176  H52   1.084056 S    
O1    C1    1.295945 A    
O33   C137  1.299971 A    
C90   C94   1.421222 A    
C83   C103  1.392635 A    
C25   H9    1.082729 S    
C19   C23   1.408788 A    
C146  C150  1.391662 A    
C50   C54   1.415552 A    
O46   C143  1.299832 A    
C9    C13   1.405783 A    
C28   H12   1.082711 S    
C35   C55   1.411143 A    
C11   C15   1.405784 A    
C199  H67   1.083182 S    
C123  C127  1.406592 A    
C10   C206  1.477623 S    
C17   C21   1.408732 A    
C169  C213  1.491098 S    
C216  O72   1.220173 D    
C42   C78   1.482526 S    
O26   Cu5   1.976630 S    
H2    C30   1.083285 S    
C115  C119  1.416386 A    
C43   C79   1.481799 S    
C66   C70   1.402889 A    
C212  O68   1.220533 D    
C105  H33   1.083684 S    
O42   C140  1.301398 A    
C106  C110  1.390124 A    
C213  H81   1.085839 S    
O31   C136  1.296123 A    
C89   C93   1.421590 A    
C76   C80   1.401294 A    
C69   C193  1.478331 S    
Cu9   O45   1.965278 S    
C46   Cl18  1.777656 S    
C92   C96   1.421264 A    
O40   C142  1.298272 A    
O6    C2    1.294245 A    
C111  H39   1.083446 S    
C120  Cl4   1.769728 S    
C26   C30   1.396037 A    
C34   C218  1.499241 S    
C161  C165  1.412033 A    
O39   C141  1.298274 A    
O38   Cu10  1.965522 S    
O34   Cu10  1.965000 S    
C180  C191  1.467427 S    
C47   C51   1.403605 A    
C193  H61   1.085468 S    
C208  O64   1.221188 D    
O17   Cu5   1.964845 S    
C33   C37   1.416291 A    
O2    Cu1   1.962294 S    
C35   C39   1.416428 A    
O10   Cu1   1.973211 S    
C181  H53   1.083276 S    
C197  H65   1.083102 S    
Cu7   O31   1.964977 S    
C182  C186  1.393439 A    
C195  H63   1.085480 S    
C181  C191  1.399114 A    
C184  H56   1.083272 S    
O21   Cu5   1.970012 S    
C214  O70   1.220174 D    
C42   C46   1.395038 A    
C100  C104  1.394063 A    
O43   Cu12  1.959964 S    
C97   H29   1.084138 S    
C147  C151  1.391502 A    
C20   C56   1.487662 S    
O29   C135  1.296127 A    
C203  H71   1.083695 S    
O40   Cu12  1.965522 S    
O15   C7    1.294885 A    
C96   C100  1.400853 A    
O36   C138  1.300008 A    
C221  H89   1.085592 S    
C215  H83   1.085838 S    
C95   C99   1.400857 A    
C172  C180  1.421916 A    
C101  C125  1.463851 S    
C184  C188  1.393430 A    
C218  O74   1.220135 D    
C14   H6    1.083658 S    
O38   C140  1.298260 A    
C200  O56   1.221472 D    
C150  H46   1.082708 S    
C109  C113  1.402869 A    
Cu5   O29   1.964977 S    
C116  C142  1.471727 S    
O16   C8    1.294904 A    
C148  C156  1.399954 A    
C184  C192  1.399130 A    
C219  H87   1.084650 S    
C45   C49   1.403828 A    
C220  O76   1.220157 D    
C147  C156  1.399935 A    
C36   C40   1.416450 A    
C97   C101  1.393741 A    
O11   C7    1.288624 A    
C185  C189  1.406087 A    
O12   C8    1.288551 A    
C57   H13   1.083631 S    
C58   C78   1.402166 A    
C70   C194  1.477542 S    
C25   C29   1.396240 A    
C84   H28   1.084206 S    
C217  O73   1.220152 D    
C81   C101  1.392308 A    
C119  C123  1.405012 A    
C211  O67   1.220707 D    
C65   H17   1.084162 S    
C151  H47   1.082422 S    
C156  C167  1.473593 S    
C12   C16   1.405785 A    
C198  O54   1.221476 D    
C158  C162  1.408713 A    
C223  H91   1.085578 S    
C121  C125  1.406339 A    
O11   Cu2   1.973429 S    
C187  H59   1.082805 S    
Cu8   O32   1.965119 S    
C12   C208  1.477641 S    
C129  C153  1.466654 S    
C124  C128  1.406605 A    
C57   C61   1.405036 A    
C17   C53   1.487556 S    
O17   C129  1.294815 A    
C174  C177  1.398905 A    
O6    Cu3   1.962130 S    
C151  C154  1.403682 A    
C16   H8    1.083709 S    
C40   C44   1.412481 A    
C207  O63   1.221189 D    
C22   Cl14  1.761488 S    
C199  O55   1.221474 D    
C74   H22   1.083754 S    
O37   Cu9   1.965522 S    
C187  C190  1.406081 A    
C116  C120  1.416378 A    
C135  C177  1.472882 S    
C5    C49   1.458732 S    
C174  H50   1.084059 S    
C11   C207  1.477649 S    
O28   C134  1.288622 A    
C36   C56   1.411094 A    
C107  H35   1.083667 S    
C108  C128  1.397223 A    
O2    C2    1.295366 A    
O27   Cu8   1.976636 S    
C120  C124  1.405015 A    
C158  C210  1.494098 S    
C60   C64   1.404965 A    
C209  H77   1.081976 S    
C26   H10   1.082675 S    
C81   C85   1.399885 A    
C87   C199  1.487178 S    
C179  C192  1.467418 S    
C10   C14   1.405793 A    
O14   Cu3   1.973427 S    
C172  C176  1.398726 A    
C86   C90   1.421542 A    
C86   C198  1.487158 S    
C148  C152  1.391495 A    
C33   C53   1.411259 A    
C69   C73   1.403207 A    
C183  H55   1.083275 S    
Cu1   Cu3   2.678519 S    
C18   C22   1.409000 A    
Cu2   Cu4   2.678519 S    
C171  C215  1.491095 S    
C157  C209  1.494032 S    
C8    C52   1.458043 S    
C39   C43   1.412362 A    
C204  H72   1.083694 S    
C224  O80   1.221201 D    
C206  H74   1.085600 S    
C66   H18   1.084136 S    
O23   Cu7   1.970012 S    
C106  H34   1.083666 S    
C74   C78   1.401412 A    
C160  C212  1.491702 S    
C59   H15   1.083669 S    
C95   C203  1.488594 S    
C155  C168  1.475492 S    
C170  C174  1.398725 A    
C121  Cl5   1.769031 S    
C71   C75   1.403288 A    
C123  Cl7   1.769079 S    
C58   C62   1.404559 A    
C61   C65   1.403652 A    
C146  C155  1.400681 A    
C24   C28   1.398123 A    
C173  C177  1.398919 A    
C18   C54   1.487948 S    
C173  H49   1.084062 S    
