data_mof_unit_48441.cif
_audit_creation_date              2012-12-11T14:44:36-0500
_audit_creation_method            fapswitch 2.2
_symmetry_space_group_name_H-M    P1
_symmetry_Int_Tables_number       1
_space_group_crystal_system       triclinic
_cell_length_a                    19.937799
_cell_length_b                    7.200275
_cell_length_c                    19.808646
_cell_angle_alpha                 89.97876
_cell_angle_beta                  98.461766
_cell_angle_gamma                 89.710729
_cell_volume                      2812.68921896

loop_
_atom_site_label
_atom_site_type_symbol
_atom_type_description
_atom_site_fract_x
_atom_site_fract_y
_atom_site_fract_z
_atom_type_partial_charge
O1    O     O_R   0.673210 0.377390 0.686390 -0.517937
O2    O     O_R   0.326790 0.622610 0.313610 -0.521128
O3    O     O_R   0.826790 0.877390 0.813610 -0.524493
O4    O     O_R   0.173210 0.122610 0.186390 -0.524075
O5    O     O_R   0.810750 0.706450 0.681250 -0.516275
O6    O     O_R   0.189250 0.293550 0.318750 -0.507878
O7    O     O_R   0.689250 0.206450 0.818750 -0.527873
O8    O     O_R   0.310750 0.793550 0.181250 -0.520857
C1    C     C_R   0.830031 0.538091 0.664479 0.845196
C2    C     C_R   0.170542 0.462261 0.336465 0.814012
C3    C     C_R   0.670248 0.038589 0.836342 0.801530
C4    C     C_R   0.330375 0.961477 0.164794 0.837845
O9    O     O_R   0.672750 0.707060 0.678240 -0.517830
O10   O     O_R   0.327250 0.292940 0.321760 -0.513857
O11   O     O_R   0.827250 0.207060 0.821760 -0.511533
O12   O     O_R   0.172750 0.792940 0.178240 -0.504103
O13   O     O_R   0.687800 0.877990 0.810580 -0.519437
O14   O     O_R   0.312200 0.122010 0.189420 -0.530152
O15   O     O_R   0.812200 0.377990 0.689420 -0.540433
O16   O     O_R   0.187800 0.622010 0.310580 -0.549123
C5    C     C_R   0.648096 0.537825 0.661590 0.864231
C6    C     C_R   0.351892 0.462176 0.338422 0.848383
C7    C     C_R   0.852073 0.036976 0.838172 0.821694
C8    C     C_R   0.147573 0.963162 0.162083 0.829171
O17   O     O_3   0.755100 0.544060 0.793420 -0.378679
O18   O     O_3   0.244900 0.455940 0.206580 -0.380538
O19   O     O_3   0.744900 0.044060 0.706580 -0.381195
O20   O     O_3   0.255100 0.955940 0.293420 -0.380694
V1    V     V_3+5 0.749050 0.818670 0.741950 1.720320
V2    V     V_3+5 0.250950 0.181330 0.258050 1.721482
V3    V     V_3+5 0.750950 0.318670 0.758050 1.716152
V4    V     V_3+5 0.249050 0.681330 0.241950 1.710855
C9    C     C_R   0.085630 0.987200 0.109952 -0.273296
C10   C     C_R   0.914324 0.015627 0.889702 -0.276967
C11   C     C_R   0.414057 0.481226 0.390070 -0.246073
C12   C     C_R   0.585971 0.518687 0.609891 -0.249959
C13   C     C_R   0.015505 0.830537 0.931920 -0.137562
C14   C     C_R   0.990720 0.190425 0.063159 -0.122533
C15   C     C_R   0.479471 0.354482 0.572996 -0.124734
C16   C     C_R   0.520625 0.645168 0.426908 -0.127904
C17   C     C_R   0.961171 0.874798 0.880679 0.566410
C18   C     C_R   0.042163 0.138845 0.116281 0.561864
C19   C     C_R   0.535718 0.393327 0.622588 0.553098
C20   C     C_R   0.464331 0.606489 0.377345 0.562050
C21   C     C_R   0.924007 0.120326 0.949862 0.551960
C22   C     C_R   0.074806 0.879519 0.050443 0.540351
C23   C     C_R   0.579610 0.608610 0.546498 0.547661
C24   C     C_R   0.420467 0.391141 0.453430 0.539827
C25   C     C_R   0.979635 0.083153 0.002271 -0.176281
C26   C     C_R   0.023915 0.929679 0.994796 -0.193332
C27   C     C_R   0.525591 0.564145 0.493205 -0.169880
C28   C     C_R   0.474501 0.435549 0.506710 -0.167914
C29   C     C_R   0.580141 0.875781 0.888834 0.556656
C30   C     C_R   0.432278 0.101482 0.126897 0.560087
C31   C     C_R   0.933202 0.651513 0.621046 0.556740
C32   C     C_R   0.077267 0.331186 0.393111 0.571792
C33   C     C_R   0.624348 0.027949 0.890112 -0.184171
C34   C     C_R   0.379784 0.970602 0.115425 -0.173734
C35   C     C_R   0.878518 0.527578 0.614202 -0.182466
C36   C     C_R   0.125119 0.472556 0.390511 -0.192376
C37   C     C_R   0.623694 0.165669 0.942009 -0.147534
C38   C     C_R   0.376222 0.850951 0.057874 -0.159058
C39   C     C_R   0.872168 0.394116 0.560730 -0.150983
C40   C     C_R   0.128144 0.621833 0.438317 -0.141409
C41   C     C_R   0.579105 0.147343 0.992391 -0.020788
C42   C     C_R   0.433273 0.838888 0.022038 -0.041898
C43   C     C_R   0.928459 0.362179 0.524934 -0.045610
C44   C     C_R   0.082350 0.627868 0.488016 -0.021867
C45   C     C_R   0.531948 0.997694 0.986082 0.066443
C46   C     C_R   0.481959 0.983895 0.030181 0.070640
C47   C     C_R   0.980574 0.497817 0.529046 0.066684
C48   C     C_R   0.031245 0.488741 0.485410 0.051945
C49   C     C_R   0.534280 0.860836 0.935676 -0.040288
C50   C     C_R   0.480450 0.115537 0.082290 -0.040012
C51   C     C_R   0.981878 0.642989 0.576681 -0.032534
C52   C     C_R   0.030508 0.339208 0.439383 -0.035204
C53   C     C_R   0.578929 0.271682 0.048972 -0.058165
C54   C     C_R   0.443409 0.688929 0.977863 -0.036222
C55   C     C_R   0.934783 0.200445 0.484987 -0.046159
C56   C     C_R   0.084698 0.766505 0.540325 -0.052044
C57   C     C_R   0.529011 0.255576 0.091456 -0.084309
C58   C     C_R   0.491850 0.705665 0.933676 -0.068338
C59   C     C_R   0.983895 0.194952 0.441142 -0.049665
C60   C     C_R   0.033722 0.773896 0.581935 -0.090164
H1    H     H_    0.529311 0.351702 0.133652 0.220735
H2    H     H_    0.498000 0.593031 0.898777 0.215035
H3    H     H_    0.987258 0.073155 0.409636 0.213488
H4    H     H_    0.035981 0.880752 0.620782 0.214468
F1    F     F_    0.113991 0.725772 0.048065 -0.673841
F2    F     F_    0.875192 0.246005 0.958971 -0.662174
F3    F     F_    0.373069 0.262101 0.462026 -0.691577
F4    F     F_    0.627028 0.737580 0.537890 -0.691489
F5    F     F_    0.051499 0.242306 0.174379 -0.607989
F6    F     F_    0.954529 0.781490 0.820368 -0.598989
F7    F     F_    0.459828 0.685755 0.314434 -0.627984
F8    F     F_    0.540198 0.314084 0.685500 -0.630865
C61   C     C_2   0.064416 0.686255 0.916231 0.607125
H5    H     H_    0.118455 0.705455 0.931240 0.101124
O21   O     O_2   0.044782 0.545249 0.885385 -0.488448
C62   C     C_2   0.953731 0.367246 0.070725 0.666571
H6    H     H_    0.941714 0.460790 0.027661 0.078785
O22   O     O_2   0.937293 0.411868 0.125490 -0.465280
C63   C     C_2   0.425617 0.234576 0.593681 0.650962
H7    H     H_    0.372583 0.270584 0.579280 0.090120
O23   O     O_2   0.440098 0.095671 0.628272 -0.472473
C64   C     C_2   0.574533 0.764811 0.406183 0.653151
H8    H     H_    0.627552 0.728727 0.420651 0.090693
O24   O     O_2   0.560119 0.903551 0.371477 -0.468727
F9    F     F_    0.578998 0.744635 0.839207 -0.678315
F10   F     F_    0.436167 0.217614 0.181529 -0.666894
F11   F     F_    0.938816 0.782521 0.671019 -0.647539
F12   F     F_    0.073614 0.188715 0.347595 -0.665680
C65   C     C_2   0.666463 0.332788 0.940771 0.433211
H9    H     H_    0.643091 0.469576 0.936758 0.073308
O25   O     O_2   0.728130 0.318890 0.946985 -0.481206
C66   C     C_2   0.309599 0.772833 0.025609 0.397217
H10   H     H_    0.304923 0.707368 0.975924 0.072646
O26   O     O_2   0.257814 0.791330 0.050974 -0.506945
C67   C     C_2   0.803881 0.319273 0.532003 0.403013
H11   H     H_    0.796522 0.251995 0.482565 0.084427
O27   O     O_2   0.754011 0.340278 0.560286 -0.527670
C68   C     C_2   0.176911 0.774188 0.433499 0.403182
H12   H     H_    0.158907 0.916574 0.427320 0.095985
O28   O     O_2   0.237644 0.741912 0.438403 -0.519184
C69   C     C_2   0.632995 0.408739 0.071096 0.378148
H13   H     H_    0.685751 0.373623 0.070007 0.114297
O29   O     O_2   0.619116 0.561061 0.092577 -0.507618
C70   C     C_2   0.410956 0.504872 0.983198 0.364418
H14   H     H_    0.387490 0.470832 0.027657 0.060717
O30   O     O_2   0.411211 0.387520 0.938732 -0.511682
C71   C     C_2   0.897270 0.026514 0.494483 0.363765
H15   H     H_    0.874174 0.005980 0.540180 0.074260
O31   O     O_2   0.892725 0.902547 0.452002 -0.510509
C72   C     C_2   0.142187 0.895395 0.559286 0.368196
H16   H     H_    0.193980 0.847643 0.560379 0.103269
O32   O     O_2   0.132199 0.055488 0.575782 -0.514801

loop_
_geom_bond_atom_site_label_1
_geom_bond_atom_site_label_2
_ccdc_geom_bond_type
C34   C38   A    
C59   H3    S    
C44   C56   A    
C32   C52   A    
C31   C35   A    
O19   V1    S    
C18   F5    S    
O13   V1    S    
C23   F4    S    
O3    C7    A    
C56   C60   A    
C54   C70   S    
C70   H14   S    
C13   C61   S    
C61   H5    S    
C5    C12   S    
C22   F1    S    
O1    C5    A    
C6    C11   S    
O5    C1    A    
C9    C18   A    
C40   C44   A    
O9    V1    S    
C14   C18   A    
C30   C34   A    
O4    C8    A    
C40   C68   S    
C51   C60   A    
C64   H8    S    
O1    V3    S    
C56   C72   S    
C66   H10   S    
C30   F10   S    
C12   C23   A    
O2    V4    S    
C33   C37   A    
O3    V1    S    
C30   C50   A    
C1    O15   A    
C2    O16   A    
C55   C59   A    
C24   F3    S    
C46   C50   A    
C45   C49   A    
O14   V2    S    
C53   C57   A    
C16   C20   A    
C44   C48   A    
C4    C34   S    
O11   C7    A    
C15   C28   A    
O15   V3    S    
O12   C8    A    
C9    C22   A    
C10   C17   A    
O10   V2    S    
C11   C24   A    
C52   C59   A    
C61   O21   D    
O5    V1    S    
C67   O27   D    
C42   C54   A    
C39   C43   A    
O7    V3    S    
C38   C42   A    
C27   C28   A    
O8    V4    S    
C41   C53   A    
C14   C62   S    
C14   C25   A    
C29   C33   A    
O18   V4    S    
C15   C19   A    
C58   H2    S    
C32   C36   A    
C1    C35   S    
O7    C3    A    
C38   C66   S    
C11   C20   A    
C39   C67   S    
C54   C58   A    
C17   F6    S    
C21   C25   A    
O8    C4    A    
C7    C10   S    
C55   C71   S    
C62   O22   D    
C19   F8    S    
O9    C5    A    
C48   C52   A    
C63   O23   D    
C10   C21   A    
O11   V3    S    
C21   F2    S    
C66   O26   D    
O6    V2    S    
C37   C65   S    
C69   H13   S    
C50   C57   A    
C68   O28   D    
C71   H15   S    
C49   C58   A    
C53   C69   S    
C16   C64   S    
C65   H9    S    
O16   V4    S    
C29   F9    S    
C2    C36   S    
C3    O13   A    
C31   F11   S    
O17   V3    S    
C29   C49   A    
C60   H4    S    
C71   O31   D    
C70   O30   D    
O6    C2    A    
C23   C27   A    
C67   H11   S    
C15   C63   S    
C72   H16   S    
O12   V4    S    
C16   C27   A    
C22   C26   A    
C35   C39   A    
C8    C9    S    
C36   C40   A    
O10   C6    A    
O20   V2    S    
C31   C51   A    
C47   C48   A    
C20   F7    S    
O2    C6    A    
C47   C51   A    
C13   C26   A    
C42   C46   A    
C64   O24   D    
C41   C45   A    
C62   H6    S    
C72   O32   D    
C43   C47   A    
C13   C17   A    
C45   C46   A    
C57   H1    S    
C37   C41   A    
C24   C28   A    
C25   C26   A    
C4    O14   A    
C63   H7    S    
C69   O29   D    
C12   C19   A    
C68   H12   S    
C3    C33   S    
C32   F12   S    
C43   C55   A    
O4    V2    S    
C65   O25   D    
