data_mof_unit_31271.cif
_audit_creation_date              2012-12-10T18:23:49-0500
_audit_creation_method            fapswitch 2.2
_symmetry_space_group_name_H-M    P1
_symmetry_Int_Tables_number       1
_space_group_crystal_system       triclinic
_cell_length_a                    22.290062
_cell_length_b                    22.52836
_cell_length_c                    14.625626
_cell_angle_alpha                 90.028383
_cell_angle_beta                  89.937401
_cell_angle_gamma                 89.995773
_cell_volume                      7344.37771082

loop_
_atom_site_label
_atom_site_type_symbol
_atom_type_description
_atom_site_fract_x
_atom_site_fract_y
_atom_site_fract_z
_atom_type_partial_charge
C1    C     C_R   0.419528 0.919923 0.500029 0.821088
C2    C     C_R   0.580485 0.080063 0.499970 0.821050
C3    C     C_R   0.580462 0.919916 0.499946 0.821062
C4    C     C_R   0.419544 0.080089 0.500054 0.821070
C5    C     C_R   0.919515 0.419937 0.500030 0.821050
C6    C     C_R   0.080471 0.580078 0.499971 0.821087
C7    C     C_R   0.080455 0.419911 0.499946 0.821072
C8    C     C_R   0.919539 0.580084 0.500054 0.821060
C9    C     C_1   0.336535 0.162098 0.500513 -0.077565
C10   C     C_1   0.663490 0.837924 0.499481 -0.077485
C11   C     C_1   0.663586 0.161988 0.499532 -0.078088
C12   C     C_1   0.336464 0.837957 0.500459 -0.078030
C13   C     C_1   0.836511 0.662077 0.500516 -0.077481
C14   C     C_1   0.163464 0.337901 0.499484 -0.077567
C15   C     C_1   0.163527 0.662052 0.499544 -0.078032
C16   C     C_1   0.836411 0.338015 0.500470 -0.078086
C17   C     C_1   0.499936 0.000045 0.194229 0.302630
C18   C     C_1   0.500055 0.999953 0.805771 0.302662
C19   C     C_1   0.999945 0.500046 0.194229 0.302663
C20   C     C_1   0.000064 0.499955 0.805771 0.302630
C21   C     C_3   0.504700 0.055859 0.969199 0.129009
C22   C     C_3   0.495280 0.944137 0.030800 0.128973
C23   C     C_3   0.453374 0.031998 0.030700 0.130599
C24   C     C_3   0.546606 0.967997 0.969299 0.130589
C25   C     C_3   0.004723 0.555863 0.969200 0.128973
C26   C     C_3   0.995297 0.444141 0.030801 0.129009
C27   C     C_3   0.953395 0.532004 0.030701 0.130588
C28   C     C_3   0.046624 0.467999 0.969300 0.130599
C29   C     C_3   0.699261 0.728723 0.538505 0.072261
C30   C     C_3   0.300398 0.270972 0.460093 0.072183
C31   C     C_3   0.301499 0.727976 0.464955 0.072043
C32   C     C_3   0.698841 0.271608 0.536798 0.071855
C33   C     C_3   0.199600 0.229026 0.539903 0.072183
C34   C     C_3   0.800741 0.771279 0.461491 0.072258
C35   C     C_3   0.801154 0.228396 0.463205 0.071850
C36   C     C_3   0.198489 0.772035 0.535051 0.072027
C37   C     C_3   0.229101 0.202739 0.452868 0.070183
C38   C     C_3   0.770511 0.796870 0.548443 0.070190
C39   C     C_3   0.770088 0.203683 0.550029 0.071423
C40   C     C_3   0.230475 0.795839 0.448400 0.071466
C41   C     C_3   0.729491 0.703132 0.451552 0.070193
C42   C     C_3   0.270897 0.297258 0.547128 0.070183
C43   C     C_3   0.269513 0.704173 0.551606 0.071474
C44   C     C_3   0.729907 0.296321 0.449973 0.071424
C45   C     C_1   0.374439 0.124535 0.500287 -0.164380
C46   C     C_1   0.625579 0.875482 0.499710 -0.164329
C47   C     C_1   0.625650 0.124454 0.499773 -0.164377
C48   C     C_1   0.374388 0.875504 0.500223 -0.164359
C49   C     C_1   0.874422 0.624519 0.500289 -0.164328
C50   C     C_1   0.125560 0.375465 0.499712 -0.164380
C51   C     C_1   0.125607 0.624501 0.499778 -0.164359
C52   C     C_1   0.874348 0.375548 0.500228 -0.164376
C53   C     C_3   0.261424 0.234398 0.587475 0.069137
C54   C     C_3   0.739325 0.766312 0.412600 0.069167
C55   C     C_3   0.740239 0.232754 0.412746 0.067182
C56   C     C_3   0.258862 0.768115 0.587073 0.067308
C57   C     C_3   0.760677 0.733689 0.587395 0.069168
C58   C     C_3   0.238574 0.265600 0.412521 0.069137
C59   C     C_3   0.241125 0.731898 0.412933 0.067314
C60   C     C_3   0.759756 0.267250 0.587257 0.067186
C61   C     C_3   0.290813 0.208199 0.500449 0.001319
C62   C     C_3   0.709206 0.791817 0.499543 0.001292
C63   C     C_3   0.709281 0.208125 0.499564 0.001269
C64   C     C_3   0.290747 0.791835 0.500427 0.001290
C65   C     C_3   0.790796 0.708185 0.500453 0.001294
C66   C     C_3   0.209185 0.291799 0.499546 0.001317
C67   C     C_3   0.209241 0.708176 0.499578 0.001289
C68   C     C_3   0.790714 0.291879 0.500438 0.001270
C69   C     C_3   0.551235 0.023942 0.030732 0.131084
C70   C     C_3   0.448745 0.976054 0.969266 0.131142
C71   C     C_3   0.051256 0.523943 0.030734 0.131140
C72   C     C_3   0.948764 0.476060 0.969268 0.131083
C73   C     C_3   0.499913 0.000076 0.091636 -0.169339
C74   C     C_3   0.500068 0.999920 0.908363 -0.169326
C75   C     C_3   0.999932 0.500079 0.091637 -0.169326
C76   C     C_3   0.000087 0.499924 0.908364 -0.169340
Cu1   Cu    Cu3+1 0.500000 0.000000 0.590220 1.007655
Cu2   Cu    Cu3+1 0.500000 0.000000 0.409780 1.007655
Cu3   Cu    Cu3+1 1.000000 0.500000 0.590220 1.007655
Cu4   Cu    Cu3+1 0.000000 0.500000 0.409780 1.007656
N1    N     N_1   0.499980 0.000000 0.274190 -0.147936
N2    N     N_1   0.500020 0.000000 0.725810 -0.147934
N3    N     N_1   0.999980 0.500000 0.274190 -0.147934
N4    N     N_1   0.000020 0.500000 0.725810 -0.147936
O1    O     O_R   0.439540 0.939530 0.576170 -0.567854
O2    O     O_R   0.560460 0.060470 0.423830 -0.567868
O3    O     O_R   0.560460 0.939530 0.423830 -0.568607
O4    O     O_R   0.439540 0.060470 0.576170 -0.568605
O5    O     O_R   0.939540 0.439530 0.576170 -0.567868
O6    O     O_R   0.060460 0.560470 0.423830 -0.567855
O7    O     O_R   0.060460 0.439530 0.423830 -0.568604
O8    O     O_R   0.939540 0.560470 0.576170 -0.568608
O9    O     O_R   0.439530 0.939530 0.423800 -0.567783
O10   O     O_R   0.560470 0.060470 0.576200 -0.567786
O11   O     O_R   0.560470 0.939530 0.576200 -0.567124
O12   O     O_R   0.439530 0.060470 0.423800 -0.567109
O13   O     O_R   0.939530 0.439530 0.423800 -0.567786
O14   O     O_R   0.060470 0.560470 0.576200 -0.567783
O15   O     O_R   0.060470 0.439530 0.576200 -0.567108
O16   O     O_R   0.939530 0.560470 0.423800 -0.567124
I1    I     I_    0.367365 0.937784 0.918761 -0.339020
I2    I     I_    0.632614 0.062203 0.081241 -0.338604
I3    I     I_    0.867383 0.437802 0.918758 -0.338599
I4    I     I_    0.132638 0.562210 0.081240 -0.339016
C77   C     C_3   0.212477 0.145080 0.402877 -0.389096
C78   C     C_3   0.150931 0.147946 0.356289 -0.356547
C79   C     C_3   0.131841 0.086884 0.321821 -0.837784
H1    H     H_    0.165426 0.069226 0.272645 0.267005
H2    H     H_    0.127201 0.055582 0.380062 0.243342
H3    H     H_    0.087823 0.090390 0.286742 0.248986
H4    H     H_    0.116332 0.164311 0.404514 0.221304
H5    H     H_    0.152709 0.178653 0.297162 0.229827
H6    H     H_    0.247404 0.135165 0.350900 0.201600
H7    H     H_    0.213497 0.108168 0.453095 0.193693
C80   C     C_3   0.786712 0.854120 0.599879 -0.389317
C81   C     C_3   0.847878 0.850891 0.647567 -0.357577
C82   C     C_3   0.866558 0.911622 0.683909 -0.833897
H8    H     H_    0.871562 0.943544 0.626559 0.243677
H9    H     H_    0.832572 0.928687 0.732933 0.266874
H10   H     H_    0.910316 0.907848 0.719674 0.248867
H11   H     H_    0.845689 0.819566 0.705880 0.229986
H12   H     H_    0.882894 0.835102 0.599590 0.221684
H13   H     H_    0.786095 0.891449 0.550383 0.193643
H14   H     H_    0.751362 0.863601 0.651379 0.201979
C83   C     C_3   0.785749 0.146996 0.603195 -0.388846
C84   C     C_3   0.846599 0.150544 0.651734 -0.361259
C85   C     C_3   0.864013 0.090517 0.691995 -0.832920
H15   H     H_    0.829493 0.075373 0.741614 0.265518
H16   H     H_    0.868700 0.057008 0.636724 0.245689
H17   H     H_    0.907658 0.094482 0.728027 0.248110
H18   H     H_    0.882193 0.164481 0.603432 0.221714
H19   H     H_    0.844558 0.183409 0.708051 0.228997
H20   H     H_    0.749990 0.138276 0.654340 0.199522
H21   H     H_    0.785380 0.109079 0.554701 0.193575
C86   C     C_3   0.215590 0.852012 0.393447 -0.388998
C87   C     C_3   0.155025 0.848399 0.344122 -0.362791
C88   C     C_3   0.139353 0.907560 0.299413 -0.829965
H22   H     H_    0.135411 0.942850 0.352126 0.247199
H23   H     H_    0.174421 0.920250 0.249058 0.265350
H24   H     H_    0.095733 0.903631 0.263306 0.248083
H25   H     H_    0.156616 0.813858 0.290219 0.229103
H26   H     H_    0.118792 0.836769 0.392767 0.222214
H27   H     H_    0.215911 0.890517 0.440832 0.193082
H28   H     H_    0.251773 0.859833 0.342654 0.200405
C89   C     C_3   0.713289 0.645883 0.400113 -0.389317
C90   C     C_3   0.652122 0.649112 0.352431 -0.357581
C91   C     C_3   0.633440 0.588381 0.316091 -0.833902
H29   H     H_    0.667427 0.571314 0.267070 0.266877
H30   H     H_    0.628434 0.556461 0.373443 0.243674
H31   H     H_    0.589684 0.592156 0.280325 0.248870
H32   H     H_    0.617108 0.664902 0.400409 0.221689
H33   H     H_    0.654309 0.680437 0.294117 0.229982
H34   H     H_    0.748638 0.636405 0.348611 0.201979
H35   H     H_    0.713909 0.608552 0.449607 0.193644
C92   C     C_3   0.287521 0.354917 0.597119 -0.389091
C93   C     C_3   0.349067 0.352051 0.643708 -0.356542
C94   C     C_3   0.368151 0.413110 0.678194 -0.837795
H36   H     H_    0.372789 0.444419 0.619961 0.243341
H37   H     H_    0.334564 0.430759 0.727374 0.267006
H38   H     H_    0.412169 0.409602 0.713272 0.248991
H39   H     H_    0.347290 0.321337 0.702827 0.229831
H40   H     H_    0.383669 0.335694 0.595480 0.221301
H41   H     H_    0.286503 0.391830 0.546901 0.193688
H42   H     H_    0.252594 0.364834 0.649095 0.201600
C95   C     C_3   0.284398 0.648001 0.606563 -0.389012
C96   C     C_3   0.344965 0.651611 0.655879 -0.362825
C97   C     C_3   0.360605 0.592469 0.700678 -0.829918
H43   H     H_    0.325535 0.579836 0.751063 0.265343
H44   H     H_    0.364517 0.557141 0.648023 0.247216
H45   H     H_    0.404231 0.596394 0.736768 0.248075
H46   H     H_    0.381202 0.663189 0.607212 0.222208
H47   H     H_    0.343398 0.686187 0.709729 0.229112
H48   H     H_    0.248216 0.640187 0.657361 0.200429
H49   H     H_    0.284073 0.609493 0.559184 0.193073
C98   C     C_3   0.714249 0.353007 0.396802 -0.388848
C99   C     C_3   0.653393 0.349465 0.348279 -0.361267
C100  C     C_3   0.635987 0.409490 0.308002 -0.832899
H50   H     H_    0.631322 0.443011 0.363260 0.245693
H51   H     H_    0.670500 0.424615 0.258358 0.265513
H52   H     H_    0.592333 0.405530 0.271994 0.248104
H53   H     H_    0.655420 0.316591 0.291974 0.228987
H54   H     H_    0.617801 0.335543 0.396597 0.221722
H55   H     H_    0.714629 0.390928 0.445290 0.193570
H56   H     H_    0.750004 0.361718 0.345647 0.199528
C101  C     C_3   0.638155 0.712712 0.580568 -0.387764
C102  C     C_3   0.634102 0.647931 0.611975 -0.364797
C103  C     C_3   0.574633 0.636061 0.660437 -0.836815
H57   H     H_    0.570584 0.664381 0.722341 0.260820
H58   H     H_    0.536428 0.645315 0.613817 0.250860
H59   H     H_    0.572494 0.588788 0.681670 0.243842
H60   H     H_    0.637141 0.617775 0.552328 0.225264
H61   H     H_    0.671284 0.637302 0.659467 0.225391
H62   H     H_    0.629691 0.742847 0.639254 0.203649
H63   H     H_    0.602446 0.721595 0.529521 0.189287
C104  C     C_3   0.361122 0.286668 0.416521 -0.387634
C105  C     C_3   0.364849 0.351202 0.383846 -0.364788
C106  C     C_3   0.423763 0.362654 0.333620 -0.836075
H64   H     H_    0.462483 0.353668 0.379372 0.251379
H65   H     H_    0.427058 0.333890 0.272098 0.261119
H66   H     H_    0.425707 0.409772 0.311556 0.243838
H67   H     H_    0.327141 0.361508 0.337148 0.225510
H68   H     H_    0.362508 0.381810 0.443021 0.225433
H69   H     H_    0.397277 0.278203 0.467004 0.189082
H70   H     H_    0.369094 0.256068 0.358248 0.203902
C107  C     C_3   0.363547 0.711241 0.426932 -0.388170
C108  C     C_3   0.368113 0.646135 0.397239 -0.364203
C109  C     C_3   0.429638 0.632997 0.356032 -0.837214
H71   H     H_    0.437298 0.660899 0.294507 0.262466
H72   H     H_    0.465531 0.641885 0.406905 0.250819
H73   H     H_    0.432023 0.585577 0.335595 0.243309
H74   H     H_    0.361512 0.616475 0.456759 0.224218
H75   H     H_    0.333309 0.635720 0.345635 0.226101
H76   H     H_    0.373723 0.740662 0.368064 0.203213
H77   H     H_    0.397903 0.720574 0.479918 0.190002
C110  C     C_3   0.637224 0.287908 0.576858 -0.387741
C111  C     C_3   0.632815 0.352846 0.607467 -0.364503
C112  C     C_3   0.572346 0.365220 0.652675 -0.835661
H78   H     H_    0.535171 0.356032 0.604122 0.251314
H79   H     H_    0.566722 0.337120 0.714492 0.262803
H80   H     H_    0.570002 0.412572 0.673502 0.243113
H81   H     H_    0.668922 0.363454 0.656861 0.226111
H82   H     H_    0.637429 0.382757 0.547806 0.224701
H83   H     H_    0.602192 0.278759 0.524835 0.189456
H84   H     H_    0.627933 0.258104 0.635604 0.203784
C113  C     C_3   0.138876 0.213331 0.583476 -0.387635
C114  C     C_3   0.135147 0.148798 0.616150 -0.364789
C115  C     C_3   0.076229 0.137347 0.666367 -0.836077
H85   H     H_    0.072925 0.166118 0.727880 0.261118
H86   H     H_    0.037512 0.146323 0.620604 0.251379
H87   H     H_    0.074287 0.090231 0.688444 0.243838
H88   H     H_    0.137491 0.118190 0.556976 0.225437
H89   H     H_    0.172851 0.138492 0.662853 0.225506
H90   H     H_    0.130906 0.243931 0.641750 0.203900
H91   H     H_    0.102721 0.221798 0.532995 0.189088
C116  C     C_3   0.861847 0.787289 0.419428 -0.387761
C117  C     C_3   0.865900 0.852070 0.388024 -0.364798
C118  C     C_3   0.925364 0.863939 0.339545 -0.836816
H92   H     H_    0.963575 0.854668 0.386146 0.250867
H93   H     H_    0.929397 0.835629 0.277626 0.260820
H94   H     H_    0.927508 0.911214 0.318332 0.243840
H95   H     H_    0.828713 0.862703 0.340543 0.225396
H96   H     H_    0.862871 0.882225 0.447673 0.225261
H97   H     H_    0.897555 0.778407 0.470476 0.189280
H98   H     H_    0.870312 0.757154 0.360743 0.203652
C119  C     C_3   0.862772 0.212097 0.423146 -0.387735
C120  C     C_3   0.867181 0.147159 0.392533 -0.364509
C121  C     C_3   0.927636 0.134796 0.347275 -0.835650
H99   H     H_    0.933236 0.162900 0.285458 0.262802
H100  H     H_    0.964827 0.143985 0.395801 0.251319
H101  H     H_    0.929979 0.087445 0.326439 0.243111
H102  H     H_    0.862594 0.117248 0.452200 0.224694
H103  H     H_    0.831059 0.136546 0.343168 0.226120
H104  H     H_    0.872064 0.241903 0.364403 0.203786
H105  H     H_    0.897804 0.221244 0.475171 0.189447
C122  C     C_3   0.136438 0.788765 0.573071 -0.388157
C123  C     C_3   0.131862 0.853872 0.602757 -0.364192
C124  C     C_3   0.070328 0.867007 0.643935 -0.837222
H106  H     H_    0.034445 0.858107 0.593050 0.250820
H107  H     H_    0.062662 0.839113 0.705465 0.262467
H108  H     H_    0.067933 0.914430 0.664354 0.243306
H109  H     H_    0.166656 0.864290 0.654376 0.226096
H110  H     H_    0.138471 0.883530 0.543237 0.224236
H111  H     H_    0.102084 0.779425 0.520085 0.190000
H112  H     H_    0.126265 0.759346 0.631942 0.203207
C125  C     C_3   0.721164 0.789998 0.318127 -0.393139
C126  C     C_3   0.756924 0.762004 0.239515 -0.370924
C127  C     C_3   0.731992 0.781205 0.146997 -0.771996
H113  H     H_    0.684769 0.766226 0.139471 0.259916
H114  H     H_    0.733942 0.830282 0.140190 0.266226
H115  H     H_    0.759135 0.761035 0.091353 0.247856
H116  H     H_    0.804508 0.775978 0.243247 0.231186
H117  H     H_    0.755205 0.712938 0.243552 0.232866
H118  H     H_    0.672507 0.781574 0.308434 0.204715
H119  H     H_    0.727517 0.838877 0.317083 0.198546
C128  C     C_3   0.280399 0.211495 0.682017 -0.393196
C129  C     C_3   0.245223 0.240060 0.760740 -0.370722
C130  C     C_3   0.270937 0.221646 0.853126 -0.772050
H120  H     H_    0.269148 0.172622 0.860885 0.266518
H121  H     H_    0.318184 0.236787 0.859481 0.259877
H122  H     H_    0.244184 0.242205 0.908862 0.247583
H123  H     H_    0.246814 0.289096 0.755734 0.232740
H124  H     H_    0.197642 0.225964 0.758189 0.231446
H125  H     H_    0.274143 0.162618 0.684103 0.198761
H126  H     H_    0.329118 0.220079 0.690621 0.204526
C131  C     C_3   0.274983 0.794018 0.681059 -0.387520
C132  C     C_3   0.238509 0.766893 0.759562 -0.378038
C133  C     C_3   0.259504 0.790835 0.851742 -0.765743
H127  H     H_    0.307458 0.779635 0.863113 0.263669
H128  H     H_    0.253773 0.839787 0.854433 0.271449
H129  H     H_    0.232443 0.770599 0.907386 0.245578
H130  H     H_    0.190350 0.777800 0.751554 0.231437
H131  H     H_    0.243260 0.717962 0.759996 0.230140
H132  H     H_    0.323600 0.786751 0.693134 0.204372
H133  H     H_    0.267691 0.842761 0.679458 0.201587
C134  C     C_3   0.723139 0.207902 0.318489 -0.387472
C135  C     C_3   0.759218 0.235504 0.239952 -0.377132
C136  C     C_3   0.736583 0.213504 0.147530 -0.766861
H134  H     H_    0.741106 0.164491 0.142904 0.272888
H135  H     H_    0.688788 0.225992 0.137899 0.262260
H136  H     H_    0.763483 0.233966 0.091901 0.245174
H137  H     H_    0.755605 0.284527 0.241522 0.229729
H138  H     H_    0.807200 0.223385 0.246116 0.231781
H139  H     H_    0.730040 0.159091 0.318758 0.201822
H140  H     H_    0.674485 0.215687 0.307572 0.204254
C137  C     C_3   0.219597 0.288503 0.317979 -0.393198
C138  C     C_3   0.254770 0.259937 0.239254 -0.370720
C139  C     C_3   0.229064 0.278365 0.146869 -0.772045
H141  H     H_    0.181811 0.263247 0.140511 0.259887
H142  H     H_    0.230877 0.327389 0.139113 0.266508
H143  H     H_    0.255808 0.257796 0.091131 0.247581
H144  H     H_    0.302355 0.274021 0.241813 0.231450
H145  H     H_    0.253168 0.210901 0.244250 0.232734
H146  H     H_    0.170879 0.279919 0.309377 0.204524
H147  H     H_    0.225854 0.337380 0.315892 0.198768
C140  C     C_3   0.778836 0.710005 0.681870 -0.393139
C141  C     C_3   0.743071 0.737997 0.760477 -0.370923
C142  C     C_3   0.768017 0.718820 0.852998 -0.772003
H148  H     H_    0.766102 0.669743 0.859815 0.266242
H149  H     H_    0.815230 0.733833 0.860520 0.259897
H150  H     H_    0.740860 0.738977 0.908639 0.247859
H151  H     H_    0.744770 0.787064 0.756423 0.232871
H152  H     H_    0.695493 0.724004 0.756758 0.231179
H153  H     H_    0.772487 0.661126 0.682915 0.198539
H154  H     H_    0.827493 0.718433 0.691566 0.204721
C143  C     C_3   0.776855 0.292100 0.681515 -0.387473
C144  C     C_3   0.740775 0.264496 0.760050 -0.377130
C145  C     C_3   0.763433 0.286465 0.852475 -0.766875
H155  H     H_    0.811225 0.273957 0.862082 0.262234
H156  H     H_    0.758930 0.335479 0.857130 0.272906
H157  H     H_    0.736534 0.266000 0.908103 0.245179
H158  H     H_    0.692797 0.276636 0.753906 0.231768
H159  H     H_    0.744366 0.215472 0.758453 0.229734
H160  H     H_    0.825509 0.284315 0.692430 0.204262
H161  H     H_    0.769953 0.340911 0.681250 0.201819
C146  C     C_3   0.225000 0.706002 0.318944 -0.387518
C147  C     C_3   0.261488 0.733117 0.240447 -0.378041
C148  C     C_3   0.240480 0.709196 0.148262 -0.765768
H162  H     H_    0.246172 0.660240 0.145566 0.271473
H163  H     H_    0.192534 0.720435 0.136887 0.263642
H164  H     H_    0.267560 0.729415 0.092624 0.245584
H165  H     H_    0.256763 0.782051 0.240026 0.230131
H166  H     H_    0.309641 0.722184 0.248450 0.231444
H167  H     H_    0.232276 0.657257 0.320542 0.201584
H168  H     H_    0.176387 0.713286 0.306865 0.204376
I5    I     I_    0.379283 0.083068 0.080788 -0.325934
I6    I     I_    0.620700 0.916932 0.919211 -0.325937
I7    I     I_    0.512206 0.144685 0.918589 -0.321136
I8    I     I_    0.487774 0.855312 0.081411 -0.320888
I9    I     I_    0.879304 0.583074 0.080790 -0.325937
I10   I     I_    0.120713 0.416926 0.919211 -0.325937
I11   I     I_    0.012232 0.644687 0.918587 -0.320884
I12   I     I_    0.987787 0.355315 0.081412 -0.321140

loop_
_geom_bond_atom_site_label_1
_geom_bond_atom_site_label_2
_ccdc_geom_bond_type
C71   I4    S    
C94   H36   S    
C39   C83   S    
C123  H110  S    
C44   C98   S    
C148  H162  S    
C99   H54   S    
C84   C85   S    
C7    O15   A    
C132  H130  S    
Cu3   O15   S    
C33   C113  S    
C82   H9    S    
C104  H69   S    
C78   C79   S    
C31   C59   S    
C106  H65   S    
C4    O12   A    
C32   C110  S    
Cu1   O4    S    
Cu2   O12   S    
C70   C74   S    
C109  H73   S    
C133  H128  S    
C144  C145  S    
C8    O8    A    
C15   C51   T    
C78   H4    S    
C141  H152  S    
C119  C120  S    
C1    O1    A    
Cu4   N3    S    
C27   C75   S    
C89   C90   S    
C40   C86   S    
C35   C119  S    
C36   C122  S    
C80   H13   S    
C81   H11   S    
C91   H31   S    
C22   I8    S    
C108  C109  S    
C105  C106  S    
C35   C55   S    
C137  H147  S    
C141  C142  S    
C142  H150  S    
C110  C111  S    
C87   H25   S    
C38   C57   S    
C115  H85   S    
C138  C139  S    
C116  H97   S    
C135  C136  S    
C122  H111  S    
C107  H77   S    
C34   C54   S    
C94   H38   S    
C79   H3    S    
C28   C71   S    
C148  H164  S    
C98   H55   S    
C90   C91   S    
C119  H105  S    
C121  H101  S    
C147  C148  S    
C1    C48   S    
C72   I3    S    
C2    C47   S    
C3    C46   S    
C25   C76   S    
C59   C146  S    
C95   H49   S    
C44   C55   S    
C14   C50   T    
C129  H124  S    
Cu1   N2    S    
C114  H89   S    
C39   C60   S    
C18   N2    T    
C146  C147  S    
C108  H75   S    
C145  H155  S    
C1    O9    A    
C30   C61   S    
C92   C93   S    
C3    O11   A    
C139  H142  S    
C102  C103  S    
C5    O5    A    
C38   C62   S    
Cu2   O3    S    
C96   H47   S    
Cu4   O13   S    
C91   H29   S    
C146  H167  S    
C70   I1    S    
C97   H44   S    
C135  H138  S    
C120  H103  S    
C31   C43   S    
C9    C61   S    
C113  H91   S    
C77   H6    S    
C31   C107  S    
C11   C63   S    
C126  H116  S    
C42   C53   S    
Cu3   N4    S    
C12   C64   S    
C127  H115  S    
C80   C81   S    
Cu1   O10   S    
C117  C118  S    
C124  H106  S    
C21   I7    S    
C147  H166  S    
C59   C67   S    
C53   C61   S    
C100  H51   S    
C55   C63   S    
C79   H1    S    
C56   C64   S    
C25   C71   S    
C128  H125  S    
C55   C134  S    
C86   H27   S    
Cu1   O1    S    
C130  H120  S    
C17   C73   S    
C136  H135  S    
C23   C70   S    
C143  H161  S    
C19   N3    T    
C34   C116  S    
C33   C66   S    
C120  H102  S    
C14   C66   S    
C54   C125  S    
C2    O10   A    
C145  H156  S    
C92   H41   S    
C112  H78   S    
C6    O6    A    
C104  C105  S    
C21   C69   S    
C117  H95   S    
C85   H16   S    
C37   C77   S    
C140  H154  S    
C84   H19   S    
C15   C67   S    
C26   C75   S    
C89   H35   S    
C125  H118  S    
C115  H86   S    
C5    O13   A    
C93   H39   S    
C137  C138  S    
C20   N4    T    
C144  H159  S    
C13   C49   T    
C28   I10   S    
C120  C121  S    
C99   C100  S    
C29   C41   S    
C7    C50   S    
C87   C88   S    
C127  H113  S    
C4    O4    A    
C138  H144  S    
C132  H131  S    
C139  H143  S    
C130  H121  S    
C8    O16   A    
C82   H8    S    
C38   C80   S    
C29   C101  S    
C106  H64   S    
Cu3   O5    S    
C44   C68   S    
C90   H32   S    
C129  C130  S    
C43   C67   S    
C114  C115  S    
C118  H94   S    
C109  H72   S    
C105  H67   S    
C22   C70   S    
C83   H21   S    
C9    C45   T    
C26   C72   S    
C11   C47   T    
C128  C129  S    
C101  H63   S    
C12   C48   T    
C110  H84   S    
C86   C87   S    
Cu1   Cu2   S    
C112  H80   S    
C88   H23   S    
C81   H12   S    
C6    O14   A    
C134  H139  S    
C91   H30   S    
C25   I11   S    
C58   C137  S    
C27   I9    S    
C137  H146  S    
C102  H60   S    
C142  H149  S    
C111  H81   S    
C103  H59   S    
C87   H26   S    
C24   I6    S    
C131  H133  S    
C116  C117  S    
C69   C73   S    
C43   C95   S    
C107  H76   S    
C140  C141  S    
C94   H37   S    
C123  H109  S    
C79   H2    S    
C10   C62   S    
C148  H163  S    
C121  H100  S    
C99   H53   S    
C109  H71   S    
C82   H10   S    
C134  C135  S    
C78   H5    S    
C104  H70   S    
C54   C62   S    
C107  C108  S    
C33   C37   S    
C139  H141  S    
C106  H66   S    
C35   C39   S    
C131  C132  S    
C36   C56   S    
C133  H127  S    
C7    O7    A    
C133  H129  S    
C29   C57   S    
C141  H151  S    
C21   C23   S    
C83   C84   S    
C22   C24   S    
C57   C140  S    
C112  H79   S    
C32   C60   S    
C85   H15   S    
C28   C76   S    
C97   H43   S    
C80   H14   S    
C16   C52   T    
C57   C65   S    
C23   I5    S    
C77   C78   S    
C113  H90   S    
C124  H108  S    
Cu4   O7    S    
C42   C92   S    
C103  H57   S    
C126  H117  S    
C127  H114  S    
Cu2   N1    S    
C101  C102  S    
C119  H104  S    
C88   H24   S    
C17   N1    T    
C26   I12   S    
C143  C144  S    
C116  H98   S    
C41   C89   S    
C122  H112  S    
C60   C68   S    
C100  H50   S    
C30   C42   S    
C8    C49   S    
C27   C72   S    
C98   H56   S    
C95   C96   S    
C136  H134  S    
Cu3   O14   S    
C143  H160  S    
C72   C76   S    
C36   C67   S    
C13   C65   S    
C69   I2    S    
C84   H18   S    
C93   C94   S    
C132  C133  S    
C129  H123  S    
Cu2   O9    S    
C95   H48   S    
C114  H88   S    
C81   C82   S    
C20   C76   S    
C117  H96   S    
C140  H153  S    
C108  H74   S    
C58   C66   S    
C98   C99   S    
C10   C46   T    
C5    C52   S    
C56   C131  S    
C16   C68   S    
C6    C51   S    
C125  C126  S    
C37   C58   S    
C89   H34   S    
Cu2   O2    S    
C93   H40   S    
C96   H46   S    
C18   C74   S    
C40   C59   S    
Cu4   O16   S    
C102  H61   S    
C60   C143  S    
C23   C73   S    
C34   C65   S    
C146  H168  S    
C24   C69   S    
C97   H45   S    
C33   C53   S    
C135  H137  S    
C3    O3    A    
C4    C45   S    
C77   H7    S    
C36   C40   S    
C111  C112  S    
C41   C65   S    
C21   C74   S    
Cu1   O11   S    
C138  H145  S    
C124  H107  S    
C147  H165  S    
C43   C56   S    
C100  H52   S    
C123  C124  S    
C113  C114  S    
C32   C44   S    
C128  H126  S    
Cu3   O8    S    
C90   H33   S    
C86   H28   S    
C118  H93   S    
C96   C97   S    
C136  H136  S    
C130  H122  S    
C105  H68   S    
C122  C123  S    
C83   H20   S    
C29   C62   S    
C34   C38   S    
C31   C64   S    
C32   C63   S    
C101  H62   S    
C110  H83   S    
C145  H157  S    
C37   C61   S    
C121  H99   S    
C92   H42   S    
C25   C27   S    
C39   C63   S    
C88   H22   S    
C26   C28   S    
C40   C64   S    
C19   C75   S    
C85   H17   S    
C30   C104  S    
C71   C75   S    
C24   C74   S    
C35   C68   S    
C30   C58   S    
C2    O2    A    
Cu4   O6    S    
C142  H148  S    
C111  H82   S    
C41   C54   S    
C103  H58   S    
C126  C127  S    
Cu3   Cu4   S    
C125  H119  S    
C53   C128  S    
C115  H87   S    
C131  H132  S    
C144  H158  S    
C42   C66   S    
C22   C73   S    
C118  H92   S    
C134  H140  S    
