data_mof_unit_40538.cif
_audit_creation_date              2012-12-11T15:09:06-0500
_audit_creation_method            fapswitch 2.2
_symmetry_space_group_name_H-M    P1
_symmetry_Int_Tables_number       1
_space_group_crystal_system       triclinic
_cell_length_a                    26.150345
_cell_length_b                    27.37096
_cell_length_c                    8.540666
_cell_angle_alpha                 89.999983
_cell_angle_beta                  96.273182
_cell_angle_gamma                 90.009182
_cell_volume                      6076.46364841

loop_
_atom_site_label
_atom_site_type_symbol
_atom_type_description
_atom_site_fract_x
_atom_site_fract_y
_atom_site_fract_z
_atom_type_partial_charge
Ba1   Ba    Ba6+2 0.999910 0.465960 0.844870 1.718841
Ba2   Ba    Ba6+2 0.999910 0.534040 0.344870 1.722234
Ba3   Ba    Ba6+2 0.499910 0.965960 0.844870 1.717826
Ba4   Ba    Ba6+2 0.499910 0.034040 0.344870 1.722024
C1    C     C_3   0.967995 0.214502 0.533344 -0.270208
C2    C     C_R   0.842568 0.640449 0.605425 -0.128452
C3    C     C_3   0.482891 0.230969 0.049630 0.339734
C4    C     C_R   0.908272 0.388225 0.305261 -0.209640
C5    C     C_R   0.908258 0.611703 0.805608 -0.211298
C6    C     C_R   0.408245 0.888246 0.305337 -0.210442
C7    C     C_R   0.408248 0.111701 0.805644 -0.210982
C8    C     C_1   0.036305 0.274981 0.612447 0.302340
C9    C     C_1   0.036649 0.724793 0.113957 0.304604
C10   C     C_1   0.536343 0.775019 0.612403 0.302470
C11   C     C_1   0.536708 0.224765 0.114011 0.304387
C12   C     C_3   0.281044 0.431510 0.348451 0.185082
C13   C     C_R   0.342760 0.859369 0.104714 -0.128910
C14   C     C_3   0.268399 0.514940 0.864221 0.213066
C15   C     C_3   0.781079 0.930692 0.343711 0.184701
C16   C     C_3   0.763825 0.013291 0.888263 0.219925
C17   C     C_3   0.788877 0.574234 0.959459 0.155588
C18   C     C_3   0.789257 0.425351 0.460188 0.154145
C19   C     C_3   0.288934 0.074273 0.959203 0.155210
C20   C     C_3   0.289159 0.925518 0.460307 0.155279
C21   C     C_3   0.716015 0.399901 0.815985 0.136071
C22   C     C_3   0.716172 0.599460 0.315018 0.135149
C23   C     C_3   0.215904 0.899978 0.816465 0.136172
C24   C     C_R   0.342541 0.140436 0.605500 -0.128913
C25   C     C_3   0.216210 0.099682 0.314246 0.135095
C26   C     C_1   0.001166 0.187101 0.436775 0.217902
C27   C     C_1   0.002443 0.812668 0.938106 0.217076
C28   C     C_1   0.501273 0.687163 0.436551 0.217862
C29   C     C_1   0.502558 0.312648 0.938189 0.216990
C30   C     C_1   0.002196 0.174672 0.010391 0.261856
C31   C     C_1   0.001228 0.825818 0.514119 0.259811
C32   C     C_1   0.502171 0.674708 0.010308 0.261697
C33   C     C_1   0.501156 0.325907 0.514421 0.259795
C34   C     C_3   0.135127 0.820906 0.137181 0.216866
C35   C     C_R   0.831348 0.319961 0.201871 -0.013313
C36   C     C_3   0.134790 0.178914 0.632017 0.216802
C37   C     C_3   0.635216 0.320852 0.137196 0.216992
C38   C     C_3   0.634819 0.678935 0.632090 0.216776
C39   C     C_3   0.943060 0.277491 0.083091 0.219703
C40   C     C_3   0.941963 0.723017 0.584713 0.215713
C41   C     C_3   0.443080 0.777557 0.083095 0.219715
C42   C     C_3   0.441840 0.223112 0.584922 0.215513
C43   C     C_1   0.091344 0.194737 0.072328 0.247810
C44   C     C_1   0.090455 0.805478 0.572201 0.247951
C45   C     C_1   0.591338 0.694739 0.072087 0.247835
C46   C     C_R   0.831014 0.679715 0.703041 -0.013354
C47   C     C_1   0.590379 0.305500 0.572134 0.247928
C48   C     C_R   0.331284 0.820010 0.202036 -0.013101
C49   C     C_R   0.330989 0.179702 0.703119 -0.013264
C50   C     C_R   0.858952 0.315646 0.352218 -0.155619
C51   C     C_R   0.858690 0.684042 0.853256 -0.155583
C52   C     C_R   0.358888 0.815698 0.352378 -0.155379
C53   C     C_3   0.968553 0.785290 0.032445 -0.272349
C54   C     C_R   0.358677 0.184037 0.853316 -0.155688
C55   C     C_R   0.896934 0.350100 0.403375 -0.009759
C56   C     C_R   0.896844 0.649749 0.903968 -0.009804
C57   C     C_R   0.396899 0.850128 0.403478 -0.010034
C58   C     C_R   0.396840 0.149750 0.904009 -0.009916
C59   C     C_R   0.797461 0.234199 0.151646 -0.084973
C60   C     C_R   0.796996 0.765557 0.656782 -0.086271
C61   C     C_R   0.297386 0.734251 0.151901 -0.084646
C62   C     C_R   0.296962 0.265545 0.656904 -0.086253
C63   C     C_R   0.257124 0.701879 0.102172 -0.150108
C64   C     C_3   0.468056 0.714537 0.533039 -0.270413
C65   C     C_R   0.256790 0.298011 0.607517 -0.156099
C66   C     C_R   0.757199 0.201827 0.101890 -0.149587
C67   C     C_R   0.756824 0.798024 0.607412 -0.156493
C68   C     C_R   0.207232 0.719225 0.052538 0.014029
C69   C     C_R   0.207175 0.280744 0.553864 0.017453
C70   C     C_R   0.707304 0.219174 0.052307 0.013611
C71   C     C_R   0.707204 0.780759 0.553819 0.017536
C72   C     C_R   0.198008 0.770190 0.058481 0.433900
C73   C     C_R   0.198050 0.229716 0.556579 0.433374
C74   C     C_R   0.698075 0.270136 0.058339 0.433764
C75   C     C_3   0.468622 0.285270 0.032370 -0.272267
C76   C     C_R   0.698073 0.729732 0.556574 0.433381
C77   C     C_R   0.739712 0.302392 0.101017 -0.145757
C78   C     C_R   0.739634 0.697413 0.599208 -0.146583
C79   C     C_R   0.239645 0.802446 0.101169 -0.145925
C80   C     C_R   0.239611 0.197400 0.599231 -0.146474
C81   C     C_3   0.028100 0.262506 0.041530 0.831639
C82   C     C_3   0.026953 0.737885 0.542537 0.831932
C83   C     C_3   0.528111 0.762531 0.041483 0.831482
C84   C     C_3   0.526821 0.237954 0.542602 0.832102
C85   C     C_R   0.789209 0.284887 0.149408 0.014332
C86   C     C_R   0.881362 0.393361 0.156377 0.080468
C87   C     C_R   0.788927 0.714851 0.650776 0.014979
C88   C     C_R   0.289139 0.784940 0.149601 0.014232
C89   C     C_R   0.288900 0.214839 0.650857 0.014967
C90   C     C_R   0.134538 0.690187 0.853417 -0.066662
C91   C     C_R   0.134738 0.310004 0.353999 -0.064756
C92   C     C_R   0.634579 0.190170 0.853242 -0.067027
C93   C     C_R   0.634752 0.810011 0.353999 -0.065078
C94   C     C_R   0.094559 0.657227 0.804668 -0.049685
C95   C     C_R   0.094706 0.342926 0.305345 -0.046525
C96   C     C_R   0.594579 0.157231 0.804525 -0.049940
C97   C     C_R   0.881296 0.606555 0.656766 0.080665
C98   C     C_R   0.594711 0.842927 0.305377 -0.046636
C99   C     C_R   0.114641 0.610341 0.043665 0.069015
C100  C     C_R   0.114719 0.389686 0.544314 0.065048
C101  C     C_R   0.614678 0.110320 0.043501 0.072586
C102  C     C_R   0.614744 0.889693 0.544317 0.065216
C103  C     C_R   0.155424 0.642554 0.091896 -0.080412
C104  C     C_R   0.155445 0.357481 0.592855 -0.101068
C105  C     C_R   0.655494 0.142503 0.091635 -0.074201
C106  C     C_R   0.655480 0.857498 0.592829 -0.101446
C107  C     C_R   0.164877 0.683856 0.999494 0.043591
C108  C     C_R   0.381335 0.893379 0.156447 0.079959
C109  C     C_R   0.164952 0.316212 0.500422 0.046572
C110  C     C_R   0.664946 0.183808 0.999252 0.043365
C111  C     C_R   0.664980 0.816226 0.500397 0.046618
C112  C     C_R   0.083508 0.619080 0.903419 -0.275225
C113  C     C_R   0.083590 0.380962 0.404184 -0.265718
C114  C     C_R   0.583531 0.119078 0.903279 -0.276110
C115  C     C_R   0.583596 0.880957 0.404233 -0.265514
C116  C     C_3   0.042291 0.210817 0.987994 -0.177405
C117  C     C_3   0.041059 0.789642 0.489415 -0.174870
C118  C     C_3   0.542273 0.710842 0.987864 -0.177274
C119  C     C_R   0.381274 0.106544 0.656816 0.080469
C120  C     C_3   0.540943 0.289708 0.489505 -0.174759
C121  C     C_3   0.148574 0.471374 0.242699 0.385503
C122  C     C_3   0.147595 0.529229 0.739504 0.316462
C123  C     C_3   0.648627 0.971383 0.242917 0.385262
C124  C     C_3   0.647439 0.029343 0.739177 0.304943
C125  C     C_3   0.195686 0.438339 0.251945 0.336920
C126  C     C_3   0.196305 0.560194 0.769869 0.264895
C127  C     C_3   0.695526 0.938111 0.250253 0.335721
C128  C     C_3   0.696168 0.060343 0.770968 0.250760
C129  C     C_3   0.813519 0.495749 0.883645 0.651097
C130  C     C_R   0.842800 0.359342 0.104603 -0.129067
C131  C     C_3   0.813807 0.503805 0.383567 0.651201
C132  C     C_3   0.313509 0.995740 0.883638 0.651075
C133  C     C_3   0.313713 0.003954 0.383617 0.650672
C134  C     C_3   0.762225 0.468994 0.895475 0.187656
C135  C     C_3   0.762282 0.530278 0.393817 0.190344
C136  C     C_3   0.262181 0.969061 0.895627 0.187743
C137  C     C_3   0.262334 0.030631 0.394485 0.188747
C138  C     C_3   0.982376 0.268796 0.549323 0.338503
C139  C     C_3   0.982830 0.730989 0.049619 0.339487
C140  C     C_3   0.482422 0.768833 0.549194 0.338540
H1    H     H_    0.185774 0.402639 0.302352 -0.084497
H2    H     H_    0.831460 0.520481 0.285700 0.092979
H3    H     H_    0.755517 0.441212 0.510784 0.019013
H4    H     H_    0.821585 0.419267 0.554043 0.114008
H5    H     H_    0.777301 0.389052 0.411005 0.061300
H6    H     H_    0.321658 0.081129 0.050736 0.112723
H7    H     H_    0.256013 0.058130 0.012808 0.019819
H8    H     H_    0.276029 0.110175 0.909357 0.060271
H9    H     H_    0.256231 0.941751 0.513669 0.019950
H10   H     H_    0.321873 0.918770 0.551960 0.112962
H11   H     H_    0.276261 0.889546 0.410915 0.060407
H12   H     H_    0.693469 0.416494 0.711444 0.049755
H13   H     H_    0.331031 0.978960 0.785670 0.093512
H14   H     H_    0.694847 0.403854 0.921393 0.044030
H15   H     H_    0.720009 0.360321 0.792416 0.109143
H16   H     H_    0.694662 0.595274 0.419624 0.044242
H17   H     H_    0.693963 0.582975 0.209668 0.048870
H18   H     H_    0.720155 0.639086 0.292157 0.108988
H19   H     H_    0.193444 0.916531 0.711695 0.049656
H20   H     H_    0.194676 0.904042 0.921707 0.044041
H21   H     H_    0.219851 0.860376 0.793183 0.109237
H22   H     H_    0.194749 0.095648 0.419012 0.044228
H23   H     H_    0.193933 0.083091 0.209208 0.049116
H24   H     H_    0.331372 0.020572 0.285652 0.093539
H25   H     H_    0.220222 0.139275 0.290906 0.109133
H26   H     H_    0.147923 0.858380 0.110893 0.019188
H27   H     H_    0.150533 0.809849 0.258944 0.019515
H28   H     H_    0.092806 0.822076 0.134996 0.070618
H29   H     H_    0.149616 0.189960 0.754305 0.018436
H30   H     H_    0.147807 0.141475 0.606308 0.019177
H31   H     H_    0.092425 0.177664 0.627949 0.071211
H32   H     H_    0.647979 0.358330 0.110812 0.019186
H33   H     H_    0.650674 0.309814 0.258931 0.019476
H34   H     H_    0.592900 0.322001 0.135179 0.070645
H35   H     H_    0.731152 0.489376 0.822787 0.011553
H36   H     H_    0.649666 0.689976 0.754364 0.018500
H37   H     H_    0.647825 0.641494 0.606351 0.019191
H38   H     H_    0.592456 0.677693 0.628085 0.071138
H39   H     H_    0.952147 0.309766 0.159436 -0.018501
H40   H     H_    0.942604 0.243715 0.155288 0.001533
H41   H     H_    0.904094 0.282113 0.019898 0.084047
H42   H     H_    0.941713 0.756722 0.657319 0.000661
H43   H     H_    0.951010 0.690652 0.660624 -0.015985
H44   H     H_    0.902936 0.718584 0.521775 0.083205
H45   H     H_    0.452201 0.809811 0.159524 -0.018489
H46   H     H_    0.731628 0.509987 0.318970 0.009460
H47   H     H_    0.442593 0.743763 0.155206 0.001471
H48   H     H_    0.404115 0.782225 0.019925 0.083970
H49   H     H_    0.441632 0.256798 0.657621 0.000641
H50   H     H_    0.450885 0.190725 0.660718 -0.015770
H51   H     H_    0.402798 0.218717 0.522053 0.083240
H52   H     H_    0.231146 0.989419 0.822692 0.011096
H53   H     H_    0.231432 0.010237 0.321042 0.010549
H54   H     H_    0.753426 0.468787 0.020119 0.052891
H55   H     H_    0.752827 0.530011 0.517849 0.052948
H56   H     H_    0.253354 0.968982 0.020243 0.053601
H57   H     H_    0.184973 0.598301 0.792431 -0.008635
H58   H     H_    0.253235 0.030754 0.518848 0.053631
H59   H     H_    0.976508 0.285788 0.430469 -0.155888
H60   H     H_    0.977196 0.713802 0.931019 -0.154735
H61   H     H_    0.476563 0.785860 0.430393 -0.155809
H62   H     H_    0.477264 0.213766 0.931053 -0.154886
H63   H     H_    0.970420 0.197204 0.651643 0.104406
H64   H     H_    0.970209 0.802653 0.150513 0.102954
H65   H     H_    0.470439 0.697213 0.651293 0.104266
H66   H     H_    0.470221 0.302639 0.150414 0.102988
H67   H     H_    0.179466 0.635562 0.201024 0.081683
H68   H     H_    0.685726 0.902570 0.301943 -0.082493
H69   H     H_    0.179372 0.364461 0.702213 0.071319
H70   H     H_    0.679552 0.135497 0.200725 0.081353
H71   H     H_    0.679416 0.864483 0.702168 0.070468
H72   H     H_    0.265053 0.663046 0.101405 0.107741
H73   H     H_    0.264593 0.336857 0.610569 0.078274
H74   H     H_    0.765131 0.162996 0.101072 0.109652
H75   H     H_    0.764631 0.836869 0.610433 0.078315
H76   H     H_    0.835356 0.219701 0.189286 0.078105
H77   H     H_    0.834688 0.780029 0.697263 0.072976
H78   H     H_    0.335279 0.719753 0.189569 0.077990
H79   H     H_    0.684640 0.098981 0.782622 0.001453
H80   H     H_    0.334649 0.280019 0.697426 0.072863
H81   H     H_    0.822469 0.362779 0.988381 0.136625
H82   H     H_    0.822215 0.637025 0.489221 0.135959
H83   H     H_    0.322445 0.862788 0.988467 0.136729
H84   H     H_    0.322184 0.137011 0.489307 0.135987
H85   H     H_    0.733350 0.341403 0.101651 0.071821
H86   H     H_    0.733307 0.658389 0.597499 0.072621
H87   H     H_    0.233286 0.841458 0.101756 0.072068
H88   H     H_    0.233290 0.158376 0.597493 0.072416
H89   H     H_    0.143782 0.718993 0.774343 0.099304
H90   H     H_    0.205978 0.432436 0.130035 0.037605
H91   H     H_    0.144081 0.281308 0.274682 0.097445
H92   H     H_    0.643811 0.218988 0.774196 0.099533
H93   H     H_    0.644092 0.781316 0.274674 0.097461
H94   H     H_    0.850241 0.286340 0.430289 0.081433
H95   H     H_    0.849950 0.713277 0.931544 0.079668
H96   H     H_    0.350169 0.786401 0.430472 0.081356
H97   H     H_    0.349941 0.213273 0.931602 0.079719
H98   H     H_    0.053879 0.593001 0.862622 0.050093
H99   H     H_    0.053942 0.407020 0.363426 0.049485
H100  H     H_    0.553875 0.093021 0.862535 0.049942
H101  H     H_    0.216725 0.561704 0.661730 0.041613
H102  H     H_    0.553932 0.907003 0.363514 0.049682
H103  H     H_    0.927617 0.211304 0.478441 0.084339
H104  H     H_    0.928452 0.788469 0.975210 0.079535
H105  H     H_    0.427694 0.711341 0.477993 0.084159
H106  H     H_    0.428541 0.288446 0.974973 0.079437
H107  H     H_    0.937196 0.414828 0.347277 0.054462
H108  H     H_    0.937313 0.585199 0.847335 0.054950
H109  H     H_    0.437188 0.914836 0.347316 0.054685
H110  H     H_    0.437311 0.085202 0.847351 0.054954
H111  H     H_    0.031988 0.262783 0.173727 -0.232048
H112  H     H_    0.705069 0.931927 0.127707 0.032142
H113  H     H_    0.031040 0.737373 0.674725 -0.231404
H114  H     H_    0.532002 0.762785 0.173680 -0.231802
H115  H     H_    0.530942 0.237416 0.674789 -0.231475
H116  H     H_    0.046833 0.211292 0.860684 0.036890
H117  H     H_    0.045052 0.789338 0.361710 0.036363
H118  H     H_    0.546786 0.711327 0.860537 0.036870
H119  H     H_    0.544884 0.289413 0.361763 0.036391
H120  H     H_    0.139398 0.479401 0.363365 -0.007339
H121  H     H_    0.131819 0.522501 0.852560 0.015422
H122  H     H_    0.640024 0.979473 0.364098 -0.006736
H123  H     H_    0.718885 0.059347 0.667688 0.049131
H124  H     H_    0.631095 0.022764 0.851422 0.019264
H125  H     H_    0.115607 0.452342 0.176204 -0.029619
H126  H     H_    0.118667 0.549171 0.659411 0.014661
H127  H     H_    0.615341 0.952485 0.177594 -0.031024
H128  H     H_    0.618817 0.049226 0.657874 0.020975
H129  H     H_    0.294570 0.430532 0.229372 0.024423
H130  H     H_    0.274458 0.393775 0.390431 0.015281
H131  H     H_    0.312090 0.448020 0.430617 0.071239
H132  H     H_    0.290030 0.500549 0.973524 0.063475
H133  H     H_    0.295330 0.537565 0.802516 0.028147
H134  H     H_    0.831088 0.479033 0.785681 0.093552
H135  H     H_    0.254709 0.483059 0.790486 0.063875
H136  H     H_    0.793800 0.928574 0.223769 0.016840
H137  H     H_    0.774366 0.893407 0.389116 0.017403
H138  H     H_    0.812762 0.947433 0.422817 0.074127
H139  H     H_    0.784270 0.002552 0.003810 0.069582
H140  H     H_    0.792478 0.030487 0.818229 0.025268
H141  H     H_    0.747920 0.979432 0.829789 0.058323
H142  H     H_    0.821614 0.581110 0.050926 0.112465
H143  H     H_    0.755999 0.558029 0.013129 0.019337
H144  H     H_    0.775912 0.610133 0.909717 0.060283
N1    N     N_1   0.078578 0.279905 0.664819 -0.270334
N2    N     N_1   0.969730 0.854309 0.532545 -0.286376
N3    N     N_1   0.470461 0.646253 0.026914 -0.276631
N4    N     N_1   0.469693 0.354415 0.533017 -0.286704
N5    N     N_1   0.130054 0.182146 0.138566 -0.294736
N6    N     N_1   0.129432 0.817873 0.637219 -0.295559
N7    N     N_1   0.630055 0.682130 0.138235 -0.294652
N8    N     N_1   0.629387 0.317861 0.637027 -0.295580
N9    N     N_1   0.078832 0.719861 0.167202 -0.270510
N10   N     N_1   0.578609 0.779942 0.664845 -0.270228
N11   N     N_1   0.578889 0.219825 0.167269 -0.271145
N12   N     N_1   0.027579 0.165022 0.362841 -0.266657
N13   N     N_1   0.029423 0.834729 0.865998 -0.266261
N14   N     N_1   0.527724 0.665104 0.362686 -0.266678
N15   N     N_1   0.529574 0.334709 0.866210 -0.266349
N16   N     N_1   0.970491 0.146207 0.026956 -0.276096
O1    O     O_2   0.898940 0.431940 0.867860 -0.471076
O2    O     O_3   0.061679 0.705282 0.483298 -0.583292
O3    O     O_3   0.562975 0.795298 0.983471 -0.583831
O4    O     O_3   0.561506 0.205349 0.483194 -0.583214
O5    O     O_3   0.058810 0.523750 0.066650 -0.504047
O6    O     O_3   0.058810 0.476250 0.566650 -0.501180
O7    O     O_3   0.558810 0.023750 0.066650 -0.504073
O8    O     O_3   0.558810 0.976250 0.566650 -0.500786
O9    O     O_3   0.941140 0.476130 0.123050 -0.467681
O10   O     O_3   0.941140 0.523870 0.623050 -0.467805
O11   O     O_3   0.441140 0.976130 0.123050 -0.467651
O12   O     O_2   0.898940 0.568060 0.367860 -0.470911
O13   O     O_3   0.441140 0.023870 0.623050 -0.467608
O14   O     O_3   0.982430 0.389880 0.635700 -0.471177
O15   O     O_3   0.982430 0.610120 0.135700 -0.472624
O16   O     O_3   0.482430 0.889880 0.635700 -0.471000
O17   O     O_3   0.482430 0.110120 0.135700 -0.472908
O18   O     O_2   0.891725 0.357842 0.718917 -0.461861
O19   O     O_2   0.891882 0.642259 0.219681 -0.461207
O20   O     O_2   0.391766 0.857805 0.719113 -0.461857
O21   O     O_2   0.391908 0.142282 0.219766 -0.460958
O22   O     O_3   0.846095 0.493730 0.027803 -0.665404
O23   O     O_2   0.398940 0.931940 0.867860 -0.470967
O24   O     O_3   0.846066 0.506281 0.528232 -0.664590
O25   O     O_3   0.346098 0.993734 0.027782 -0.665172
O26   O     O_3   0.346119 0.006230 0.528053 -0.664714
O27   O     O_3   0.952101 0.289206 0.658636 -0.551399
O28   O     O_3   0.952247 0.710818 0.158530 -0.552262
O29   O     O_3   0.452127 0.789197 0.658532 -0.551449
O30   O     O_3   0.452292 0.210819 0.158536 -0.552201
O31   O     O_2   0.100770 0.431440 0.821660 -0.439851
O32   O     O_2   0.100770 0.568560 0.321660 -0.447738
O33   O     O_2   0.600770 0.931440 0.821660 -0.439957
O34   O     O_2   0.398940 0.068060 0.367860 -0.470849
O35   O     O_2   0.600770 0.068560 0.321660 -0.448782
O36   O     O_3   0.017130 0.389790 0.053700 -0.466533
O37   O     O_3   0.017130 0.610210 0.553700 -0.468228
O38   O     O_3   0.517130 0.889790 0.053700 -0.466282
O39   O     O_3   0.517130 0.110210 0.553700 -0.468340
O40   O     O_2   0.115109 0.372604 0.028401 -0.485750
O41   O     O_2   0.114700 0.628628 0.525739 -0.482524
O42   O     O_2   0.615108 0.872647 0.028487 -0.486113
O43   O     O_2   0.614610 0.128785 0.525281 -0.482456
O44   O     O_3   0.236519 0.460533 0.348264 -0.628012
O45   O     O_3   0.159926 0.485237 0.669709 -0.648181
O46   O     O_3   0.227033 0.543401 0.906067 -0.632602
O47   O     O_3   0.736968 0.960265 0.343980 -0.628142
O48   O     O_3   0.724526 0.046569 0.914932 -0.636903
O49   O     O_3   0.804464 0.545072 0.836537 -0.713729
O50   O     O_3   0.805194 0.454344 0.337331 -0.715001
O51   O     O_3   0.304515 0.045058 0.836392 -0.714195
O52   O     O_3   0.304794 0.954555 0.337152 -0.714848
O53   O     O_3   0.765583 0.420642 0.840302 -0.699316
O54   O     O_3   0.765764 0.578836 0.340558 -0.698782
O55   O     O_3   0.265500 0.920652 0.840931 -0.699204
O56   O     O_3   0.159833 0.514637 0.166667 -0.602712
O57   O     O_3   0.265785 0.079021 0.339723 -0.699000
O58   O     O_3   0.148248 0.787599 0.021170 -0.634419
O59   O     O_3   0.148422 0.212281 0.516869 -0.634729
O60   O     O_3   0.648308 0.287542 0.021151 -0.634422
O61   O     O_3   0.648440 0.712300 0.516921 -0.634728
O62   O     O_3   0.978173 0.274187 0.970243 -0.623105
O63   O     O_3   0.976964 0.726287 0.471569 -0.623078
O64   O     O_3   0.478187 0.774246 0.970223 -0.623051
O65   O     O_3   0.476813 0.226391 0.471709 -0.623057
O66   O     O_3   0.659910 0.985274 0.670053 -0.651630
O67   O     O_3   0.659803 0.014598 0.166505 -0.601196
O68   O     O_3   0.062945 0.295278 0.983455 -0.583840
P1    P     P_3+3 0.893960 0.447890 0.040050 1.029151
P2    P     P_3+3 0.068731 0.651915 0.596168 0.978157
P3    P     P_3+3 0.569169 0.848604 0.096860 0.980356
P4    P     P_3+3 0.568665 0.151986 0.596053 0.977830
P5    P     P_3+3 0.931282 0.652299 0.101966 1.012170
P6    P     P_3+3 0.931238 0.347708 0.601636 1.012748
P7    P     P_3+3 0.431293 0.152308 0.101993 1.012198
P8    P     P_3+3 0.431241 0.847706 0.601685 1.012773
P9    P     P_3+3 0.893960 0.552110 0.540050 1.030285
P10   P     P_3+3 0.393960 0.947890 0.040050 1.029291
P11   P     P_3+3 0.393960 0.052110 0.540050 1.029968
P12   P     P_3+3 0.105800 0.447360 0.649510 0.985579
P13   P     P_3+3 0.105800 0.552640 0.149510 1.009321
P14   P     P_3+3 0.605800 0.947360 0.649510 0.983455
P15   P     P_3+3 0.605800 0.052640 0.149510 1.011847
P16   P     P_3+3 0.069162 0.348589 0.096824 0.980263

loop_
_geom_bond_atom_site_label_1
_geom_bond_atom_site_label_2
_ccdc_geom_bond_type
C64   H105  S    
Ba3   O23   S    
O31   P12   D    
C4    H107  S    
C54   C58   A    
O27   P6    S    
O66   P14   S    
C119  P11   S    
O14   P6    S    
C132  C136  S    
C7    C58   A    
C24   H84   S    
C24   C119  A    
C34   H27   S    
O67   P15   S    
C131  C135  S    
C99   P13   S    
C66   H74   S    
O12   P9    D    
C115  H102  S    
C12   O44   S    
C86   C130  A    
C91   C95   A    
C31   N2    T    
C70   C110  S    
O19   P5    D    
C90   C107  A    
C127  O47   S    
C42   O65   S    
C28   N14   T    
C41   H47   S    
C38   H36   S    
C66   C70   A    
C122  H121  S    
C22   H16   S    
C93   C111  A    
C125  H1    S    
C104  H69   S    
C3    C11   S    
C15   H136  S    
C122  O45   S    
C11   N11   T    
C77   H85   S    
C21   O53   S    
C137  H53   S    
C3    H62   S    
C13   C48   A    
C23   O55   S    
C61   H78   S    
O15   P5    S    
C132  O51   S    
C20   H10   S    
C38   H37   S    
C30   C116  S    
C10   C140  S    
C81   H111  S    
C59   C66   A    
C40   O63   S    
C50   H94   S    
C118  H118  S    
C116  H116  S    
C78   C87   A    
C25   H22   S    
C82   H113  S    
C1    H63   S    
Ba3   P14   S    
C93   H93   S    
C131  H2    S    
C82   C117  S    
C9    N9    T    
C41   O64   S    
C95   P16   S    
C23   H21   S    
C113  H99   S    
C12   H130  S    
C37   H32   S    
C18   H4    S    
C101  C114  A    
C6    C57   A    
C71   C111  S    
O40   P16   D    
C126  O46   S    
C44   N6    T    
C3    C75   S    
C100  C113  A    
C122  H126  S    
C76   O61   S    
C83   C118  S    
C49   C54   A    
C96   P4    S    
C124  O66   S    
C22   H17   S    
C108  P10   S    
O42   P3    D    
C27   C53   S    
C99   C112  A    
C136  H56   S    
O39   P4    S    
C36   H30   S    
C26   N12   T    
C33   N4    T    
C29   N15   T    
C121  H120  S    
C39   H39   S    
C129  O49   S    
C45   N7    T    
C80   C89   A    
Ba3   O13   S    
O37   P2    S    
C80   H88   S    
C123  C127  S    
O34   P11   D    
C14   H135  S    
C121  C125  S    
C82   O2    S    
C30   N16   T    
O41   P2    D    
C122  C126  S    
O43   P4    D    
C99   C103  A    
C60   C87   A    
C25   H25   S    
C35   C85   S    
C133  H24   S    
C98   C115  A    
C35   C130  A    
C75   H66   S    
Ba1   O6    S    
C54   H97   S    
C6    H109  S    
Ba3   O8    S    
C84   C120  S    
C135  H46   S    
O20   P8    D    
C67   H75   S    
O35   P15   D    
O28   P5    S    
C37   H33   S    
Ba4   O7    S    
C14   O46   S    
C35   C50   A    
C39   H41   S    
O25   P10   S    
C7    H110  S    
C63   C68   A    
C84   H115  S    
C23   H19   S    
O18   P6    D    
C16   H139  S    
C17   H142  S    
C123  H127  S    
Ba1   O10   S    
C21   H12   S    
C124  H128  S    
C63   H72   S    
Ba4   O35   S    
C134  H35   S    
C126  H101  S    
C114  H100  S    
C42   H50   S    
C14   H132  S    
C50   C55   A    
C15   H137  S    
Ba2   O32   S    
C130  H81   S    
C137  H58   S    
C76   C78   A    
C105  H70   S    
C27   N13   T    
C44   C117  S    
C73   C80   A    
O16   P8    S    
Ba1   O1    S    
C19   O51   S    
C21   H15   S    
C37   O60   S    
C95   C113  A    
C14   H133  S    
C17   H143  S    
C73   O59   S    
C59   C85   A    
C2    C46   A    
C65   C69   A    
C47   N8    T    
C105  C110  A    
C62   C89   A    
O4    P4    S    
C43   C116  S    
C38   O61   S    
C84   O4    S    
O56   P13   S    
C57   P8    S    
Ba4   O17   S    
C75   H106  S    
Ba3   Ba4   S    
C136  O55   S    
C137  O57   S    
C1    C26   S    
C131  O24   S    
C101  C105  A    
C69   C73   A    
C103  C107  A    
C34   H28   S    
C39   O62   S    
O24   P9    S    
C10   N10   T    
C128  H123  S    
C13   H83   S    
C1    C138  S    
C79   H87   S    
C92   C96   A    
C58   P7    S    
C64   C140  S    
C133  O52   S    
C16   H141  S    
C43   N5    T    
C17   H144  S    
C68   C107  S    
C133  O26   S    
C40   H43   S    
C46   C87   S    
O5    P13   S    
O10   P9    S    
C81   O62   S    
C21   H14   S    
C134  O53   S    
C34   O58   S    
C32   N3    T    
C19   H8    S    
C102  C115  A    
C92   C110  A    
C38   H38   S    
O11   P10   S    
C53   H64   S    
C42   H49   S    
C3    O30   S    
C65   H73   S    
C74   O60   S    
C135  O54   S    
C12   H131  S    
Ba1   O31   S    
C103  H67   S    
C90   C94   A    
O22   P1    S    
C128  H79   S    
C123  O67   S    
C72   C79   A    
C60   C67   A    
C20   O52   S    
C81   O68   S    
O1    P1    D    
C61   C63   A    
Ba2   O5    S    
O23   P10   D    
C6    C108  A    
O38   P3    S    
C93   C98   A    
C121  O56   S    
C77   C85   A    
C78   H86   S    
C18   H5    S    
C129  C134  S    
C51   C56   A    
C22   O54   S    
C47   C120  S    
C53   H104  S    
Ba4   O11   S    
C34   H26   S    
C112  H98   S    
C56   P5    S    
C31   C117  S    
C5    H108  S    
Ba4   O34   S    
C140  O29   S    
O21   P7    D    
C127  H112  S    
C29   C75   S    
C120  H119  S    
O6    P12   S    
C22   H18   S    
C98   P3    S    
C59   H76   S    
C41   H48   S    
O26   P11   S    
O68   P16   S    
Ba1   O14   S    
C139  O28   S    
C124  H124  S    
Ba2   O9    S    
O13   P11   S    
Ba4   O39   S    
Ba3   O16   S    
Ba1   O36   S    
C126  H57   S    
C19   H6    S    
C48   C88   S    
C96   C114  A    
C100  C104  A    
Ba2   P13   S    
C20   H9    S    
C62   H80   S    
C133  C137  S    
O32   P13   D    
Ba3   O7    S    
C7    C119  A    
Ba3   O33   S    
C97   P9    S    
C24   C49   A    
C90   H89   S    
C125  H90   S    
C5    C56   A    
C25   H23   S    
C55   P6    S    
C106  H71   S    
C4    C55   A    
O29   P8    S    
Ba4   O8    S    
C74   C77   A    
C2    H82   S    
C8    C138  S    
C125  O44   S    
Ba1   O5    S    
C9    C139  S    
C129  H134  S    
C86   P1    S    
C18   H3    S    
C70   C74   A    
C52   C57   A    
C83   O64   S    
C16   H140  S    
C106  C111  A    
O8    P14   S    
C40   H42   S    
C104  C109  A    
C61   C88   A    
C123  H122  S    
C17   O49   S    
C100  P12   S    
C68   C72   A    
C138  O27   S    
C42   H51   S    
Ba1   P1    S    
C79   C88   A    
C36   O59   S    
C132  O25   S    
C52   H96   S    
C36   H29   S    
C135  H55   S    
C62   C65   A    
C83   O3    S    
C39   H40   S    
C15   O47   S    
Ba2   O15   S    
Ba1   Ba2   S    
C2    C97   A    
C102  P14   S    
C72   O58   S    
Ba4   P11   S    
C117  H117  S    
O3    P3    S    
C94   P2    S    
C131  O50   S    
Ba4   P15   S    
C71   C76   A    
C69   C109  S    
C20   H11   S    
C28   C64   S    
C82   O63   S    
C91   H91   S    
C1    H103  S    
C64   H65   S    
C124  C128  S    
C83   H114  S    
C53   C139  S    
C49   C89   S    
Ba2   P9    S    
C37   H34   S    
C101  P15   S    
C8    N1    T    
C128  O48   S    
O36   P16   S    
C140  H61   S    
C121  H125  S    
C81   C116  S    
C32   C118  S    
C18   O50   S    
C23   H20   S    
C33   C120  S    
C94   C112  A    
Ba1   P12   S    
C92   H92   S    
Ba3   P10   S    
O30   P7    S    
C136  H52   S    
C40   H44   S    
C132  H13   S    
C134  H54   S    
C41   H45   S    
O7    P15   S    
Ba2   O12   S    
C4    C86   A    
C13   C108  A    
Ba2   O37   S    
O9    P1    S    
C102  C106  A    
C84   O65   S    
C15   H138  S    
C19   H7    S    
O2    P2    S    
C12   H129  S    
C36   H31   S    
C129  O22   S    
C46   C51   A    
C138  H59   S    
C16   O48   S    
O45   P12   S    
Ba3   O38   S    
C67   C71   A    
C25   O57   S    
O33   P14   D    
C91   C109  A    
C45   C118  S    
C60   H77   S    
C139  H60   S    
O17   P7    S    
C5    C97   A    
Ba2   O6    S    
C127  H68   S    
C51   H95   S    
C48   C52   A    
