data_mof_unit_67769.cif
_audit_creation_date              2012-12-10T16:50:10-0500
_audit_creation_method            fapswitch 2.2
_symmetry_space_group_name_H-M    P1
_symmetry_Int_Tables_number       1
_space_group_crystal_system       triclinic
_cell_length_a                    7.970391
_cell_length_b                    8.66777
_cell_length_c                    10.82526
_cell_angle_alpha                 88.227742
_cell_angle_beta                  86.527718
_cell_angle_gamma                 92.716622
_cell_volume                      745.228288588

loop_
_atom_site_label
_atom_site_type_symbol
_atom_type_description
_atom_site_fract_x
_atom_site_fract_y
_atom_site_fract_z
_atom_type_partial_charge
C1    C     C_R   0.543665 0.793971 0.489961 0.914089
C2    C     C_R   0.457004 0.206334 0.507108 0.968043
C3    C     C_R   0.495988 0.495270 0.260723 0.908313
C4    C     C_R   0.175015 0.512811 0.893179 -0.265413
C5    C     C_R   0.078301 0.629858 0.935651 0.414751
C6    C     C_R   0.088554 0.676087 0.057426 0.370137
C7    C     C_R   0.236363 0.641977 0.114884 0.031124
C8    C     C_R   0.347057 0.531904 0.066163 -0.015619
C9    C     C_3   0.032381 0.773449 0.443832 0.223207
C10   C     C_3   0.030087 0.944885 0.470340 -0.393364
C11   C     C_3   0.093475 0.043806 0.356337 -0.774358
C12   C     C_R   0.330247 0.487891 0.944454 -0.037573
C13   C     C_3   0.100306 0.834407 0.792407 0.117888
C14   C     C_3   0.191176 0.946224 0.878921 -0.423922
C15   C     C_3   0.252240 0.100941 0.817072 -0.903519
C16   C     C_3   0.810406 0.753426 0.080305 0.163555
C17   C     C_3   0.746433 0.881551 0.994849 -0.243799
C18   C     C_3   0.635522 0.819858 0.895607 -0.881491
C19   C     C_R   0.478101 0.444606 0.873996 -0.129022
C20   C     C_R   0.608945 0.382772 0.937074 0.156658
C21   C     C_R   0.605959 0.391938 0.064938 -0.238879
C22   C     C_R   0.484763 0.477864 0.128277 -0.100732
C23   C     C_2   0.558068 0.957523 0.464619 0.009714
C24   C     C_2   0.446132 0.042602 0.524561 -0.423864
C25   C     C_R   0.496567 0.480290 0.739282 0.865215
H1    H     H_    0.133114 0.454938 0.813119 0.241100
H2    H     H_    0.231388 0.063250 0.352073 0.283613
H3    H     H_    0.038512 0.156326 0.358383 0.252595
H4    H     H_    0.017106 0.903590 0.736948 0.192706
H5    H     H_    0.194385 0.783751 0.727564 0.192487
H6    H     H_    0.110414 0.973261 0.960515 0.290086
H7    H     H_    0.300309 0.890052 0.914192 0.234473
H8    H     H_    0.384300 0.096723 0.779682 0.253393
H9    H     H_    0.250718 0.189869 0.888213 0.290937
H10   H     H_    0.170340 0.137517 0.743291 0.274078
H11   H     H_    0.732736 0.748302 0.168704 0.165542
H12   H     H_    0.706163 0.341736 0.113413 0.203903
H13   H     H_    0.787683 0.638867 0.040791 0.156570
H14   H     H_    0.673802 0.964078 0.049261 0.246787
H15   H     H_    0.850670 0.950391 0.947267 0.263504
H16   H     H_    0.593542 0.917621 0.838682 0.260887
H17   H     H_    0.525049 0.755358 0.939829 0.253997
H18   H     H_    0.701830 0.741773 0.832698 0.315238
H19   H     H_    0.361045 0.991652 0.597231 0.140768
H20   H     H_    0.009909 0.370407 0.424810 0.155693
H21   H     H_    0.940926 0.746087 0.373359 0.176534
H22   H     H_    0.154973 0.747593 0.400053 0.197149
H23   H     H_    0.901247 0.973810 0.502244 0.246127
H24   H     H_    0.108910 0.972673 0.546696 0.206804
H25   H     H_    0.055438 0.991225 0.269808 0.314482
I1    I     I_    0.806902 0.265492 0.847870 -0.464913
I2    I     I_    0.352801 0.836672 0.186291 -0.481947
I3    I     I_    0.696586 0.045263 0.300033 -0.440659
N1    N     N_2   0.950330 0.457950 0.466250 -0.121717
N2    N     N_2   0.049670 0.542050 0.533750 0.104163
O1    O     O_R   0.389250 0.738570 0.508280 -0.637440
O2    O     O_3   0.992818 0.715448 0.853064 -0.622520
O3    O     O_3   0.981201 0.783863 0.108103 -0.662513
O4    O     O_R   0.678390 0.711630 0.486650 -0.585330
O5    O     O_R   0.355400 0.513470 0.694050 -0.641658
O6    O     O_R   0.644540 0.486530 0.672420 -0.545042
O7    O     O_R   0.321610 0.288370 0.513350 -0.646080
O8    O     O_R   0.610750 0.261430 0.491720 -0.575903
O9    O     O_R   0.355460 0.513470 0.327580 -0.626127
O10   O     O_R   0.644600 0.486530 0.305950 -0.635879
O11   O     O_3   0.993070 0.683435 0.553906 -0.526855
Zn1   Zn    Zn3+2 0.306930 0.517990 0.514440 0.965084
Zn2   Zn    Zn3+2 0.693070 0.482010 0.485560 1.024747

loop_
_geom_bond_atom_site_label_1
_geom_bond_atom_site_label_2
_ccdc_geom_bond_type
C7    I2    S    
N2    Zn1   S    
C23   C24   D    
C23   I3    S    
C6    C7    A    
C25   O5    A    
C5    O2    S    
O4    Zn2   S    
C4    C12   A    
O1    Zn1   S    
C9    C10   S    
C6    O3    S    
C15   H9    S    
C8    C22   A    
C19   C20   A    
C14   C15   S    
C11   H2    S    
C14   H6    S    
C8    C12   A    
O10   Zn2   S    
C20   C21   A    
C1    O4    A    
C17   C18   S    
C10   H23   S    
C9    H21   S    
C11   H25   S    
C25   O6    A    
C21   C22   A    
C16   H11   S    
C2    C24   S    
O6    Zn2   S    
C3    O10   A    
O7    Zn1   S    
C19   C25   S    
C11   H3    S    
C12   C19   A    
C15   H10   S    
C1    O1    A    
H20   N1    S    
C1    C23   S    
C20   I1    S    
C18   H17   S    
C3    O9    A    
C5    C6    A    
C24   H19   S    
C4    H1    S    
C9    H22   S    
N1    Zn2   S    
C10   C11   S    
N1    N2    D    
O9    Zn1   S    
C13   H5    S    
C7    C8    A    
N2    O11   S    
C21   H12   S    
C2    O8    A    
C17   H14   S    
C18   H16   S    
C13   H4    S    
C9    O11   S    
C4    C5    A    
C3    C22   S    
C16   O3    S    
C13   C14   S    
C13   O2    S    
O8    Zn2   S    
C18   H18   S    
C10   H24   S    
C14   H7    S    
C15   H8    S    
C2    O7    A    
O5    Zn1   S    
C16   H13   S    
C16   C17   S    
C17   H15   S    
