data_mof_unit_47340.cif
_audit_creation_date              2012-12-10T17:35:39-0500
_audit_creation_method            fapswitch 2.2
_symmetry_space_group_name_H-M    P1
_symmetry_Int_Tables_number       1
_space_group_crystal_system       triclinic
_cell_length_a                    10.71558
_cell_length_b                    12.31079
_cell_length_c                    13.218755
_cell_angle_alpha                 116.296882
_cell_angle_beta                  77.858137
_cell_angle_gamma                 101.09447
_cell_volume                      1518.51720883

loop_
_atom_site_label
_atom_site_type_symbol
_atom_type_description
_atom_site_fract_x
_atom_site_fract_y
_atom_site_fract_z
_atom_type_partial_charge
C1    C     C_R   0.510472 0.854903 0.286746 0.781434
C2    C     C_3   0.122060 0.996950 0.496858 0.136536
C3    C     C_3   0.069044 0.108071 0.600918 -0.409136
C4    C     C_3   0.043879 0.879102 0.503324 -0.378537
C5    C     C_R   0.397582 0.268208 0.031509 -0.179546
C6    C     C_R   0.463936 0.228003 0.833792 -0.078784
C7    C     C_R   0.579519 0.820779 0.086116 -0.269594
C8    C     C_R   0.610435 0.744554 0.972557 -0.240351
C9    C     C_R   0.585614 0.617371 0.933657 0.469335
C10   C     C_R   0.507959 0.566511 0.008653 -0.018316
C11   C     C_R   0.471133 0.647056 0.124178 -0.049029
C12   C     C_R   0.739810 0.998581 0.498870 0.749856
C13   C     C_R   0.470552 0.438652 0.976335 0.012469
C14   C     C_R   0.414661 0.394193 0.060306 0.044566
C15   C     C_R   0.367795 0.475663 0.169270 0.433733
C16   C     C_R   0.389647 0.599528 0.197427 -0.259416
C17   C     C_R   0.480654 0.353132 0.863004 -0.183997
C18   C     C_R   0.426159 0.185522 0.918879 -0.222669
C19   C     C_R   0.516452 0.773213 0.164093 -0.076068
C20   C     C_R   0.668865 0.328585 0.304195 -0.309590
C21   C     C_R   0.329296 0.763331 0.647801 0.031921
C22   C     C_R   0.279495 0.663415 0.671899 -0.308250
C23   C     C_R   0.481119 0.144976 0.713038 0.798352
C24   C     C_R   0.328450 0.550605 0.607360 0.185882
C25   C     C_R   0.444304 0.545093 0.528390 -0.000748
C26   C     C_R   0.486221 0.649224 0.502417 0.258959
C27   C     C_R   0.516668 0.440902 0.468594 -0.035472
C28   C     C_R   0.606513 0.433384 0.370863 0.197538
C29   C     C_R   0.638722 0.532726 0.343418 -0.270506
C30   C     C_R   0.586950 0.640874 0.412934 -0.177623
C31   C     C_R   0.510606 0.346517 0.503808 0.026887
C32   C     C_R   0.650656 0.235080 0.339099 0.056007
C33   C     C_R   0.260213 0.999152 0.498597 0.755407
C34   C     C_3   0.957952 0.996308 0.381736 0.008428
C35   C     C_3   0.102921 0.999697 0.384968 -0.380251
C36   C     C_3   0.926931 0.110429 0.597123 -0.416917
C37   C     C_3   0.900208 0.881022 0.508090 -0.382499
C38   C     C_3   0.878064 0.995307 0.495392 0.112310
Cu1   Cu    Cu3+1 0.529690 0.098270 0.475420 0.926449
Cu2   Cu    Cu3+1 0.470310 0.901730 0.524580 0.911231
H1    H     H_    0.944886 0.082281 0.378375 0.156148
H2    H     H_    0.058536 0.870936 0.580513 0.177645
H3    H     H_    0.868438 0.114739 0.678847 0.164446
H4    H     H_    0.077615 0.102598 0.680986 0.158854
H5    H     H_    0.411854 0.088798 0.897856 0.154478
H6    H     H_    0.359750 0.233320 0.095449 0.169000
H7    H     H_    0.490970 0.381583 0.795642 0.210453
H8    H     H_    0.610549 0.917416 0.113554 0.172039
H9    H     H_    0.660619 0.784935 0.915222 0.146654
H10   H     H_    0.340037 0.656960 0.278003 0.187055
H11   H     H_    0.697037 0.153230 0.287109 0.122345
H12   H     H_    0.710623 0.529467 0.271196 0.146420
H13   H     H_    0.732159 0.319370 0.225987 0.135612
H14   H     H_    0.460914 0.353646 0.585161 0.134308
H15   H     H_    0.284907 0.847006 0.694337 0.136820
H16   H     H_    0.195305 0.672304 0.735664 0.138435
H17   H     H_    0.627954 0.715949 0.392539 0.199542
H18   H     H_    0.145557 0.921362 0.311131 0.155664
H19   H     H_    0.156057 0.083713 0.378160 0.162656
H20   H     H_    0.916464 0.194462 0.589220 0.167494
H21   H     H_    0.126084 0.194100 0.603074 0.176350
H22   H     H_    0.848451 0.882471 0.591032 0.182948
H23   H     H_    0.861549 0.795889 0.439915 0.154697
H24   H     H_    0.077168 0.797420 0.427590 0.164205
N1    N     N_R   0.574690 0.246280 0.438200 -0.181288
N2    N     N_R   0.426100 0.754320 0.561190 -0.205502
O1    O     O_R   0.537340 0.972510 0.318130 -0.585522
O2    O     O_R   0.487200 0.806530 0.359650 -0.601971
O3    O     O_R   0.707380 0.082980 0.479220 -0.583312
O4    O     O_R   0.657240 0.917000 0.520740 -0.602921
O5    O     O_R   0.512800 0.193470 0.640350 -0.590197
O6    O     O_R   0.462660 0.027490 0.681870 -0.586986
O7    O     O_R   0.342760 0.083000 0.479260 -0.581172
O8    O     O_R   0.292620 0.917020 0.520780 -0.597691
O9    O     O_3   0.300084 0.435250 0.249884 -0.614984
C39   C     C_3   0.167504 0.413294 0.240280 0.031424
H25   H     H_    0.124951 0.339840 0.268498 0.167463
H26   H     H_    0.147971 0.378272 0.150740 0.122608
C40   C     C_3   0.101080 0.528498 0.316819 -0.374034
H27   H     H_    0.135062 0.573287 0.401446 0.239633
H28   H     H_    0.124456 0.593513 0.276530 0.194495
C41   C     C_3   0.955939 0.498904 0.333225 -0.938937
H29   H     H_    0.921551 0.455650 0.249018 0.249751
H30   H     H_    0.910552 0.584127 0.386297 0.257151
H31   H     H_    0.927553 0.436706 0.376634 0.270020
O10   O     O_3   0.629759 0.544270 0.821060 -0.648498
C42   C     C_3   0.763703 0.568831 0.790771 0.044511
H32   H     H_    0.807365 0.483055 0.761379 0.161096
H33   H     H_    0.814523 0.638475 0.862377 0.123207
C43   C     C_3   0.786595 0.606338 0.691632 -0.322005
H34   H     H_    0.745459 0.531031 0.617332 0.229969
H35   H     H_    0.737316 0.687945 0.716705 0.210393
C44   C     C_3   0.929450 0.635456 0.656291 -0.958796
H36   H     H_    0.972799 0.710218 0.729412 0.247584
H37   H     H_    0.942279 0.665493 0.586727 0.264862
H38   H     H_    0.979767 0.553238 0.625144 0.267692
C45   C     C_3   0.912720 0.888183 0.273158 -0.398572
C46   C     C_3   0.962872 0.910354 0.165960 -0.874943
H39   H     H_    0.927453 0.993428 0.174282 0.242885
H40   H     H_    0.069493 0.921322 0.150927 0.252588
H41   H     H_    0.927556 0.831341 0.090968 0.243594
H42   H     H_    0.944950 0.802096 0.261064 0.208426
H43   H     H_    0.806237 0.874248 0.281198 0.195003
C47   C     C_3   0.236594 0.439791 0.608343 -0.414356
C48   C     C_3   0.191917 0.362938 0.492121 -0.812786
H44   H     H_    0.109728 0.295188 0.498371 0.217005
H45   H     H_    0.158166 0.422552 0.463180 0.269161
H46   H     H_    0.270512 0.314270 0.428073 0.270666
H47   H     H_    0.273581 0.384350 0.639210 0.178987
H48   H     H_    0.148437 0.469055 0.670302 0.190031

loop_
_geom_bond_atom_site_label_1
_geom_bond_atom_site_label_2
_ccdc_geom_bond_type
C2    C35   S    
C15   O9    S    
C12   O3    A    
C44   H36   S    
C21   N2    A    
C39   C40   S    
C42   H32   S    
C34   C45   S    
C37   H22   S    
C7    C8    A    
C48   H45   S    
C11   C19   A    
C37   C38   S    
Cu2   O4    S    
C35   H18   S    
C28   C29   A    
C39   H26   S    
C47   H47   S    
C15   C16   A    
C46   H39   S    
C30   H17   S    
C1    O2    A    
C35   H19   S    
C34   C35   S    
C7    C19   A    
C8    C9    A    
C9    C10   A    
C45   H42   S    
C44   H37   S    
Cu2   N2    S    
C21   C22   A    
Cu1   N1    S    
C34   H1    S    
C47   C48   S    
C37   H23   S    
C45   C46   S    
C3    H21   S    
C6    C18   A    
C48   H46   S    
C3    H4    S    
C1    C19   S    
C27   C31   A    
C26   N2    A    
C23   O5    A    
C24   C25   A    
Cu1   Cu2   S    
C40   H28   S    
O10   C42   S    
C22   H16   S    
C5    C18   A    
C20   C28   A    
C25   C26   A    
C24   C47   S    
C2    C4    S    
O9    C39   S    
C32   H11   S    
C29   C30   A    
C9    O10   S    
C11   C16   A    
C43   H35   S    
Cu1   O3    S    
C39   H25   S    
C5    C14   A    
C45   H43   S    
C5    H6    S    
C2    C33   S    
C33   O7    A    
C26   C30   A    
C44   H38   S    
C41   H30   S    
C42   H33   S    
C22   C24   A    
C41   H31   S    
C18   H5    S    
C43   C44   S    
C21   H15   S    
C20   C32   A    
C31   N1    A    
C6    C17   A    
C12   O4    A    
Cu2   O6    S    
C34   C38   S    
Cu1   O1    S    
C23   O6    A    
C17   H7    S    
C16   H10   S    
C20   H13   S    
C36   H20   S    
C10   C13   A    
C40   C41   S    
C25   C27   A    
C46   H41   S    
C48   H44   S    
C4    H24   S    
C46   H40   S    
C13   C17   A    
C7    H8    S    
C36   C38   S    
C2    C3    S    
C47   H48   S    
C43   H34   S    
C4    H2    S    
C3    C36   S    
C6    C23   S    
C1    O1    A    
Cu2   O8    S    
Cu1   O7    S    
C31   H14   S    
C12   C38   S    
C10   C11   A    
C40   H27   S    
C33   O8    A    
C4    C37   S    
C41   H29   S    
Cu2   O2    S    
C42   C43   S    
C27   C28   A    
Cu1   O5    S    
C14   C15   A    
C36   H3    S    
C13   C14   A    
C8    H9    S    
C32   N1    A    
C29   H12   S    
