data_mof_unit_12930.cif
_audit_creation_date              2012-12-11T16:06:35-0500
_audit_creation_method            fapswitch 2.2
_symmetry_space_group_name_H-M    P1
_symmetry_Int_Tables_number       1
_space_group_crystal_system       triclinic
_cell_length_a                    7.273524
_cell_length_b                    15.193855
_cell_length_c                    15.340987
_cell_angle_alpha                 90.000121
_cell_angle_beta                  89.999908
_cell_angle_gamma                 89.999881
_cell_volume                      1695.37648658

loop_
_atom_site_label
_atom_site_type_symbol
_atom_type_description
_atom_site_fract_x
_atom_site_fract_y
_atom_site_fract_z
_atom_type_partial_charge
O1    O     O_R   0.388780 0.834790 0.412340 -0.513779
O2    O     O_R   0.111220 0.165210 0.912340 -0.513779
O3    O     O_R   0.888780 0.665210 0.587660 -0.513775
O4    O     O_R   0.611220 0.334790 0.087660 -0.513779
O5    O     O_R   0.059040 0.845930 0.587040 -0.532102
O6    O     O_R   0.440960 0.154070 0.087040 -0.532102
O7    O     O_R   0.559040 0.654070 0.412960 -0.532102
O8    O     O_R   0.940960 0.345930 0.912960 -0.532099
C1    C     C_R   0.226848 0.866941 0.615607 0.725634
C2    C     C_R   0.273152 0.133059 0.115607 0.725635
C3    C     C_R   0.726848 0.633059 0.384393 0.725636
C4    C     C_R   0.773152 0.366940 0.884393 0.725647
O9    O     O_R   0.059070 0.845930 0.412970 -0.552723
O10   O     O_R   0.440930 0.154070 0.912970 -0.552720
O11   O     O_R   0.559070 0.654070 0.587030 -0.552726
O12   O     O_R   0.940930 0.345930 0.087030 -0.552724
O13   O     O_R   0.888760 0.665210 0.412340 -0.544763
O14   O     O_R   0.611240 0.334790 0.912340 -0.544766
O15   O     O_R   0.388760 0.834790 0.587660 -0.544764
O16   O     O_R   0.111240 0.165210 0.087660 -0.544764
C5    C     C_R   0.228817 0.867462 0.384093 0.656706
C6    C     C_R   0.271183 0.132538 0.884093 0.656708
C7    C     C_R   0.728817 0.632537 0.615907 0.656706
C8    C     C_R   0.771183 0.367462 0.115907 0.656705
O17   O     O_3   0.222280 0.690700 0.500000 -0.384013
O18   O     O_3   0.277720 0.309300 0.000000 -0.384017
O19   O     O_3   0.722280 0.809300 0.500000 -0.384016
O20   O     O_3   0.777720 0.190700 0.000000 -0.384014
V1    V     V_3+5 0.947430 0.761000 0.500000 1.453114
V2    V     V_3+5 0.552570 0.239000 0.000000 1.453119
V3    V     V_3+5 0.447430 0.739000 0.500000 1.453112
V4    V     V_3+5 0.052570 0.261000 0.000000 1.453117
C9    C     C_3   0.908617 0.578990 0.752690 -0.104548
C10   C     C_3   0.591386 0.421007 0.252691 -0.104534
C11   C     C_3   0.408614 0.921007 0.247309 -0.104533
C12   C     C_3   0.091382 0.078991 0.747313 -0.104534
H1    H     H_    0.875367 0.641119 0.785635 0.126256
H2    H     H_    0.624631 0.358875 0.285631 0.126256
H3    H     H_    0.375371 0.858875 0.214369 0.126257
H4    H     H_    0.124618 0.141125 0.714375 0.126262
C13   C     C_3   0.918666 0.507891 0.825834 -0.391544
C14   C     C_3   0.581348 0.492100 0.325842 -0.391552
C15   C     C_3   0.418653 0.992100 0.174159 -0.391552
C16   C     C_3   0.081348 0.007900 0.674161 -0.391567
H5    H     H_    0.896993 0.540325 0.890158 0.132548
H6    H     H_    0.603054 0.459661 0.390163 0.132546
H7    H     H_    0.396948 0.959661 0.109838 0.132548
H8    H     H_    0.103055 0.040341 0.609842 0.132552
H9    H     H_    0.057276 0.478138 0.830938 0.149260
H10   H     H_    0.442731 0.521845 0.330966 0.149240
H11   H     H_    0.557269 0.021845 0.169035 0.149241
H12   H     H_    0.942734 0.978156 0.669035 0.149239
H13   H     H_    0.871596 0.468846 0.595342 0.161374
H14   H     H_    0.628418 0.531155 0.095338 0.161371
H15   H     H_    0.371579 0.031156 0.404663 0.161368
H16   H     H_    0.128434 0.968840 0.904666 0.161366
C17   C     C_3   0.765768 0.467716 0.646304 -0.405180
C18   C     C_3   0.734236 0.532282 0.146305 -0.405143
C19   C     C_3   0.265761 0.032282 0.353695 -0.405143
C20   C     C_3   0.234246 0.967717 0.853695 -0.405138
C21   C     C_3   0.569538 0.557935 0.744332 -0.347410
C22   C     C_3   0.930464 0.442064 0.244333 -0.347418
C23   C     C_3   0.069536 0.942064 0.255666 -0.347415
C24   C     C_3   0.430461 0.057938 0.755665 -0.347408
C25   C     C_3   0.745359 0.560972 0.687370 0.004811
C26   C     C_3   0.754642 0.439026 0.187371 0.004803
C27   C     C_3   0.245357 0.939026 0.312629 0.004802
C28   C     C_3   0.254643 0.060973 0.812630 0.004803
H17   H     H_    0.452478 0.540623 0.702776 0.179860
H18   H     H_    0.047524 0.459372 0.202776 0.179867
H19   H     H_    0.952474 0.959371 0.297223 0.179869
H20   H     H_    0.547527 0.040634 0.797220 0.179875
H21   H     H_    0.543543 0.623386 0.774338 0.189720
H22   H     H_    0.956454 0.376614 0.274341 0.189717
H23   H     H_    0.043548 0.876614 0.225657 0.189718
H24   H     H_    0.456443 0.123389 0.725655 0.189714
C29   C     C_3   0.767634 0.436767 0.812669 0.011509
C30   C     C_3   0.732366 0.563231 0.312671 0.011499
C31   C     C_3   0.267634 0.063231 0.187330 0.011497
C32   C     C_3   0.232366 0.936769 0.687330 0.011494
C33   C     C_3   0.788228 0.394987 0.719374 0.343555
C34   C     C_3   0.711765 0.605009 0.219375 0.343567
C35   C     C_3   0.288233 0.105009 0.280625 0.343568
C36   C     C_3   0.211771 0.894991 0.780625 0.343571
C37   C     C_3   0.580822 0.486659 0.816010 -0.411396
C38   C     C_3   0.919184 0.513344 0.316008 -0.411396
C39   C     C_3   0.080817 0.013344 0.183992 -0.411396
C40   C     C_3   0.419182 0.986657 0.683991 -0.411403
H25   H     H_    0.562299 0.518009 0.881025 0.165822
H26   H     H_    0.937720 0.481996 0.381024 0.165821
H27   H     H_    0.062282 0.981996 0.118975 0.165824
H28   H     H_    0.437717 0.018003 0.618975 0.165823
H29   H     H_    0.464598 0.439765 0.807263 0.158788
H30   H     H_    0.035403 0.560239 0.307256 0.158781
H31   H     H_    0.964597 0.060239 0.192743 0.158781
H32   H     H_    0.535400 0.939762 0.692743 0.158780
H33   H     H_    0.638540 0.452941 0.608625 0.103032
H34   H     H_    0.861470 0.547058 0.108631 0.103027
H35   H     H_    0.138526 0.047058 0.391369 0.103026
H36   H     H_    0.361485 0.952941 0.891366 0.103025
H37   H     H_    0.665037 0.352582 0.712373 0.093151
H38   H     H_    0.834954 0.647416 0.212374 0.093154
H39   H     H_    0.165044 0.147416 0.287626 0.093154
H40   H     H_    0.334961 0.852585 0.787623 0.093157
C41   C     C_2   0.094005 0.595163 0.711296 0.753257
O21   O     O_2   0.198110 0.648999 0.743955 -0.561513
O22   O     O_R   0.139653 0.554668 0.632351 -0.691141
H41   H     H_    0.258302 0.576101 0.606070 0.302461
C42   C     C_2   0.405997 0.404840 0.211297 0.753257
O23   O     O_2   0.301896 0.350999 0.243950 -0.561515
O24   O     O_R   0.360350 0.445342 0.132357 -0.691150
H42   H     H_    0.241710 0.423904 0.106070 0.302458
C43   C     C_2   0.594003 0.904841 0.288703 0.753256
O25   O     O_2   0.698108 0.851001 0.256048 -0.561516
O26   O     O_R   0.639649 0.945341 0.367644 -0.691150
H43   H     H_    0.758290 0.923904 0.393930 0.302458
C44   C     C_2   0.905993 0.095153 0.788709 0.753257
O27   O     O_2   0.801885 0.148994 0.756058 -0.561515
O28   O     O_R   0.860354 0.054650 0.867650 -0.691151
H44   H     H_    0.741710 0.076083 0.893938 0.302450
O29   O     O_3   0.937528 0.333356 0.712254 -0.542253
C45   C     C_3   0.101399 0.366690 0.675025 0.161330
H45   H     H_    0.152911 0.423151 0.712012 0.139094
H46   H     H_    0.084577 0.381195 0.604790 0.139979
C46   C     C_3   0.253836 0.298884 0.678240 -0.768750
H47   H     H_    0.224206 0.244966 0.631601 0.214471
H48   H     H_    0.383529 0.330012 0.656377 0.171288
H49   H     H_    0.272448 0.273946 0.745700 0.214077
O30   O     O_3   0.562464 0.666638 0.212248 -0.542254
C47   C     C_3   0.398571 0.633294 0.175051 0.161364
H50   H     H_    0.347051 0.576859 0.212074 0.139048
H51   H     H_    0.415357 0.618747 0.104826 0.140025
C48   C     C_3   0.246163 0.701116 0.178236 -0.768768
H52   H     H_    0.275836 0.755019 0.131588 0.214499
H53   H     H_    0.116463 0.669996 0.156373 0.171292
H54   H     H_    0.227539 0.726072 0.245689 0.214060
O31   O     O_3   0.437533 0.166638 0.287753 -0.542253
C49   C     C_3   0.601425 0.133294 0.324950 0.161365
H55   H     H_    0.652946 0.076859 0.287928 0.139049
H56   H     H_    0.584638 0.118747 0.395175 0.140022
C50   C     C_3   0.753834 0.201115 0.321765 -0.768773
H57   H     H_    0.724160 0.255019 0.368414 0.214498
H58   H     H_    0.883534 0.169994 0.343630 0.171292
H59   H     H_    0.772460 0.226070 0.254313 0.214061
O32   O     O_3   0.062475 0.833360 0.787754 -0.542253
C51   C     C_3   0.898580 0.866706 0.824947 0.161372
H60   H     H_    0.847053 0.923137 0.787919 0.139037
H61   H     H_    0.915362 0.881262 0.895170 0.140031
C52   C     C_3   0.746179 0.798881 0.821769 -0.768761
H62   H     H_    0.775867 0.744980 0.868418 0.214506
H63   H     H_    0.616478 0.829999 0.843637 0.171293
H64   H     H_    0.727547 0.773922 0.754318 0.214053

loop_
_geom_bond_atom_site_label_1
_geom_bond_atom_site_label_2
_ccdc_geom_bond_type
O17   V3    S    
C40   H32   S    
O1    C5    A    
H15   C19   S    
O19   V1    S    
C19   H35   S    
C47   H51   S    
O24   H42   S    
C10   C14   S    
C32   C36   S    
O15   V3    S    
C30   C38   S    
C10   C26   S    
C31   C39   S    
O32   C51   S    
C9    C25   S    
C33   H37   S    
C36   O32   S    
O7    C3    A    
C22   C38   S    
C35   H39   S    
C24   C28   S    
O9    V1    S    
C19   C35   S    
C51   H60   S    
C39   H27   S    
C52   H63   S    
C13   C29   S    
O4    C8    A    
C15   C31   S    
O26   H43   S    
O1    V3    S    
O13   V1    S    
C22   H18   S    
O2    V4    S    
C14   H6    S    
O3    V1    S    
C38   H30   S    
C42   O24   S    
C19   C27   S    
O3    C7    A    
C18   C26   S    
C40   H28   S    
C2    O16   A    
C39   H31   S    
O2    C6    A    
C46   H49   S    
O22   H41   S    
O14   V2    S    
C11   C27   S    
C11   C15   S    
C42   O23   D    
O5    V1    S    
C8    C26   S    
C16   H12   S    
O11   C7    A    
O31   C49   S    
C29   C37   S    
O12   C8    A    
C5    C27   S    
C37   H29   S    
O10   V2    S    
C13   H9    S    
C1    O15   A    
C51   H61   S    
C34   H38   S    
C23   C27   S    
O7    V3    S    
C22   C26   S    
O8    V4    S    
C12   H4    S    
C9    C41   S    
C18   C34   S    
C38   H26   S    
C52   H64   S    
H13   C17   S    
O18   V4    S    
C21   H21   S    
C50   H59   S    
C9    H1    S    
H16   C20   S    
C33   O29   S    
C50   H58   S    
C11   H3    S    
O5    C1    A    
C3    C30   S    
C48   H54   S    
C51   C52   S    
C41   O22   S    
C30   C34   S    
C16   C32   S    
O8    C4    A    
C17   H33   S    
C4    C29   S    
H14   C18   S    
C24   H24   S    
O28   H44   S    
O9    C5    A    
C34   O30   S    
C12   C44   S    
C6    C28   S    
O29   C45   S    
C21   C37   S    
C14   H10   S    
O6    V2    S    
C23   H19   S    
C14   C30   S    
C50   H57   S    
C46   H47   S    
C36   H40   S    
C17   C33   S    
C12   C16   S    
C47   C48   S    
C45   H46   S    
C35   O31   S    
C48   H53   S    
C43   O25   D    
O16   V4    S    
C21   H17   S    
C3    O13   A    
C37   H25   S    
C23   C39   S    
C10   H2    S    
C17   C25   S    
C20   H36   S    
C49   C50   S    
O6    C2    A    
C2    C31   S    
C12   C28   S    
O11   V3    S    
C49   H56   S    
C18   H34   S    
O12   V4    S    
C41   O21   D    
C9    C13   S    
C7    C25   S    
C45   C46   S    
C44   O28   S    
C47   H50   S    
O30   C47   S    
C32   C40   S    
C52   H62   S    
C31   C35   S    
C20   C36   S    
O10   C6    A    
C48   H52   S    
C23   H23   S    
C15   H11   S    
O20   V2    S    
C24   C40   S    
C11   C43   S    
C24   H20   S    
C49   H55   S    
C21   C25   S    
C20   C28   S    
C29   C33   S    
C4    O14   A    
C46   H48   S    
C10   C42   S    
C13   H5    S    
C22   H22   S    
C45   H45   S    
C44   O27   D    
C15   H7    S    
C1    C32   S    
O4    V2    S    
C16   H8    S    
C43   O26   S    
