data_mof_unit_34011.cif
_audit_creation_date              2012-12-10T20:41:02-0500
_audit_creation_method            fapswitch 2.2
_symmetry_space_group_name_H-M    P1
_symmetry_Int_Tables_number       1
_space_group_crystal_system       triclinic
_cell_length_a                    27.39308
_cell_length_b                    10.621445
_cell_length_c                    9.953073
_cell_angle_alpha                 88.819285
_cell_angle_beta                  91.123916
_cell_angle_gamma                 91.0351
_cell_volume                      2894.26360568

loop_
_atom_site_label
_atom_site_type_symbol
_atom_type_description
_atom_site_fract_x
_atom_site_fract_y
_atom_site_fract_z
_atom_type_partial_charge
C1    C     C_R   0.505786 0.261476 0.501291 0.971108
C2    C     C_R   0.972091 0.289191 0.466256 -0.009951
C3    C     C_R   0.977114 0.418637 0.667910 -0.134899
C4    C     C_R   0.406196 0.497805 0.498785 0.928150
C5    C     C_R   0.949055 0.360395 0.564479 -0.043815
C6    C     C_R   0.942817 0.211357 0.382666 0.570236
C7    C     C_R   0.892019 0.223157 0.377019 -0.163412
C8    C     C_R   0.869830 0.315074 0.455848 -0.129631
C9    C     C_R   0.897998 0.376719 0.556283 -0.121605
C10   C     C_R   0.875355 0.457364 0.646292 -0.248915
C11   C     C_R   0.825042 0.476894 0.632281 0.649466
C12   C     C_R   0.283425 0.336203 0.515013 -0.035354
C13   C     C_R   0.820710 0.349590 0.437452 0.711223
C14   C     C_R   0.716431 0.348652 0.545873 0.698898
C15   C     C_R   0.666253 0.365377 0.545270 -0.190176
C16   C     C_R   0.498056 0.740615 0.498324 1.008140
C17   C     C_R   0.678909 0.587009 0.475657 -0.114800
C18   C     C_R   0.730053 0.568181 0.478326 -0.131992
C19   C     C_R   0.748095 0.448166 0.513648 0.040764
C20   C     C_R   0.023510 0.299305 0.455261 0.091445
C21   C     C_R   0.051431 0.352718 0.561259 0.014604
C22   C     C_R   0.028089 0.398544 0.675156 -0.040936
C23   C     C_R   0.252431 0.440557 0.508339 0.147269
C24   C     C_R   0.047559 0.262268 0.339329 -0.124135
C25   C     C_R   0.107604 0.426336 0.787164 -0.203187
C26   C     C_R   0.953835 0.502654 0.753442 0.614067
C27   C     C_R   0.903686 0.519534 0.744471 0.617230
C28   C     C_R   0.594001 0.498554 0.501718 0.955358
C29   C     C_R   0.056531 0.420248 0.792250 0.685658
C30   C     C_R   0.520255 0.059884 0.620736 -0.186120
C31   C     C_R   0.519047 0.131374 0.502269 -0.139299
C32   C     C_R   0.524965 0.068662 0.380323 -0.128912
C33   C     C_R   0.505218 0.946148 0.373337 -0.156268
C34   C     C_R   0.102708 0.364423 0.551975 -0.056444
C35   C     C_R   0.502235 0.875152 0.495829 -0.144467
C36   C     C_R   0.515108 0.931964 0.616804 -0.051326
C37   C     C_3   0.490409 0.925766 0.750089 1.069926
C38   C     C_3   0.496748 0.068287 0.754188 0.319305
C39   C     C_R   0.457581 0.484398 0.068649 0.117698
C40   C     C_R   0.175124 0.368656 0.416662 0.618108
C41   C     C_R   0.539777 0.541742 0.073290 -0.051307
C42   C     C_R   0.540451 0.537494 0.929692 -0.049754
C43   C     C_R   0.457320 0.487000 0.927498 0.165231
C44   C     C_3   0.418760 0.385418 0.920325 -0.408471
C45   C     C_R   0.125821 0.332637 0.431503 -0.055653
C46   C     C_3   0.419951 0.381002 0.075326 0.419157
C47   C     C_R   0.180124 0.441859 0.641860 0.660696
C48   C     C_R   0.271343 0.564474 0.492125 -0.070267
C49   C     C_R   0.322397 0.584331 0.486388 -0.193027
C50   C     C_R   0.334143 0.355631 0.508437 -0.119009
C51   C     C_2   0.366981 0.245844 0.516195 0.969622
C52   C     C_2   0.237216 0.672019 0.486353 1.013133
C53   C     C_2   0.135637 0.439314 0.915477 1.134462
C54   C     C_2   0.658817 0.713035 0.440085 0.996787
C55   C     C_2   0.765221 0.673333 0.450591 1.049702
C56   C     C_R   0.098191 0.272352 0.328604 -0.061496
C57   C     C_2   0.560217 0.116160 0.277599 1.033266
C58   C     C_2   0.476754 0.910609 0.249389 1.090158
C59   C     C_2   0.262098 0.206553 0.527848 1.016240
C60   C     C_2   0.531357 0.118043 0.861214 1.023386
C61   C     C_2   0.578222 0.615141 0.142637 0.992181
C62   C     C_2   0.584640 0.582788 0.860770 1.021444
C63   C     C_2   0.371254 0.429609 0.857063 0.931547
C64   C     C_2   0.373242 0.417670 0.141562 0.932665
C65   C     C_2   0.120446 0.208568 0.213868 1.020681
C66   C     C_2   0.635347 0.256282 0.587338 1.008478
C67   C     C_R   0.130559 0.411285 0.662082 -0.163331
C68   C     C_2   0.863514 0.131261 0.295288 1.114121
C69   C     C_2   0.343375 0.713444 0.465136 1.017475
C70   C     C_R   0.353369 0.479522 0.496761 -0.181537
C71   C     C_R   0.647097 0.484309 0.508100 -0.237140
F1    F     F_    0.979666 0.581131 0.835255 -0.538102
F2    F     F_    0.883614 0.602867 0.828185 -0.522357
F3    F     F_    0.035126 0.419811 0.914423 -0.564038
F4    F     F_    0.442104 0.885408 0.740423 -0.552591
F5    F     F_    0.516776 0.859948 0.847577 -0.632529
F6    F     F_    0.452475 0.128201 0.746463 -0.606514
F7    F     F_    0.439039 0.270235 0.128157 -0.569435
F8    F     F_    0.735362 0.235971 0.585383 -0.581156
F9    F     F_    0.962642 0.113369 0.318406 -0.624537
H1    H     H_    0.432236 0.299554 0.874399 0.289015
H2    H     H_    0.215393 0.088158 0.623759 0.379909
H3    H     H_    0.543372 0.242698 0.008756 0.363698
H4    H     H_    0.596781 0.782185 0.223362 0.378112
H5    H     H_    0.655164 0.552666 0.819056 0.367235
H6    H     H_    0.330440 0.574264 0.788023 0.375116
H7    H     H_    0.328996 0.556477 0.196657 0.369634
H8    H     H_    0.173238 0.095462 0.149720 0.386121
H9    H     H_    0.622586 0.068878 0.577286 0.353255
H10   H     H_    0.856281 0.039711 0.120261 0.379266
H11   H     H_    0.341362 0.877345 0.359217 0.395249
H12   H     H_    0.027321 0.228013 0.253122 0.247668
H13   H     H_    0.415790 0.140603 0.422586 0.354366
H14   H     H_    0.173917 0.742699 0.413508 0.370720
H15   H     H_    0.191927 0.379928 0.032665 0.389325
H16   H     H_    0.609633 0.846151 0.477672 0.343419
H17   H     H_    0.786606 0.852212 0.487743 0.396843
H18   H     H_    0.604650 0.073560 0.126452 0.391426
H19   H     H_    0.462130 0.944074 0.052478 0.389930
N1    N     N_R   0.200929 0.419082 0.521649 -0.339909
N2    N     N_R   0.799462 0.426679 0.526585 -0.338500
N3    N     N_R   0.499670 0.499140 0.142800 -0.125724
N4    N     N_R   0.499670 0.499180 0.857150 -0.124683
O1    O     O_R   0.500010 0.316790 0.614690 -0.584207
O2    O     O_R   0.571250 0.500000 0.614690 -0.595367
O3    O     O_R   0.571240 0.499960 0.385340 -0.610175
O4    O     O_2   0.197086 0.358868 0.297436 -0.519019
O5    O     O_2   0.365052 0.172427 0.612237 -0.478469
O6    O     O_R   0.398184 0.223301 0.410506 -0.730823
O7    O     O_2   0.246253 0.766479 0.551215 -0.550761
O8    O     O_R   0.194318 0.664323 0.408268 -0.763869
O9    O     O_2   0.123381 0.515799 0.998037 -0.518354
O10   O     O_R   0.175215 0.360975 0.943500 -0.705373
O11   O     O_2   0.676825 0.776891 0.349519 -0.551776
O12   O     O_2   0.794483 0.310289 0.329610 -0.472105
O13   O     O_R   0.619595 0.759288 0.510786 -0.783851
O14   O     O_2   0.799080 0.658174 0.374622 -0.563727
O15   O     O_R   0.760245 0.788620 0.513851 -0.701729
O16   O     O_2   0.577074 0.223402 0.281901 -0.610671
O17   O     O_R   0.578189 0.033454 0.183756 -0.720279
O18   O     O_2   0.442754 0.834670 0.256646 -0.583096
O19   O     O_R   0.485402 0.972589 0.126711 -0.695453
O20   O     O_2   0.274612 0.124444 0.451990 -0.528469
O21   O     O_R   0.227475 0.178885 0.625998 -0.753775
O22   O     O_2   0.572563 0.076213 0.873751 -0.550313
O23   O     O_2   0.207267 0.498213 0.738664 -0.515205
O24   O     O_R   0.516578 0.213936 0.944186 -0.730602
O25   O     O_2   0.619861 0.575873 0.152003 -0.557005
O26   O     O_R   0.567142 0.734324 0.188427 -0.750340
O27   O     O_2   0.584449 0.683325 0.798934 -0.502274
O28   O     O_R   0.627131 0.511953 0.870011 -0.729743
O29   O     O_2   0.338418 0.352818 0.835475 -0.523268
O30   O     O_R   0.364156 0.557412 0.827428 -0.703577
O31   O     O_2   0.344173 0.335621 0.177386 -0.500991
O32   O     O_R   0.362223 0.544709 0.156159 -0.770223
O33   O     O_2   0.100768 0.213436 0.102553 -0.569657
O34   O     O_2   0.801657 0.546094 0.722381 -0.434202
O35   O     O_R   0.162021 0.135660 0.235048 -0.722574
O36   O     O_2   0.604363 0.268539 0.672327 -0.612665
O37   O     O_R   0.644052 0.137377 0.535928 -0.697093
O38   O     O_2   0.828219 0.075669 0.343161 -0.545629
O39   O     O_R   0.878208 0.104908 0.165246 -0.692230
O40   O     O_2   0.377312 0.750902 0.536181 -0.541160
O41   O     O_R   0.324215 0.791983 0.363469 -0.720205
O42   O     O_R   0.500000 0.316760 0.385350 -0.556793
O43   O     O_R   0.428760 0.500040 0.614660 -0.594880
O44   O     O_R   0.428750 0.500000 0.385310 -0.591986
O45   O     O_R   0.500000 0.683240 0.614650 -0.548923
O46   O     O_R   0.499990 0.683210 0.385310 -0.596554
Zn1   Zn    Zn3+2 0.500000 0.500020 0.653130 1.096634
Zn2   Zn    Zn3+2 0.500000 0.499980 0.346870 1.090124

loop_
_geom_bond_atom_site_label_1
_geom_bond_atom_site_label_2
_ccdc_geom_bond_type
C10   C27   A    
C33   C58   S    
C19   N2    S    
C22   C29   A    
C26   F1    S    
C41   C42   A    
C62   O27   D    
C1    O42   A    
C35   C36   A    
C25   C67   A    
C41   C61   S    
C24   C56   A    
C42   N4    A    
C4    C70   S    
C7    C8    A    
C69   O41   S    
O2    Zn1   S    
C12   C23   A    
C26   C27   A    
C8    C13   A    
C39   N3    A    
C63   O30   S    
C36   C37   S    
C25   C53   S    
O46   Zn2   S    
C16   C35   S    
C30   C31   A    
O1    Zn1   S    
C56   C65   S    
H4    O26   S    
C1    C31   S    
C41   N3    A    
C30   C38   S    
C18   C19   A    
H2    O21   S    
H17   O15   S    
N4    Zn1   S    
C7    C68   S    
O43   Zn1   S    
C12   C59   S    
C66   O36   D    
C20   C24   A    
C45   C56   A    
C28   O3    A    
C51   O5    D    
C54   O13   S    
C68   O39   S    
C16   O46   A    
C23   C48   A    
C9    C10   A    
C42   C62   S    
C61   O26   S    
N3    Zn2   S    
C57   O16   D    
C23   N1    S    
C37   F4    S    
C64   O32   S    
C51   O6    S    
C49   C69   S    
C21   C22   A    
C59   O20   D    
C2    C6    A    
C32   C57   S    
C24   H12   S    
C47   C67   A    
C53   O10   S    
C50   C51   S    
C60   O24   S    
C44   C63   S    
C25   C29   A    
C40   C45   A    
C64   O31   D    
C58   O19   S    
C2    C20   A    
H7    O32   S    
C44   H1    S    
H3    O24   S    
C46   F7    S    
C14   C19   A    
C8    C9    A    
C39   C43   A    
C29   F3    S    
C44   C46   S    
C52   O8    S    
C14   F8    S    
C15   C66   S    
C47   N1    A    
C46   C64   S    
O44   Zn2   S    
C43   C44   S    
C5    C9    A    
C37   C38   S    
H6    O30   S    
C6    F9    S    
C31   C32   A    
C52   O7    D    
H14   O8    S    
H9    O37   S    
C4    O43   A    
C17   C18   A    
C68   O38   D    
C11   N2    A    
C34   C45   A    
H10   O39   S    
C63   O29   D    
C1    O1    A    
H8    O35   S    
O42   Zn2   S    
C18   C55   S    
C39   C46   S    
C38   C60   S    
C65   O35   S    
C53   O9    D    
C48   C49   A    
C28   O2    A    
C17   C71   A    
C49   C70   A    
C57   O17   S    
C2    C5    A    
C69   O40   D    
C13   N2    A    
C47   O23   S    
H11   O41   S    
C55   O14   D    
C59   O21   S    
C60   O22   D    
C58   O18   D    
O3    Zn2   S    
H19   O19   S    
C62   O28   S    
C37   F5    S    
C3    C26   A    
O45   Zn1   S    
C3    C5    A    
C34   C67   A    
C40   N1    A    
C12   C50   A    
H18   O17   S    
C6    C7    A    
C21   C34   A    
C38   F6    S    
C13   O12   S    
C15   C71   A    
C30   C36   A    
C16   O45   A    
C32   C33   A    
C50   C70   A    
H5    O28   S    
C4    O44   A    
C40   O4    S    
H15   O10   S    
C54   O11   D    
C33   C35   A    
C61   O25   D    
C11   O34   S    
C43   N4    A    
C65   O33   D    
C10   C11   A    
C28   C71   S    
C48   C52   S    
C66   O37   S    
C20   C21   A    
C14   C15   A    
H16   O13   S    
C3    C22   A    
C27   F2    S    
C17   C54   S    
H13   O6    S    
C55   O15   S    
