data_mof_unit_16400.cif
_audit_creation_date              2012-12-10T16:51:19-0500
_audit_creation_method            fapswitch 2.2
_symmetry_space_group_name_H-M    P1
_symmetry_Int_Tables_number       1
_space_group_crystal_system       triclinic
_cell_length_a                    27.779726
_cell_length_b                    8.659514
_cell_length_c                    7.429358
_cell_angle_alpha                 103.002508
_cell_angle_beta                  93.893309
_cell_angle_gamma                 92.435558
_cell_volume                      1734.28547466

loop_
_atom_site_label
_atom_site_type_symbol
_atom_type_description
_atom_site_fract_x
_atom_site_fract_y
_atom_site_fract_z
_atom_type_partial_charge
C1    C     C_R   0.498245 0.199592 0.453182 0.884317
C2    C     C_R   0.870238 0.359476 0.447689 -0.023322
C3    C     C_R   0.354416 0.505221 0.512214 -0.159565
C4    C     C_R   0.644767 0.491445 0.489668 -0.084236
C5    C     C_R   0.972510 0.358871 0.476812 0.040696
C6    C     C_R   0.028436 0.652755 0.592485 0.042794
C7    C     C_R   0.977186 0.650791 0.589735 0.042180
C8    C     C_R   0.023756 0.359703 0.494645 0.044433
C9    C     C_R   0.949520 0.504165 0.527605 0.070996
C10   C     C_R   0.051414 0.506925 0.547426 0.069564
C11   C     C_R   0.943196 0.217382 0.407028 -0.218052
C12   C     C_R   0.501375 0.800367 0.546845 0.878222
C13   C     C_R   0.057773 0.796071 0.636974 -0.216691
C14   C     C_R   0.893152 0.218095 0.392710 -0.143414
C15   C     C_R   0.107816 0.795879 0.640842 -0.147590
C16   C     C_R   0.407418 0.502050 0.503012 0.812808
C17   C     C_R   0.592288 0.497925 0.496799 0.834669
C18   C     C_R   0.048567 0.217764 0.461423 -0.217103
C19   C     C_R   0.952356 0.790800 0.647271 -0.215594
C20   C     C_2   0.497273 0.031563 0.426754 -0.387130
C21   C     C_2   0.501915 0.968312 0.573265 -0.382402
C22   C     C_R   0.176592 0.368922 0.513009 0.535914
C23   C     C_R   0.102687 0.508303 0.553815 -0.045969
C24   C     C_R   0.824044 0.640001 0.563158 0.575176
C25   C     C_R   0.181226 0.651848 0.601219 0.535452
C26   C     C_R   0.819675 0.360837 0.435309 0.522109
C27   C     C_R   0.273635 0.546626 0.391437 -0.162286
C28   C     C_R   0.721905 0.410948 0.597906 -0.250006
C29   C     C_R   0.323130 0.543345 0.371136 0.215695
C30   C     C_R   0.671598 0.406097 0.598546 0.214426
C31   C     C_R   0.334596 0.473348 0.670491 -0.272027
C32   C     C_R   0.668494 0.574875 0.376848 -0.358366
C33   C     C_R   0.284778 0.474980 0.689130 0.318083
C34   C     C_R   0.898211 0.502779 0.515838 -0.045673
C35   C     C_R   0.718903 0.577581 0.374196 0.312795
C36   C     C_R   0.254303 0.512539 0.547759 0.232947
C37   C     C_R   0.745764 0.496244 0.487639 0.298185
C38   C     C_3   0.272146 0.289353 0.885750 -0.615864
C39   C     C_3   0.758210 0.571017 0.092908 -0.654755
C40   C     C_3   0.628993 0.158614 0.601285 -0.624186
C41   C     C_3   0.357220 0.743757 0.228484 -0.602784
C42   C     C_R   0.126060 0.364806 0.512083 -0.020283
C43   C     C_R   0.874740 0.644581 0.572487 -0.032092
C44   C     C_R   0.098653 0.220645 0.469098 -0.154457
C45   C     C_R   0.902218 0.787319 0.639047 -0.151575
C46   C     C_R   0.130704 0.653172 0.599951 -0.021301
Cu1   Cu    Cu3+1 0.505380 0.517380 0.684380 0.957893
Cu2   Cu    Cu3+1 0.494620 0.482620 0.315620 0.940704
H1    H     H_    0.358037 0.447549 0.781135 0.168383
H2    H     H_    0.043315 0.911617 0.666137 0.137982
H3    H     H_    0.030458 0.101405 0.431007 0.137302
H4    H     H_    0.970492 0.905669 0.702909 0.141445
H5    H     H_    0.492900 0.959670 0.285685 0.180949
H6    H     H_    0.506300 0.040218 0.714325 0.182723
H7    H     H_    0.462071 0.378461 0.948643 0.218725
H8    H     H_    0.537887 0.621667 0.051399 0.225684
H9    H     H_    0.232032 0.485336 0.878450 0.257887
H10   H     H_    0.257633 0.281923 0.019390 0.233104
H11   H     H_    0.310947 0.263939 0.894305 0.211979
H12   H     H_    0.647827 0.639936 0.292691 0.159274
H13   H     H_    0.252235 0.198223 0.772987 0.273951
H14   H     H_    0.723914 0.761345 0.239031 0.267031
H15   H     H_    0.783181 0.481721 0.122921 0.240474
H16   H     H_    0.726439 0.509818 0.002577 0.210925
H17   H     H_    0.777650 0.648758 0.017963 0.246233
H18   H     H_    0.668329 0.305339 0.825328 0.251670
H19   H     H_    0.608542 0.098455 0.691969 0.223774
H20   H     H_    0.658929 0.084160 0.548772 0.227598
H21   H     H_    0.604046 0.170250 0.482460 0.216498
H22   H     H_    0.360390 0.497671 0.131821 0.271450
H23   H     H_    0.115824 0.108611 0.440333 0.186637
H24   H     H_    0.366372 0.762891 0.091632 0.223323
H25   H     H_    0.390079 0.772076 0.326488 0.218831
H26   H     H_    0.328752 0.825090 0.279938 0.237726
H27   H     H_    0.885052 0.897893 0.684886 0.189029
H28   H     H_    0.742751 0.346955 0.682689 0.166840
H29   H     H_    0.249689 0.574704 0.283402 0.171411
H30   H     H_    0.872441 0.106444 0.338312 0.194471
H31   H     H_    0.128537 0.908917 0.674969 0.188013
H32   H     H_    0.957658 0.103508 0.357963 0.143723
N1    N     N_R   0.202962 0.511042 0.557297 -0.465744
N2    N     N_R   0.797606 0.499705 0.493407 -0.451305
N3    N     N_2   0.486510 0.456430 0.038510 -0.218284
N4    N     N_2   0.513490 0.543570 0.961490 -0.210717
N5    N     N_2   0.266031 0.446390 0.853565 -0.422017
N6    N     N_2   0.742501 0.666091 0.262232 -0.390414
N7    N     N_2   0.648178 0.313008 0.706170 -0.409626
N8    N     N_2   0.339850 0.580551 0.208334 -0.408352
O1    O     O_R   0.503500 0.286120 0.619780 -0.575435
O2    O     O_2   0.801357 0.774269 0.625145 -0.530023
O3    O     O_2   0.792695 0.224497 0.364938 -0.534269
O4    O     O_2   0.208452 0.789916 0.644973 -0.533897
O5    O     O_R   0.496500 0.713880 0.380220 -0.587302
O6    O     O_R   0.494410 0.256780 0.308360 -0.586416
O7    O     O_R   0.505590 0.743220 0.691640 -0.587207
O8    O     O_R   0.434810 0.514700 0.655690 -0.592781
O9    O     O_R   0.565190 0.485300 0.344310 -0.592627
O10   O     O_R   0.425720 0.485350 0.344280 -0.588115
O11   O     O_R   0.574280 0.514650 0.655720 -0.550985
O12   O     O_2   0.199203 0.232268 0.467251 -0.542866

loop_
_geom_bond_atom_site_label_1
_geom_bond_atom_site_label_2
_ccdc_geom_bond_type
C27   C29   A    
Cu1   O1    S    
H22   N8    S    
Cu2   O9    S    
H14   N6    S    
C23   C42   A    
Cu2   O6    S    
C40   N7    S    
C35   C37   A    
C5    C11   A    
C21   H6    S    
C11   C14   A    
C33   C36   A    
Cu1   O11   S    
C44   H23   S    
C3    C29   A    
C33   N5    S    
C29   N8    S    
C24   N2    A    
C41   H26   S    
C38   H10   S    
C19   H4    S    
C15   H31   S    
N3    N4    D    
C1    O6    A    
C25   O4    S    
C40   H19   S    
Cu1   O8    S    
C31   C33   A    
C12   O7    A    
C38   H13   S    
C2    C34   A    
C26   N2    A    
C23   C46   A    
C25   N1    A    
C39   H17   S    
C42   C44   A    
C31   H1    S    
C2    C14   A    
C18   H3    S    
H8    N4    S    
C16   O8    A    
C22   O12   S    
C40   H21   S    
C38   N5    S    
C32   C35   A    
Cu2   O5    S    
H18   N7    S    
C26   O3    S    
C12   C21   S    
C8    C18   A    
C13   H2    S    
C22   N1    A    
C5    C9    A    
C39   H16   S    
C18   C44   A    
C17   O11   A    
Cu1   Cu2   S    
C36   N1    S    
C2    C26   A    
Cu1   N4    S    
C3    C31   A    
C43   C45   A    
C4    C32   A    
C41   H24   S    
C4    C17   S    
C7    C19   A    
C13   C15   A    
C9    C34   A    
C10   C23   A    
C37   N2    S    
C32   H12   S    
H7    N3    S    
C28   H28   S    
Cu2   O10   S    
C7    C9    A    
C41   N8    S    
C1    C20   S    
C1    O1    A    
C34   C43   A    
C20   H5    S    
C27   H29   S    
C24   O2    S    
C6    C10   A    
C5    C8    A    
C19   C45   A    
C6    C7    A    
C27   C36   A    
C39   H15   S    
C15   C46   A    
Cu2   N3    S    
C45   H27   S    
C28   C30   A    
C6    C13   A    
C16   O10   A    
C22   C42   A    
C28   C37   A    
C35   N6    S    
H9    N5    S    
C14   H30   S    
C12   O5    A    
C11   H32   S    
C41   H25   S    
C38   H11   S    
C20   C21   D    
C8    C10   A    
C40   H20   S    
C24   C43   A    
Cu1   O7    S    
C39   N6    S    
C30   N7    S    
C17   O9    A    
C25   C46   A    
C4    C30   A    
C3    C16   S    
