data_mof_unit_11293.cif
_audit_creation_date              2012-12-10T16:59:53-0500
_audit_creation_method            fapswitch 2.2
_symmetry_space_group_name_H-M    P1
_symmetry_Int_Tables_number       1
_space_group_crystal_system       triclinic
_cell_length_a                    15.100741
_cell_length_b                    15.062879
_cell_length_c                    10.13011
_cell_angle_alpha                 90.964514
_cell_angle_beta                  89.645368
_cell_angle_gamma                 90.518648
_cell_volume                      2303.7383836

loop_
_atom_site_label
_atom_site_type_symbol
_atom_type_description
_atom_site_fract_x
_atom_site_fract_y
_atom_site_fract_z
_atom_type_partial_charge
C1    C     C_R   0.382378 0.880165 0.499080 0.818543
C2    C     C_2   0.754025 0.178202 0.402201 0.490543
C3    C     C_2   0.188804 0.251968 0.395230 0.434431
C4    C     C_2   0.170421 0.766478 0.413357 0.503221
C5    C     C_2   0.685194 0.815317 0.491847 -0.274341
C6    C     C_2   0.688597 0.182783 0.493137 -0.356609
C7    C     C_2   0.184840 0.314606 0.491388 -0.307129
C8    C     C_2   0.153894 0.710602 0.511327 -0.352140
C9    C     C_2   0.264784 0.195321 0.394842 -0.343622
C10   C     C_2   0.241053 0.830751 0.435798 -0.375622
C11   C     C_2   0.770591 0.700731 0.394802 -0.344948
C12   C     C_R   0.376062 0.112574 0.501132 0.825713
C13   C     C_2   0.811884 0.254252 0.394025 -0.264929
C14   C     C_2   0.290897 0.154293 0.503962 0.151180
C15   C     C_2   0.318436 0.810585 0.493399 0.257746
C16   C     C_2   0.793057 0.656692 0.503137 0.215979
C17   C     C_2   0.851166 0.286517 0.502551 0.200023
C18   C     C_2   0.501895 0.070677 0.927400 0.440654
C19   C     C_2   0.043899 0.554785 0.929397 0.446423
C20   C     C_2   0.517022 0.069224 0.075165 0.418857
C21   C     C_2   0.062066 0.532536 0.070935 0.452883
C22   C     C_R   0.888679 0.374753 0.500036 0.848154
C23   C     C_R   0.876850 0.613337 0.501087 0.853060
C24   C     C_R   0.620549 0.117067 0.499375 0.961495
C25   C     C_R   0.617134 0.879892 0.498133 0.967930
C26   C     C_R   0.107949 0.627089 0.501393 0.957148
C27   C     C_R   0.117361 0.380011 0.498184 0.934410
C28   C     C_2   0.694652 0.756769 0.391051 0.418035
Cl1   Cl    Cl    0.478967 0.173466 0.855523 -0.429124
Cl2   Cl    Cl    0.068628 0.662920 0.877845 -0.435007
Cl3   Cl    Cl    0.562001 0.909569 0.904209 -0.323798
Cl4   Cl    Cl    0.019538 0.388561 0.887623 -0.316262
Cl5   Cl    Cl    0.547522 0.170994 0.150584 -0.466813
Cl6   Cl    Cl    0.172016 0.538047 0.125945 -0.387847
H1    H     H_    0.732185 0.817619 0.572579 0.180473
H2    H     H_    0.900448 0.034074 0.209851 0.406151
H3    H     H_    0.177369 0.137854 0.142789 0.383820
H4    H     H_    0.060880 0.887688 0.154713 0.412081
H5    H     H_    0.224733 0.991541 0.634218 0.336834
H6    H     H_    0.338479 0.608771 0.687338 0.406549
H7    H     H_    0.705523 0.527445 0.777187 0.415867
H8    H     H_    0.815994 0.221884 0.844965 0.418319
H9    H     H_    0.264850 0.957933 0.181632 0.400116
H10   H     H_    0.758813 0.505124 0.187132 0.392421
H11   H     H_    0.681415 0.240550 0.558050 0.174889
H12   H     H_    0.235965 0.319877 0.566183 0.172558
H13   H     H_    0.180195 0.726463 0.608487 0.215547
H14   H     H_    0.304880 0.195166 0.305334 0.207169
H15   H     H_    0.229626 0.898034 0.402966 0.186516
H16   H     H_    0.813404 0.702405 0.308142 0.221814
H17   H     H_    0.811283 0.290843 0.302483 0.208209
H18   H     H_    0.702720 0.665776 0.110897 0.392255
N1    N     N_2   0.501330 0.000000 0.852150 0.030257
N2    N     N_2   0.001330 0.500000 0.852150 0.024472
N3    N     N_2   0.501360 0.000000 0.147810 0.024478
N4    N     N_2   0.001360 0.500000 0.147810 0.018479
O1    O     O_R   0.409520 0.909540 0.613040 -0.565087
O2    O     O_R   0.590440 0.909540 0.613100 -0.558616
O3    O     O_R   0.090440 0.590460 0.613100 -0.600636
O4    O     O_R   0.090440 0.409540 0.613100 -0.561698
O5    O     O_R   0.590480 0.090460 0.386960 -0.559652
O6    O     O_R   0.590480 0.909540 0.386960 -0.554218
O7    O     O_R   0.090480 0.590460 0.386960 -0.549354
O8    O     O_R   0.090480 0.409540 0.386960 -0.569357
O9    O     O_2   0.531173 0.746459 0.286634 -0.155744
O10   O     O_2   0.645567 0.824264 0.159802 -0.214118
O11   O     O_3   0.650004 0.652110 0.165823 -0.475286
O12   O     O_R   0.409520 0.090460 0.613040 -0.543284
O13   O     O_2   0.771212 0.000878 0.388470 -0.308733
O14   O     O_2   0.723494 0.074812 0.187451 -0.241638
O15   O     O_3   0.887897 0.091112 0.256036 -0.426640
O16   O     O_2   0.017913 0.239216 0.324376 -0.224748
O17   O     O_2   0.121390 0.302700 0.163855 -0.222915
O18   O     O_3   0.123997 0.132340 0.199521 -0.451138
O19   O     O_2   0.155404 0.737168 0.154134 -0.173606
O20   O     O_2   0.016675 0.733083 0.282540 -0.293654
O21   O     O_3   0.091185 0.885692 0.241046 -0.526100
O22   O     O_2   0.238505 0.203884 0.748505 -0.185228
O23   O     O_R   0.909520 0.409540 0.613040 -0.522183
O24   O     O_2   0.124289 0.138232 0.605437 -0.202386
O25   O     O_3   0.241206 0.034397 0.705316 -0.452775
O26   O     O_2   0.325655 0.636152 0.427459 -0.242495
O27   O     O_2   0.456659 0.703381 0.530765 -0.201723
O28   O     O_3   0.321648 0.671911 0.680283 -0.505108
O29   O     O_2   0.736681 0.700190 0.748164 -0.238014
O30   O     O_2   0.624911 0.638711 0.596210 -0.205164
O31   O     O_3   0.739611 0.531526 0.693615 -0.498468
O32   O     O_2   0.857294 0.124019 0.618900 -0.223769
O33   O     O_2   0.962209 0.237879 0.693830 -0.168587
O34   O     O_R   0.909520 0.590460 0.613040 -0.560153
O35   O     O_3   0.797904 0.254292 0.765382 -0.500762
O36   O     O_2   0.365951 0.953695 0.973960 -0.260641
O37   O     O_2   0.409012 0.848213 0.139838 -0.135670
O38   O     O_3   0.320170 0.988447 0.209624 -0.547594
O39   O     O_2   0.877971 0.606977 0.050186 -0.291608
O40   O     O_2   0.861694 0.448740 0.996390 -0.232063
O41   O     O_3   0.818382 0.500384 0.226588 -0.505875
O42   O     O_R   0.409560 0.909540 0.386900 -0.545706
O43   O     O_R   0.409560 0.090460 0.386900 -0.592178
O44   O     O_R   0.909560 0.409540 0.386900 -0.571696
O45   O     O_R   0.909560 0.590460 0.386900 -0.565600
O46   O     O_R   0.590440 0.090460 0.613100 -0.584755
S1    S     S_3+6 0.627356 0.747108 0.248434 0.165880
S2    S     S_3+6 0.889871 0.514624 0.101054 0.142722
S3    S     S_3+6 0.781912 0.082525 0.306540 0.128535
S4    S     S_3+6 0.109979 0.233746 0.268316 0.147217
S5    S     S_3+6 0.105859 0.777086 0.269121 0.098719
S6    S     S_3+6 0.220323 0.134853 0.643105 0.115569
S7    S     S_3+6 0.357255 0.702353 0.529881 0.101823
S8    S     S_3+6 0.719957 0.634106 0.638073 0.094217
S9    S     S_3+6 0.869297 0.221756 0.646452 0.124121
S10   S     S_3+6 0.399961 0.945345 0.112056 0.186901
Zn1   Zn    Zn3+2 0.499970 0.000000 0.650990 1.188174
Zn2   Zn    Zn3+2 0.999970 0.500000 0.650990 1.188995
Zn3   Zn    Zn3+2 0.500030 0.000000 0.349010 1.192914
Zn4   Zn    Zn3+2 0.000030 0.500000 0.349010 1.193125

loop_
_geom_bond_atom_site_label_1
_geom_bond_atom_site_label_2
_ccdc_geom_bond_type
H3    O18   S    
O19   S5    D    
C24   O5    A    
O8    Zn4   S    
C6    H11   S    
N3    S10   S    
C8    C26   S    
C15   S7    S    
O4    Zn2   S    
O44   Zn4   S    
C4    C8    D    
O42   Zn3   S    
O11   S1    S    
O31   S8    S    
C12   O12   A    
O30   S8    D    
C22   O23   A    
C3    C7    D    
C27   O4    A    
O43   Zn3   S    
N2    Zn2   S    
H9    O38   S    
C7    C27   S    
O22   S6    D    
H8    O35   S    
H10   O41   S    
O35   S9    S    
C2    C13   S    
H6    O28   S    
C12   O43   A    
C18   N1    D    
C13   H17   S    
O32   S9    D    
C20   Cl5   S    
O5    Zn3   S    
O2    Zn1   S    
O27   S7    D    
C1    C15   S    
C26   O3    A    
C18   C20   S    
H2    O15   S    
O12   Zn1   S    
C14   S6    S    
O25   S6    S    
C2    C6    D    
C20   N3    D    
C17   S9    S    
Cl4   N2    S    
N1    Zn1   S    
C3    S4    S    
H7    O31   S    
C4    S5    S    
C22   O44   A    
C16   S8    S    
C7    H12   S    
O21   S5    S    
N4    S2    S    
O29   S8    D    
C9    C14   D    
O13   S3    D    
O36   S10   D    
O1    Zn1   S    
C21   Cl6   S    
C26   O7    A    
O26   S7    D    
C3    C9    S    
C1    O1    A    
O18   S4    S    
C5    C28   D    
C11   C16   D    
C6    C24   S    
N4    Zn4   S    
C23   O34   A    
C18   Cl1   S    
Cl3   N1    S    
H5    O25   S    
H18   O11   S    
C5    C25   S    
O7    Zn4   S    
C19   N2    D    
C12   C14   S    
C16   C23   S    
O15   S3    S    
C25   O2    A    
O9    S1    D    
C4    C10   S    
O39   S2    D    
O33   S9    D    
C19   C21   S    
O10   S1    D    
C17   C22   S    
O16   S4    D    
O14   S3    D    
C1    O42   A    
C21   N4    D    
H4    O21   S    
O20   S5    D    
O24   S6    D    
C2    S3    S    
O28   S7    S    
C13   C17   D    
C10   C15   D    
O40   S2    D    
C8    H13   S    
O6    Zn3   S    
C11   H16   S    
C19   Cl2   S    
C28   S1    S    
O17   S4    D    
C23   O45   A    
N3    Zn3   S    
C11   C28   S    
O3    Zn2   S    
C5    H1    S    
O38   S10   S    
C24   O46   A    
C25   O6    A    
O34   Zn2   S    
O41   S2    S    
C27   O8    A    
O37   S10   D    
C9    H14   S    
O23   Zn2   S    
O46   Zn1   S    
O45   Zn4   S    
C10   H15   S    
