data_mof_unit_22086.cif
_audit_creation_date              2013-03-05T16:32:29-0500
_audit_creation_method            fapswitch 2.2
_symmetry_space_group_name_H-M    P1
_symmetry_Int_Tables_number       1
_space_group_crystal_system       triclinic
_cell_length_a                    15.103366
_cell_length_b                    14.325187
_cell_length_c                    11.040323
_cell_angle_alpha                 90.91754
_cell_angle_beta                  94.81374
_cell_angle_gamma                 90.067879
_cell_volume                      2379.92992869

loop_
_atom_site_label
_atom_site_type_symbol
_atom_site_description
_atom_site_fract_x
_atom_site_fract_y
_atom_site_fract_z
_atom_type_partial_charge
O1    O     O_R   0.369070 0.579480 0.500010 -0.558798
O2    O     O_R   0.369070 0.420520 0.500010 -0.558148
C1    C     C_R   0.327586 0.499734 0.503783 0.990771
O3    O     O_R   0.499990 0.579480 0.314790 -0.546456
O4    O     O_R   0.499990 0.420520 0.314790 -0.582638
C2    C     C_R   0.498737 0.499394 0.256831 0.892044
Zn1   Zn    Zn3+2 0.500010 0.606140 0.500000 1.088887
Zn2   Zn    Zn3+2 0.500010 0.393860 0.500000 1.082536
O5    O     O_R   0.630940 0.579480 0.499990 -0.546346
O6    O     O_R   0.630940 0.420520 0.499990 -0.523427
O7    O     O_R   0.500020 0.579480 0.685200 -0.590326
O8    O     O_R   0.500020 0.420520 0.685200 -0.617471
C3    C     C_R   0.671957 0.499561 0.493820 0.988712
C4    C     C_R   0.501105 0.499903 0.741822 0.971669
C5    C     C_3   0.419624 0.565434 0.061076 0.400869
C6    C     C_3   0.477925 0.392323 0.061677 0.298392
C7    C     C_3   0.423050 0.559031 0.918384 -0.307841
C8    C     C_3   0.493546 0.393605 0.923488 -0.289293
H1    H     H_    0.437404 0.628493 0.885772 0.122488
H2    H     H_    0.556840 0.360948 0.905900 0.197202
C9    C     C_3   0.600157 0.532156 0.081777 -0.385773
C10   C     C_3   0.500454 0.498832 0.119309 -0.322773
C11   C     C_3   0.501677 0.497873 0.877477 -0.314395
C12   C     C_3   0.596640 0.535634 0.934361 0.818964
C13   C     C_R   0.091977 0.557798 0.409318 0.354424
C14   C     C_R   0.091509 0.420966 0.538392 0.340590
C15   C     C_R   0.180769 0.571226 0.447229 0.324205
C16   C     C_R   0.185672 0.420834 0.548723 0.351750
C17   C     C_R   0.230087 0.497784 0.501740 -0.357280
C18   C     C_R   0.045924 0.486206 0.462150 -0.206837
C19   C     C_R   0.898950 0.410625 0.431164 -0.253128
C20   C     C_R   0.909540 0.574213 0.486700 -0.263677
H3    H     H_    0.930852 0.347447 0.402131 0.173606
H4    H     H_    0.949701 0.635505 0.510557 0.181020
C21   C     C_R   0.808470 0.410967 0.448176 0.484434
C22   C     C_R   0.817788 0.580171 0.485692 0.423260
C23   C     C_R   0.767262 0.496995 0.476663 -0.268852
C24   C     C_R   0.949606 0.490504 0.456999 0.101250
C25   C     C_R   0.438354 0.105285 0.420751 -0.392549
C26   C     C_R   0.425879 0.894449 0.449677 -0.408467
H5    H     H_    0.393884 0.068923 0.354545 0.151464
H6    H     H_    0.365771 0.931167 0.421149 0.130245
C27   C     C_R   0.432932 0.204283 0.434141 0.742125
C28   C     C_R   0.429525 0.794641 0.441294 0.718960
N1    N     N_R   0.499980 0.252470 0.500000 -0.146929
N2    N     N_R   0.499980 0.747530 0.500000 -0.151436
C29   C     C_R   0.556239 0.202686 0.581195 0.003192
C30   C     C_R   0.571227 0.800129 0.551841 -0.021875
C31   C     C_R   0.555417 0.104345 0.578702 -0.324729
C32   C     C_R   0.573820 0.897760 0.539091 -0.322729
H7    H     H_    0.598003 0.067750 0.645543 0.200119
H8    H     H_    0.633538 0.935470 0.570331 0.196266
C33   C     C_R   0.498952 0.053481 0.495267 0.091832
C34   C     C_R   0.499652 0.947460 0.493276 0.125015
C35   C     C_2   0.417672 0.671066 0.091215 0.773114
O9    O     O_2   0.467682 0.708293 0.169695 -0.582397
O10   O     O_R   0.354770 0.725955 0.024656 -0.820418
H9    H     H_    0.363512 0.795265 0.040978 0.330566
C36   C     C_2   0.534834 0.308775 0.117531 0.970562
O11   O     O_2   0.600864 0.281142 0.070597 -0.613670
O12   O     O_R   0.513088 0.262551 0.221274 -0.782713
H10   H     H_    0.556261 0.210749 0.246244 0.348245
O13   O     O_3   0.758130 0.330358 0.425127 -0.535668
C37   C     C_3   0.793616 0.255825 0.495931 -0.201257
H11   H     H_    0.741460 0.201589 0.499125 0.174250
H12   H     H_    0.814137 0.277933 0.591456 0.157513
H13   H     H_    0.849969 0.222731 0.453259 0.146142
O14   O     O_3   0.777482 0.665672 0.502157 -0.582699
C38   C     C_3   0.804952 0.731829 0.419089 -0.172828
H14   H     H_    0.865546 0.768987 0.458416 0.152682
H15   H     H_    0.751616 0.784501 0.403266 0.196527
H16   H     H_    0.816823 0.700319 0.328937 0.157163
O15   O     O_3   0.360825 0.255164 0.385170 -0.598177
C39   C     C_3   0.282486 0.201719 0.358959 -0.450927
H17   H     H_    0.225592 0.250330 0.344948 0.194081
H18   H     H_    0.269240 0.154389 0.434191 0.163201
H19   H     H_    0.285289 0.161041 0.272968 0.164185
O16   O     O_3   0.363200 0.742520 0.376202 -0.558233
C40   C     C_3   0.307845 0.796292 0.293787 -0.213551
H20   H     H_    0.268083 0.749551 0.230382 0.210653
H21   H     H_    0.346929 0.842364 0.238060 0.147143
H22   H     H_    0.259178 0.837506 0.342211 0.136973
C41   C     C_2   0.612309 0.245989 0.684690 0.909796
O17   O     O_2   0.645722 0.322535 0.677519 -0.610402
O18   O     O_R   0.630139 0.195883 0.791802 -0.781448
H23   H     H_    0.670917 0.230856 0.854650 0.375134
C42   C     C_2   0.646239 0.760697 0.629062 0.998631
O19   O     O_2   0.639826 0.684726 0.673587 -0.564072
O20   O     O_R   0.723707 0.813133 0.658091 -0.830502
H24   H     H_    0.768932 0.779312 0.714542 0.353865
O21   O     O_3   0.335098 0.527859 0.086247 -0.553253
C43   C     C_3   0.297344 0.557254 0.193083 -0.207477
H25   H     H_    0.344268 0.590219 0.262184 0.209014
H26   H     H_    0.267829 0.496026 0.234689 0.121170
H27   H     H_    0.241819 0.605193 0.167493 0.190449
O22   O     O_3   0.384190 0.373741 0.054091 -0.566502
C44   C     C_3   0.347295 0.327985 0.148075 -0.050103
H28   H     H_    0.362747 0.365368 0.234654 0.219186
H29   H     H_    0.363996 0.252807 0.146296 0.182951
H30   H     H_    0.274001 0.331127 0.130333 0.151322
C45   C     C_2   0.332979 0.541176 0.846772 1.105744
O23   O     O_2   0.308629 0.592772 0.763262 -0.685593
O24   O     O_R   0.276240 0.469933 0.877740 -0.666897
H31   H     H_    0.218158 0.469331 0.824999 0.325621
C46   C     C_2   0.433323 0.321415 0.851909 1.060022
O25   O     O_2   0.371512 0.345034 0.781443 -0.546948
O26   O     O_R   0.448742 0.226344 0.871329 -0.791660
H32   H     H_    0.405516 0.184893 0.819824 0.326270
C47   C     C_2   0.644046 0.622183 0.137938 0.916297
O27   O     O_2   0.625359 0.655462 0.234591 -0.565814
O28   O     O_R   0.718589 0.658363 0.086935 -0.769646
H33   H     H_    0.743112 0.716944 0.130277 0.321317
C48   C     C_2   0.672605 0.464388 0.135708 0.969142
O29   O     O_2   0.662506 0.422528 0.228887 -0.613214
O30   O     O_R   0.757183 0.462615 0.092330 -0.752319
H34   H     H_    0.800014 0.419748 0.140181 0.338230
O31   O     O_3   0.621257 0.624146 0.884737 -0.582622
C49   C     C_3   0.578463 0.709341 0.908412 -0.212560
H35   H     H_    0.548813 0.712938 0.993860 0.138367
H36   H     H_    0.530144 0.727950 0.831496 0.176938
H37   H     H_    0.629425 0.765391 0.913451 0.202342
O32   O     O_3   0.659413 0.467491 0.896262 -0.633775
C50   C     C_3   0.729653 0.500651 0.831154 0.019976
H38   H     H_    0.769481 0.555128 0.883883 0.207588
H39   H     H_    0.703737 0.526646 0.741257 0.168731
H40   H     H_    0.774781 0.441570 0.814863 0.132702
O33   O     O_3   0.048669 0.624044 0.336126 -0.594565
C51   C     C_3   0.027912 0.584368 0.219439 -0.273952
H41   H     H_    0.975876 0.529547 0.220781 0.174303
H42   H     H_    0.087875 0.555278 0.180517 0.146868
H43   H     H_    0.001008 0.639955 0.158063 0.194430
O34   O     O_3   0.043437 0.357752 0.600533 -0.620128
C52   C     C_3   0.024285 0.397949 0.712875 -0.325852
H44   H     H_    0.995609 0.469284 0.703515 0.160535
H45   H     H_    0.084493 0.399426 0.777505 0.177065
H46   H     H_    0.974238 0.353595 0.752545 0.185032
O35   O     O_3   0.218671 0.657367 0.433486 -0.540610
C53   C     C_3   0.191352 0.718062 0.525666 -0.152856
H47   H     H_    0.123600 0.745275 0.500065 0.154673
H48   H     H_    0.237382 0.778481 0.536357 0.167240
H49   H     H_    0.193164 0.684559 0.616273 0.172283
O36   O     O_3   0.236882 0.357818 0.619219 -0.534668
C54   C     C_3   0.201478 0.266649 0.620069 -0.071187
H50   H     H_    0.161113 0.246875 0.534635 0.124274
H51   H     H_    0.162464 0.258329 0.699977 0.178038
H52   H     H_    0.257591 0.216887 0.632010 0.148497

loop_
_geom_bond_atom_site_label_1
_geom_bond_atom_site_label_2
_geom_bond_distance
_ccdc_geom_bond_type
C27   O15   1.387547 S    
C54   H52   1.108825 S    
C42   O19   1.208431 D    
C45   O23   1.223581 D    
C15   C17   1.403838 A    
O15   C39   1.415311 S    
O28   H33   1.013436 S    
C35   O9    1.216569 D    
C51   H41   1.111514 S    
C44   H28   1.095811 S    
C50   H38   1.111452 S    
C29   C31   1.408605 A    
C33   C34   1.518643 S    
Zn1   O7    2.086019 S    
C46   O26   1.398835 S    
C12   O31   1.449617 S    
C7    C11   1.568939 S    
C39   H18   1.111389 S    
C20   C22   1.387618 A    
C16   C17   1.417438 A    
C21   C23   1.423814 A    
C47   O28   1.402696 S    
O4    C2    1.306762 A    
O7    C4    1.308316 A    
C50   H39   1.106297 S    
C54   H50   1.111803 S    
C2    C10   1.520570 S    
C18   C24   1.452478 S    
C5    C7    1.581752 S    
C38   H15   1.109420 S    
O5    C3    1.305898 A    
C49   H35   1.078213 S    
C7    C45   1.534044 S    
Zn2   N1    2.025438 S    
C5    C10   1.644584 S    
O14   C38   1.414968 S    
C31   H7    1.080094 S    
C39   H19   1.109846 S    
C52   H46   1.109146 S    
C32   H8    1.079328 S    
O26   H32   1.013966 S    
C19   H3    1.082434 S    
C20   C24   1.390711 A    
C3    C23   1.467939 S    
C30   C32   1.408712 A    
C36   O11   1.225091 D    
C45   O24   1.396814 S    
C5    C35   1.544990 S    
C9    C10   1.666287 S    
C38   H14   1.110924 S    
O3    Zn1   2.074093 S    
C12   O32   1.443832 S    
C44   H29   1.106607 S    
C28   N2    1.381230 A    
N1    C29   1.388611 A    
N2    C30   1.390744 A    
C6    O22   1.435477 S    
C36   O12   1.394671 S    
C39   H17   1.108951 S    
C8    C11   1.593259 S    
C37   H13   1.110039 S    
C9    C48   1.551112 S    
O21   C43   1.411116 S    
C40   H21   1.111571 S    
O16   C40   1.420048 S    
O34   C52   1.411135 S    
C50   H40   1.109181 S    
C25   C27   1.426651 A    
O18   H23   1.013982 S    
C53   H49   1.114705 S    
C43   H27   1.105670 S    
O13   C37   1.412825 S    
O1    C1    1.305190 A    
C6    C36   1.577514 S    
C37   H12   1.114805 S    
C4    C11   1.497725 S    
C38   H16   1.114570 S    
C28   O16   1.391975 S    
Zn1   N2    2.025439 S    
C40   H22   1.109738 S    
C41   O17   1.213061 D    
Zn2   O8    2.073995 S    
O22   C44   1.390963 S    
C43   H26   1.106948 S    
C30   C42   1.477926 S    
C15   O35   1.375619 S    
C27   N1    1.374533 A    
C53   H48   1.108104 S    
O3    C2    1.303993 A    
C41   O18   1.400124 S    
O8    C4    1.288293 A    
C14   C18   1.409050 A    
C26   C34   1.395051 A    
C42   O20   1.401138 S    
C52   H44   1.113292 S    
C19   C21   1.394932 A    
C16   O36   1.393554 S    
O33   C51   1.410424 S    
O20   H24   1.014267 S    
C51   H43   1.109137 S    
C44   H30   1.108978 S    
C14   O34   1.385567 S    
C48   O29   1.219429 D    
C46   O25   1.215941 D    
C13   C18   1.400490 A    
C54   H51   1.109124 S    
C22   C23   1.411821 A    
C6    C10   1.667306 S    
O1    Zn1   2.013737 S    
Zn2   O6    2.013590 S    
O2    Zn2   2.014625 S    
C29   C41   1.490352 S    
O6    C3    1.295520 A    
C51   H42   1.113097 S    
O4    Zn2   2.086117 S    
C9    C47   1.546101 S    
C22   O14   1.384561 S    
C13   C15   1.383190 A    
O35   C53   1.415952 S    
C14   C16   1.417173 A    
C19   C24   1.388140 A    
C37   H11   1.108828 S    
C35   O10   1.401385 S    
O2    C1    1.298658 A    
C13   O33   1.385179 S    
C8    C46   1.540196 S    
C32   C34   1.391348 A    
O31   C49   1.412629 S    
C1    C17   1.471073 S    
O10   H9    1.012761 S    
C25   C33   1.399991 A    
C31   C33   1.397108 A    
C26   H6    1.076331 S    
C43   H25   1.097363 S    
C7    H1    1.091252 S    
C8    H2    1.095309 S    
O12   H10   1.014580 S    
C49   H36   1.108352 S    
C53   H47   1.111255 S    
C11   C12   1.606304 S    
C5    O21   1.435074 S    
C40   H20   1.101135 S    
Zn1   O5    2.014478 S    
C26   C28   1.432701 A    
C25   H5    1.077639 S    
C6    C8    1.563628 S    
C9    C12   1.625498 S    
O24   H31   1.011316 S    
C52   H45   1.107731 S    
O36   C54   1.411123 S    
C21   O13   1.390059 S    
O32   C50   1.416148 S    
C47   O27   1.216623 D    
C49   H37   1.109130 S    
O30   H34   1.014213 S    
C20   H4    1.082925 S    
C48   O30   1.401481 S    
