data_mof_unit_65226.cif
_audit_creation_date              2012-12-10T17:13:11-0500
_audit_creation_method            fapswitch 2.2
_symmetry_space_group_name_H-M    P1
_symmetry_Int_Tables_number       1
_space_group_crystal_system       triclinic
_cell_length_a                    30.582143
_cell_length_b                    30.630623
_cell_length_c                    24.671971
_cell_angle_alpha                 89.328484
_cell_angle_beta                  128.237052
_cell_angle_gamma                 90.018042
_cell_volume                      18151.1073889

loop_
_atom_site_label
_atom_site_type_symbol
_atom_type_description
_atom_site_fract_x
_atom_site_fract_y
_atom_site_fract_z
_atom_type_partial_charge
C1    C     C_R   0.690909 0.189841 0.501918 0.968054
C2    C     C_R   0.309666 0.189883 0.499484 0.972647
C3    C     C_R   0.190909 0.689841 0.501917 0.968029
C4    C     C_R   0.809667 0.689883 0.499486 0.972549
C5    C     C_R   0.643326 0.250457 0.289870 -0.216217
C6    C     C_R   0.353907 0.251195 0.710188 -0.189663
C7    C     C_R   0.143326 0.750457 0.289871 -0.216123
C8    C     C_R   0.853919 0.751176 0.710187 -0.189535
C9    C     C_R   0.463649 0.249643 0.931235 0.323241
C10   C     C_R   0.532819 0.247827 0.070746 0.315478
C11   C     C_R   0.963660 0.749623 0.931234 0.323269
C12   C     C_R   0.032803 0.747828 0.070743 0.315444
C13   C     C_R   0.677973 0.186930 0.611185 0.519644
C14   C     C_R   0.269160 0.144430 0.371608 0.433133
C15   C     C_R   0.177955 0.686940 0.611170 0.519663
C16   C     C_R   0.769138 0.644393 0.371628 0.433165
C17   C     C_R   0.657724 0.194429 0.648006 -0.230161
C18   C     C_R   0.258061 0.136114 0.308583 -0.256512
C19   C     C_R   0.157698 0.694442 0.647981 -0.230173
C20   C     C_R   0.758023 0.636067 0.308596 -0.256506
C21   C     C_R   0.611869 0.171608 0.632153 0.156211
C22   C     C_R   0.300512 0.122126 0.307125 0.171024
C23   C     C_R   0.111845 0.671618 0.632127 0.156219
C24   C     C_R   0.800468 0.622089 0.307121 0.171023
C25   C     C_R   0.588142 0.139366 0.582278 -0.217103
C26   C     C_R   0.353046 0.112699 0.368743 -0.150123
C27   C     C_R   0.088127 0.639371 0.582261 -0.217116
C28   C     C_R   0.853013 0.612678 0.368731 -0.150091
C29   C     C_R   0.607916 0.131553 0.544460 -0.005792
C30   C     C_R   0.364075 0.117873 0.433129 0.033439
C31   C     C_R   0.107908 0.631556 0.544452 -0.005799
C32   C     C_R   0.864060 0.617860 0.433126 0.033441
C33   C     C_R   0.648542 0.159048 0.553153 -0.060002
C34   C     C_R   0.324422 0.139975 0.434293 -0.076424
C35   C     C_R   0.148534 0.659052 0.553145 -0.059992
C36   C     C_R   0.824410 0.639959 0.434300 -0.076477
C37   C     C_R   0.659370 0.156465 0.504992 -0.154866
C38   C     C_R   0.341738 0.156594 0.497986 -0.143997
C39   C     C_R   0.159371 0.656464 0.504994 -0.154875
C40   C     C_R   0.841739 0.656592 0.497991 -0.143992
C41   C     C_R   0.634977 0.123893 0.454620 0.135550
C42   C     C_R   0.393920 0.145880 0.559935 0.128657
C43   C     C_R   0.134990 0.623884 0.454634 0.135559
C44   C     C_R   0.893929 0.645888 0.559934 0.128698
C45   C     C_R   0.682688 0.250450 0.365362 0.925891
C46   C     C_R   0.316864 0.250321 0.634644 0.926044
C47   C     C_R   0.182688 0.750449 0.365362 0.925945
C48   C     C_R   0.816868 0.750316 0.634644 0.926160
C49   C     C_R   0.601270 0.093451 0.453306 -0.180754
C50   C     C_R   0.427973 0.116828 0.559212 -0.209711
C51   C     C_R   0.101282 0.593443 0.453320 -0.180793
C52   C     C_R   0.927981 0.616836 0.559208 -0.209716
C53   C     C_R   0.588446 0.096758 0.498253 -0.084423
C54   C     C_R   0.412736 0.101334 0.496617 -0.154435
C55   C     C_R   0.088447 0.596757 0.498254 -0.084401
C56   C     C_R   0.912733 0.601333 0.496613 -0.154439
C57   C     C_R   0.910845 0.230544 0.747721 0.403027
C58   C     C_R   0.091224 0.234733 0.250744 0.422989
C59   C     C_R   0.410834 0.730532 0.747728 0.403051
C60   C     C_R   0.591209 0.734762 0.250743 0.422882
C61   C     C_R   0.949501 0.234210 0.819548 0.086367
C62   C     C_R   0.055532 0.238091 0.178548 0.080820
C63   C     C_R   0.449489 0.734200 0.819555 0.086376
C64   C     C_R   0.555512 0.738139 0.178549 0.080824
C65   C     C_R   0.933852 0.254664 0.855833 -0.197516
C66   C     C_R   0.076003 0.253563 0.144412 -0.192668
C67   C     C_R   0.433849 0.754678 0.855833 -0.197531
C68   C     C_R   0.575987 0.753596 0.144412 -0.192662
C69   C     C_R   0.881230 0.274357 0.820511 0.071689
C70   C     C_R   0.130980 0.268078 0.181736 0.096142
C71   C     C_R   0.381238 0.774390 0.820504 0.071705
C72   C     C_R   0.630975 0.768087 0.181736 0.096167
C73   C     C_R   0.845255 0.275966 0.748357 0.441407
C74   C     C_R   0.166338 0.266399 0.253849 0.411691
C75   C     C_R   0.345266 0.775994 0.748351 0.441412
C76   C     C_R   0.666338 0.766397 0.253849 0.411726
C77   C     C_R   0.858808 0.252594 0.711173 -0.371981
C78   C     C_R   0.146433 0.250136 0.288984 -0.330438
C79   C     C_R   0.358809 0.752599 0.711173 -0.371990
C80   C     C_R   0.646429 0.750143 0.288984 -0.330558
C81   C     C_R   0.039915 0.254055 0.069562 0.409289
C82   C     C_R   0.971902 0.254520 0.930739 0.409819
C83   C     C_R   0.539899 0.754085 0.069561 0.409262
C84   C     C_R   0.471896 0.754539 0.930739 0.409821
C85   C     C_R   0.757766 0.372563 0.386805 -0.154437
C86   C     C_R   0.246827 0.375217 0.604723 -0.160178
C87   C     C_R   0.257770 0.872562 0.386804 -0.154398
C88   C     C_R   0.746819 0.875263 0.604642 -0.160153
C89   C     C_R   0.809426 0.309903 0.498725 0.895502
C90   C     C_R   0.190626 0.309922 0.501407 0.904988
C91   C     C_R   0.309427 0.809903 0.498726 0.895482
C92   C     C_R   0.690620 0.809922 0.501397 0.904997
C93   C     C_R   0.730856 0.406944 0.339287 -0.226456
C94   C     C_R   0.276432 0.411708 0.641929 -0.231300
C95   C     C_R   0.230859 0.906941 0.339285 -0.226414
C96   C     C_R   0.776414 0.911774 0.641787 -0.231276
C97   C     C_R   0.758791 0.445845 0.350980 0.130018
C98   C     C_R   0.248576 0.449968 0.633104 0.114911
C99   C     C_R   0.258793 0.945843 0.350978 0.129956
C100  C     C_R   0.748543 0.950030 0.632940 0.114974
C101  C     C_R   0.814944 0.449637 0.408843 0.536847
C102  C     C_R   0.189740 0.450380 0.593021 0.501687
C103  C     C_R   0.314945 0.949637 0.408843 0.536844
C104  C     C_R   0.689713 0.950414 0.592916 0.501626
C105  C     C_R   0.844755 0.412458 0.451907 -0.123417
C106  C     C_R   0.158417 0.413712 0.549566 -0.090566
C107  C     C_R   0.344756 0.912458 0.451909 -0.123421
C108  C     C_R   0.658397 0.913725 0.549510 -0.090659
C109  C     C_R   0.814461 0.375641 0.445090 -0.004383
C110  C     C_R   0.188401 0.377141 0.553316 0.000221
C111  C     C_R   0.314464 0.875640 0.445092 -0.004436
C112  C     C_R   0.688388 0.877162 0.553264 0.000213
C113  C     C_R   0.841547 0.342882 0.496969 -0.186088
C114  C     C_R   0.159776 0.343026 0.505489 -0.199828
C115  C     C_R   0.341548 0.842883 0.496972 -0.186073
C116  C     C_R   0.659766 0.843025 0.505479 -0.199856
C117  C     C_R   0.898605 0.344373 0.552101 0.055051
C118  C     C_R   0.101949 0.343220 0.455576 0.071301
C119  C     C_R   0.398605 0.844375 0.552107 0.055044
C120  C     C_R   0.601929 0.843180 0.455629 0.071397
C121  C     C_R   0.929332 0.379335 0.556501 0.460792
C122  C     C_R   0.071863 0.378685 0.450703 0.443729
C123  C     C_R   0.429333 0.879337 0.556506 0.460838
C124  C     C_R   0.571827 0.878628 0.450773 0.443663
C125  C     C_R   0.903280 0.411501 0.503546 -0.274718
C126  C     C_R   0.098932 0.412048 0.500409 -0.262918
C127  C     C_R   0.403282 0.911501 0.503548 -0.274711
C128  C     C_R   0.598910 0.912029 0.500413 -0.262868
C129  C     C_R   0.063076 0.442855 0.500253 1.035473
C130  C     C_R   0.938361 0.441634 0.500748 1.036391
C131  C     C_R   0.563069 0.942848 0.500253 1.035695
C132  C     C_R   0.438362 0.941633 0.500749 1.036444
C133  C     C_R   0.818558 0.250838 0.634935 1.024896
C134  C     C_R   0.182859 0.250142 0.365096 1.023338
C135  C     C_R   0.318559 0.750839 0.634935 1.024835
C136  C     C_R   0.682860 0.750142 0.365097 1.023205
C137  C     C_R   0.558252 0.061540 0.499455 0.898495
C138  C     C_R   0.443071 0.063602 0.499174 0.892526
C139  C     C_R   0.058252 0.561540 0.499455 0.898406
C140  C     C_R   0.943070 0.563602 0.499173 0.892536
C141  C     C_R   0.636614 0.212238 0.254921 -0.228843
C142  C     C_R   0.358690 0.214093 0.747196 -0.230687
C143  C     C_R   0.136550 0.712221 0.254922 -0.228930
C144  C     C_R   0.858778 0.714051 0.747193 -0.230791
C145  C     C_R   0.598852 0.211154 0.183445 -0.210368
C146  C     C_R   0.394662 0.213797 0.818854 -0.212465
C147  C     C_R   0.098780 0.711140 0.183446 -0.210353
C148  C     C_R   0.894755 0.713750 0.818852 -0.212534
C149  C     C_R   0.567655 0.248404 0.145819 -0.103245
C150  C     C_R   0.425007 0.251213 0.855152 -0.092675
C151  C     C_R   0.067644 0.748410 0.145820 -0.103253
C152  C     C_R   0.925029 0.751183 0.855152 -0.092637
C153  C     C_R   0.572223 0.286724 0.180314 0.469369
C154  C     C_R   0.417706 0.289710 0.817975 0.441353
C155  C     C_R   0.072280 0.786752 0.180318 0.469371
C156  C     C_R   0.917661 0.789688 0.817973 0.441483
C157  C     C_R   0.610928 0.287961 0.252601 0.420087
C158  C     C_R   0.385098 0.288764 0.745769 0.391516
C159  C     C_R   0.110990 0.787982 0.252605 0.420136
C160  C     C_R   0.885048 0.788754 0.745773 0.391630
H1    H     H_    0.660835 0.183150 0.282949 0.214484
H2    H     H_    0.335624 0.184786 0.720636 0.197166
H3    H     H_    0.160726 0.683119 0.282951 0.214496
H4    H     H_    0.835762 0.684735 0.720627 0.197193
H5    H     H_    0.584928 0.066974 0.416897 0.178246
H6    H     H_    0.466124 0.105946 0.607981 0.203765
H7    H     H_    0.084949 0.566961 0.416920 0.178216
H8    H     H_    0.966140 0.605962 0.607975 0.203765
H9    H     H_    0.734010 0.343472 0.377217 0.192359
H10   H     H_    0.270672 0.346011 0.614643 0.197439
H11   H     H_    0.234018 0.843468 0.377217 0.192494
H12   H     H_    0.770672 0.846057 0.614585 0.197650
H13   H     H_    0.687468 0.403973 0.294895 0.222396
H14   H     H_    0.321497 0.410557 0.676274 0.212663
H15   H     H_    0.187473 0.903970 0.294891 0.222472
H16   H     H_    0.821479 0.910639 0.676106 0.212665
H17   H     H_    0.595298 0.181590 0.157325 0.193226
H18   H     H_    0.398625 0.184038 0.845770 0.192996
H19   H     H_    0.095176 0.681560 0.157327 0.193246
H20   H     H_    0.898778 0.683981 0.845772 0.193037
H21   H     H_    0.679379 0.216580 0.691036 0.203995
H22   H     H_    0.216351 0.140843 0.260805 0.184391
H23   H     H_    0.179346 0.716598 0.691005 0.203983
H24   H     H_    0.716305 0.640782 0.260826 0.184405
H25   H     H_    0.553735 0.121142 0.572739 0.165299
H26   H     H_    0.385090 0.102855 0.365208 0.178141
H27   H     H_    0.053722 0.621145 0.572722 0.165295
H28   H     H_    0.885051 0.602838 0.365182 0.178148
N1    N     N_R   0.531584 0.282846 0.035865 -0.101102
N2    N     N_R   0.497762 0.283622 0.967434 -0.093394
N3    N     N_R   0.031595 0.782832 0.035858 -0.101064
N4    N     N_R   0.997784 0.783598 0.967427 -0.093319
N5    N     N_R   0.465896 0.214132 0.966418 -0.178411
N6    N     N_R   0.499955 0.213195 0.035049 -0.171926
N7    N     N_R   0.965879 0.714128 0.966420 -0.178432
N8    N     N_R   0.999926 0.713201 0.035050 -0.171940
N9    N     N_R   0.990377 0.292620 0.965373 -0.129477
N10   N     N_R   0.021553 0.215976 0.034935 -0.134701
N11   N     N_R   0.490396 0.792640 0.965367 -0.129476
N12   N     N_R   0.521511 0.716004 0.034940 -0.134716
N13   N     N_R   0.023913 0.292396 0.033918 -0.119393
N14   N     N_R   0.987926 0.216205 0.966425 -0.132690
N15   N     N_R   0.523928 0.792422 0.033912 -0.119389
N16   N     N_R   0.487888 0.716228 0.966431 -0.132690
O1    O     O_R   0.678340 0.230070 0.500020 -0.604843
O2    O     O_R   0.321660 0.230070 0.499980 -0.627028
O3    O     O_R   0.178340 0.730070 0.500020 -0.604811
O4    O     O_R   0.821660 0.730070 0.499980 -0.626998
O5    O     O_R   0.074600 0.454200 0.557500 -0.603701
O6    O     O_R   0.925400 0.454200 0.442500 -0.574003
O7    O     O_R   0.574600 0.954200 0.557500 -0.603670
O8    O     O_R   0.425400 0.954200 0.442500 -0.574031
O9    O     O_R   0.517070 0.045810 0.442480 -0.648669
O10   O     O_R   0.482930 0.045810 0.557520 -0.645869
O11   O     O_R   0.017070 0.545810 0.442480 -0.648684
O12   O     O_R   0.982930 0.545810 0.557520 -0.645865
O13   O     O_R   0.574570 0.045820 0.557490 -0.621418
O14   O     O_R   0.425430 0.045820 0.442510 -0.588682
O15   O     O_R   0.074570 0.545820 0.557490 -0.621461
O16   O     O_R   0.925430 0.545820 0.442510 -0.588697
O17   O     O_R   0.730080 0.178340 0.500000 -0.606934
O18   O     O_R   0.269920 0.178340 0.500000 -0.600164
O19   O     O_R   0.230080 0.678340 0.500000 -0.606954
O20   O     O_R   0.769920 0.678340 0.500000 -0.600138
O21   O     O_R   0.673200 0.275870 0.398140 -0.607884
O22   O     O_R   0.326800 0.275870 0.601860 -0.589240
O23   O     O_R   0.173200 0.775870 0.398140 -0.607934
O24   O     O_R   0.826800 0.775870 0.601860 -0.589278
O25   O     O_R   0.724950 0.224150 0.398130 -0.615027
O26   O     O_R   0.275050 0.224150 0.601870 -0.634259
O27   O     O_R   0.224950 0.724150 0.398130 -0.615003
O28   O     O_R   0.775050 0.724150 0.601870 -0.634268
O29   O     O_R   0.769940 0.321680 0.500000 -0.643250
O30   O     O_R   0.230060 0.321680 0.500000 -0.622937
O31   O     O_R   0.269940 0.821680 0.500000 -0.643272
O32   O     O_R   0.730060 0.821680 0.500000 -0.622980
O33   O     O_R   0.821690 0.269960 0.499980 -0.588026
O34   O     O_R   0.178310 0.269960 0.500020 -0.596095
O35   O     O_R   0.321690 0.769960 0.499980 -0.588011
O36   O     O_R   0.678310 0.769960 0.500020 -0.596054
O37   O     O_R   0.775070 0.275880 0.601870 -0.563998
O38   O     O_R   0.224930 0.275880 0.398130 -0.589257
O39   O     O_R   0.275070 0.775880 0.601870 -0.563945
O40   O     O_R   0.724930 0.775880 0.398130 -0.589235
O41   O     O_R   0.826820 0.224150 0.601850 -0.586803
O42   O     O_R   0.173180 0.224150 0.398150 -0.563669
O43   O     O_R   0.326820 0.724150 0.601850 -0.586794
O44   O     O_R   0.673180 0.724150 0.398150 -0.563634
O45   O     O_R   0.017100 0.454190 0.442490 -0.606188
O46   O     O_R   0.982900 0.454190 0.557510 -0.608860
O47   O     O_R   0.517100 0.954190 0.442490 -0.606390
O48   O     O_R   0.482900 0.954190 0.557510 -0.608865
Zn1   Zn    Zn3+2 0.715460 0.284550 0.500010 0.997143
Zn2   Zn    Zn3+2 0.284540 0.284550 0.499990 1.023834
Zn3   Zn    Zn3+2 0.215460 0.784550 0.500010 0.997154
Zn4   Zn    Zn3+2 0.784540 0.784550 0.499990 1.023815
Zn5   Zn    Zn3+2 0.784560 0.215470 0.499990 1.045662
Zn6   Zn    Zn3+2 0.215440 0.215470 0.500010 1.008475
Zn7   Zn    Zn3+2 0.284560 0.715470 0.499990 1.045702
Zn8   Zn    Zn3+2 0.715440 0.715470 0.500010 1.008544
Zn9   Zn    Zn3+2 0.961620 0.500000 0.423200 1.033419
Zn10  Zn    Zn3+2 0.038380 0.500000 0.576800 0.958306
Zn11  Zn    Zn3+2 0.461620 0.000000 0.423200 1.033290
Zn12  Zn    Zn3+2 0.538380 1.000000 0.576800 0.958353
O49   O     O_3   0.926097 0.208418 0.713083 -0.541866
C161  C     C_3   0.916062 0.163441 0.713569 -0.160700
H29   H     H_    0.930427 0.145640 0.688210 0.195788
H30   H     H_    0.870915 0.156913 0.683917 0.139844
H31   H     H_    0.939343 0.149903 0.766874 0.159960
O50   O     O_3   0.070756 0.220052 0.284344 -0.550982
C162  C     C_3   0.069901 0.173878 0.284407 -0.162409
H32   H     H_    0.079580 0.162270 0.333561 0.173776
H33   H     H_    0.100678 0.158397 0.280211 0.136649
H34   H     H_    0.027654 0.162196 0.241891 0.183920
O51   O     O_3   0.426079 0.708386 0.713098 -0.541853
C163  C     C_3   0.416019 0.663415 0.713586 -0.160816
H35   H     H_    0.370860 0.656903 0.683863 0.139928
H36   H     H_    0.439239 0.649888 0.766890 0.159907
H37   H     H_    0.430435 0.645592 0.688304 0.195831
O52   O     O_3   0.570744 0.720076 0.284342 -0.550955
C164  C     C_3   0.569913 0.673901 0.284407 -0.162598
H38   H     H_    0.579375 0.662289 0.333441 0.173924
H39   H     H_    0.600855 0.658447 0.280493 0.136947
H40   H     H_    0.527734 0.662199 0.241720 0.183778
I1    I     I_    0.032692 0.210745 0.871631 -0.221345
I2    I     I_    0.968937 0.224394 0.121973 -0.237123
I3    I     I_    0.532666 0.710696 0.871649 -0.221302
I4    I     I_    0.468905 0.724494 0.121983 -0.237076
I5    I     I_    0.852803 0.299368 0.874510 -0.235152
I6    I     I_    0.162546 0.292664 0.130633 -0.235582
I7    I     I_    0.352822 0.799445 0.874493 -0.235140
I8    I     I_    0.662553 0.792647 0.130635 -0.235550
O53   O     O_3   0.794746 0.297578 0.714529 -0.534524
C165  C     C_3   0.802664 0.342023 0.707009 -0.195103
H41   H     H_    0.761775 0.359065 0.677244 0.185006
H42   H     H_    0.819297 0.346155 0.677907 0.137925
H43   H     H_    0.830762 0.358138 0.757870 0.164088
O54   O     O_3   0.218989 0.284025 0.289282 -0.556505
C166  C     C_3   0.257240 0.250563 0.305613 -0.188858
H44   H     H_    0.267298 0.230648 0.349828 0.162204
H45   H     H_    0.296487 0.265801 0.321730 0.191938
H46   H     H_    0.242222 0.229389 0.260814 0.157157
O55   O     O_3   0.294771 0.797628 0.714517 -0.534528
C167  C     C_3   0.302718 0.842063 0.706986 -0.195129
H47   H     H_    0.261842 0.859125 0.677230 0.185011
H48   H     H_    0.319342 0.846168 0.677870 0.137929
H49   H     H_    0.330837 0.858179 0.757844 0.164077
O56   O     O_3   0.719001 0.783999 0.289283 -0.556495
C168  C     C_3   0.757228 0.750517 0.305610 -0.188893
H50   H     H_    0.742195 0.729343 0.260805 0.157166
H51   H     H_    0.767269 0.730605 0.349818 0.162147
H52   H     H_    0.796487 0.765734 0.321733 0.191960
I9    I     I_    0.940856 0.294101 0.630188 -0.215186
I10   I     I_    0.056892 0.290762 0.384427 -0.193937
I11   I     I_    0.440853 0.794106 0.630200 -0.215212
I12   I     I_    0.556876 0.790670 0.384589 -0.194057
I13   I     I_    0.714553 0.499699 0.283221 -0.307593
I14   I     I_    0.298370 0.506704 0.678766 -0.390046
I15   I     I_    0.214554 0.999697 0.283218 -0.307659
I16   I     I_    0.798291 0.006797 0.678503 -0.390076
O57   O     O_3   0.837895 0.490824 0.427229 -0.579186
C169  C     C_3   0.832496 0.506964 0.476297 -0.317394
H53   H     H_    0.789324 0.503707 0.459225 0.158320
H54   H     H_    0.841681 0.542222 0.483014 0.199318
H55   H     H_    0.862681 0.490483 0.527254 0.150578
O58   O     O_3   0.163575 0.487929 0.591224 -0.610583
C170  C     C_3   0.181136 0.497781 0.658313 -0.152849
H56   H     H_    0.145173 0.497264 0.658727 0.191344
H57   H     H_    0.197878 0.531423 0.671561 0.187234
H58   H     H_    0.212750 0.474973 0.700521 0.115785
O59   O     O_3   0.337896 0.990824 0.427226 -0.579182
C171  C     C_3   0.332495 0.006966 0.476292 -0.317360
H59   H     H_    0.289324 0.003704 0.459224 0.158316
H60   H     H_    0.341672 0.042226 0.482998 0.199328
H61   H     H_    0.362685 0.990491 0.527252 0.150573
O60   O     O_3   0.663544 0.987945 0.591164 -0.610579
C172  C     C_3   0.681148 0.997770 0.658280 -0.152859
H62   H     H_    0.645198 0.997278 0.658724 0.191350
H63   H     H_    0.697936 0.031396 0.671570 0.187206
H64   H     H_    0.712737 0.974928 0.700445 0.115739
O61   O     O_3   0.985926 0.380417 0.610467 -0.565552
C173  C     C_3   0.994271 0.402170 0.666438 -0.203320
H65   H     H_    0.974914 0.435332 0.651504 0.141731
H66   H     H_    0.977880 0.382993 0.688755 0.161586
H67   H     H_    0.039658 0.406129 0.707555 0.190270
O62   O     O_3   0.014640 0.379073 0.399555 -0.571367
C174  C     C_3   0.002428 0.398091 0.338929 -0.167589
H68   H     H_    0.021469 0.430883 0.348301 0.144269
H69   H     H_    0.016330 0.376850 0.315965 0.167571
H70   H     H_    0.956660 0.402290 0.300297 0.193642
O63   O     O_3   0.485926 0.880420 0.610473 -0.565530
C175  C     C_3   0.494268 0.902175 0.666441 -0.203343
H71   H     H_    0.474911 0.935337 0.651502 0.141730
H72   H     H_    0.477874 0.883001 0.688757 0.161576
H73   H     H_    0.539655 0.906135 0.707560 0.190276
O64   O     O_3   0.514580 0.878953 0.399749 -0.571483
C176  C     C_3   0.502178 0.897913 0.338985 -0.167381
H74   H     H_    0.521331 0.930646 0.348247 0.144105
H75   H     H_    0.515802 0.876571 0.315804 0.167852
H76   H     H_    0.456407 0.902222 0.300559 0.193524
O65   O     O_3   0.542103 0.324181 0.144209 -0.569516
C177  C     C_3   0.486342 0.319003 0.118531 -0.301938
H77   H     H_    0.466104 0.351676 0.103896 0.200873
H78   H     H_    0.483096 0.304596 0.157600 0.132231
H79   H     H_    0.462567 0.298906 0.071363 0.177002
O66   O     O_3   0.443779 0.328123 0.851681 -0.590580
C178  C     C_3   0.405955 0.353948 0.852401 -0.221008
H80   H     H_    0.392112 0.336763 0.879382 0.141221
H81   H     H_    0.369298 0.363836 0.799276 0.174912
H82   H     H_    0.427320 0.384202 0.881182 0.204901
O67   O     O_3   0.042231 0.824231 0.144214 -0.569507
C179  C     C_3   0.986462 0.819137 0.118548 -0.301952
H83   H     H_    0.966278 0.851831 0.103876 0.200884
H84   H     H_    0.983201 0.804800 0.157640 0.132227
H85   H     H_    0.962649 0.799016 0.071406 0.176966
O68   O     O_3   0.943671 0.828109 0.851682 -0.590657
C180  C     C_3   0.905794 0.853859 0.852390 -0.221534
H86   H     H_    0.891914 0.836611 0.879289 0.141172
H87   H     H_    0.869170 0.863774 0.799262 0.175220
H88   H     H_    0.927136 0.884092 0.881254 0.204966
O69   O     O_3   0.621978 0.327086 0.286401 -0.603870
C181  C     C_3   0.579993 0.336394 0.292525 -0.209006
H89   H     H_    0.598621 0.355874 0.339701 0.177523
H90   H     H_    0.561748 0.306676 0.297876 0.130636
H91   H     H_    0.546823 0.356831 0.248158 0.189083
O70   O     O_3   0.379749 0.326076 0.709817 -0.630154
C182  C     C_3   0.427458 0.330036 0.713407 -0.173652
H92   H     H_    0.420515 0.357387 0.678919 0.177364
H93   H     H_    0.435223 0.300005 0.695356 0.170151
H94   H     H_    0.464901 0.337907 0.766468 0.199429
O71   O     O_3   0.122120 0.827116 0.286412 -0.604066
C183  C     C_3   0.080141 0.836526 0.292508 -0.209230
H95   H     H_    0.098813 0.855985 0.339712 0.177534
H96   H     H_    0.061783 0.806857 0.297784 0.130640
H97   H     H_    0.047053 0.857022 0.248164 0.189185
O72   O     O_3   0.879615 0.826087 0.709820 -0.630362
C184  C     C_3   0.927321 0.830137 0.713418 -0.174263
H98   H     H_    0.920308 0.857493 0.678908 0.177437
H99   H     H_    0.935169 0.800138 0.695396 0.170211
H100  H     H_    0.964723 0.838055 0.766477 0.199639
I17   I     I_    0.644545 0.118644 0.376468 -0.351530
I18   I     I_    0.422189 0.170031 0.657113 -0.352573
I19   I     I_    0.144579 0.618619 0.376503 -0.351621
I20   I     I_    0.922211 0.670049 0.657112 -0.352550
O73   O     O_3   0.730412 0.201909 0.638667 -0.592141
C185  C     C_3   0.768776 0.167965 0.680652 -0.303807
H101  H     H_    0.811455 0.180975 0.712317 0.171271
H102  H     H_    0.766290 0.141477 0.648410 0.174315
H103  H     H_    0.762782 0.154354 0.717742 0.176821
O74   O     O_3   0.225083 0.154708 0.371205 -0.635764
C186  C     C_3   0.205214 0.115448 0.379129 -0.249953
H104  H     H_    0.174883 0.123534 0.388142 0.174791
H105  H     H_    0.239036 0.095744 0.424688 0.161487
H106  H     H_    0.183486 0.095711 0.331511 0.178451
O75   O     O_3   0.230393 0.701925 0.638655 -0.592140
C187  C     C_3   0.268762 0.667986 0.680654 -0.303885
H107  H     H_    0.311435 0.681007 0.712334 0.171299
H108  H     H_    0.266301 0.641502 0.648423 0.174267
H109  H     H_    0.262755 0.654366 0.717728 0.176820
O76   O     O_3   0.725068 0.654657 0.371244 -0.635727
C188  C     C_3   0.705247 0.615393 0.379237 -0.250040
H110  H     H_    0.674921 0.623473 0.388262 0.174807
H111  H     H_    0.739096 0.595717 0.424816 0.161490
H112  H     H_    0.683527 0.595631 0.331645 0.178473
I21   I     I_    0.581465 0.182878 0.687686 -0.315958
I22   I     I_    0.284456 0.112843 0.211739 -0.286806
I23   I     I_    0.081433 0.682891 0.687650 -0.315910
I24   I     I_    0.784386 0.612792 0.211722 -0.286737

loop_
_geom_bond_atom_site_label_1
_geom_bond_atom_site_label_2
_ccdc_geom_bond_type
C99   C103  A    
C176  H74   S    
C186  H105  S    
C142  C146  A    
C169  H54   S    
C182  H94   S    
C172  H62   S    
O5    Zn10  S    
C164  H40   S    
C71   I7    S    
C53   C137  S    
O35   Zn7   S    
O76   C188  S    
C86   C110  A    
C11   N7    A    
C154  C158  A    
C184  H99   S    
C56   C140  S    
C9    N5    A    
C169  H55   S    
C7    C159  A    
C162  H32   S    
C42   I18   S    
C29   C33   A    
C100  C104  A    
C55   C139  S    
C179  H83   S    
C1    O17   A    
C11   N4    A    
C135  O39   A    
C149  C153  A    
C180  H88   S    
C6    C158  A    
C146  C150  A    
C140  O16   A    
C167  H49   S    
C152  C156  A    
C155  O67   S    
C70   C74   A    
O58   C170  S    
C151  C155  A    
N5    N6    A    
C63   I3    S    
C20   H24   S    
C84   N16   A    
C153  O65   S    
O13   Zn12  S    
C144  H4    S    
C12   N8    A    
C21   I21   S    
C41   C49   A    
C4    O4    A    
C25   C29   A    
C89   C113  S    
C90   O34   A    
C27   C31   A    
N3    N4    A    
C28   C32   A    
C183  H96   S    
C81   N10   A    
C82   N14   A    
C62   C66   A    
C173  H65   S    
C126  C129  S    
C98   C102  A    
O27   Zn7   S    
C92   O32   A    
C85   H9    S    
C19   C23   A    
C13   C33   A    
O55   C167  S    
C16   C20   A    
C87   H11   S    
C175  H71   S    
C97   I13   S    
C27   H27   S    
O52   C164  S    
C99   I15   S    
C78   C134  S    
C25   H25   S    
C101  O57   S    
C176  H76   S    
O69   C181  S    
C185  H102  S    
O54   C166  S    
C75   O55   S    
C182  H92   S    
C172  H64   S    
C156  O68   S    
C68   C83   S    
O60   C172  S    
C173  H67   S    
O23   Zn3   S    
C57   C61   A    
C119  C123  A    
C58   O50   S    
C59   C63   A    
C179  H85   S    
C105  C125  A    
C60   C64   A    
C3    O3    A    
C187  H107  S    
C28   H28   S    
C107  C127  A    
O73   C185  S    
O19   Zn7   S    
C65   C82   S    
C66   C70   A    
C49   C53   A    
C93   H13   S    
C160  O72   S    
C178  H82   S    
C95   C99   A    
C90   C114  S    
C157  O69   S    
C147  H19   S    
O21   Zn1   S    
O57   C169  S    
O40   Zn4   S    
C137  O13   A    
C73   C77   A    
C103  C107  A    
C75   C79   A    
C134  O42   A    
O47   Zn11  S    
C76   O56   S    
C15   O75   S    
C188  H110  S    
C51   H7    S    
O63   C175  S    
C7    C143  A    
O39   Zn3   S    
C117  I9    S    
C30   C54   A    
O7    Zn12  S    
C64   C68   A    
C124  O64   S    
C10   C149  S    
C48   O24   A    
C177  H77   S    
C175  H73   S    
C91   O31   A    
C146  H18   S    
C159  O71   S    
C118  C122  A    
C89   O29   A    
O46   Zn10  S    
C95   H15   S    
O32   Zn4   S    
C85   C93   A    
C4    C40   S    
C87   C95   A    
N10   N14   A    
C2    O2    A    
C24   C28   A    
C110  C114  A    
C51   C55   A    
C44   C52   A    
C167  H48   S    
O24   Zn4   S    
O14   Zn11  S    
O15   Zn10  S    
C44   I20   S    
C131  O47   A    
C168  H51   S    
C84   N11   A    
C10   N1    A    
C43   I19   S    
C30   C34   A    
C155  C159  A    
C187  H109  S    
C135  O43   A    
C156  C160  A    
C41   I17   S    
C171  H59   S    
C170  H57   S    
C116  C120  A    
C147  C151  A    
C62   I2    S    
C121  C125  A    
O53   C165  S    
C61   C65   A    
C2    C38   S    
C123  C127  A    
N12   N16   A    
O18   Zn6   S    
C108  C128  A    
O74   C186  S    
C161  H30   S    
C42   C50   A    
C113  C117  A    
C26   C30   A    
C188  H112  S    
C115  C119  A    
C22   C26   A    
C74   O54   S    
O37   Zn1   S    
C128  C131  S    
C93   C97   A    
C112  C116  A    
O1    Zn1   S    
C21   C25   A    
C92   O36   A    
C3    O19   A    
C18   C22   A    
C107  C111  A    
C148  C152  A    
C182  H93   S    
C161  H31   S    
C14   C34   A    
C32   C36   A    
C141  C145  A    
C164  H39   S    
C52   H8    S    
C13   C17   A    
C98   I14   S    
C72   I8    S    
O12   Zn10  S    
C184  H98   S    
C16   C36   A    
C174  H70   S    
C131  O7    A    
C26   H26   S    
C64   I4    S    
C96   C100  A    
C179  H84   S    
C37   C41   A    
C166  H46   S    
C145  C149  A    
C180  H87   S    
O48   Zn12  S    
C3    C39   S    
C17   H21   S    
C40   C44   A    
C47   O23   A    
C163  H35   S    
C176  H75   S    
C83   N12   A    
C133  O41   A    
C58   C62   A    
C162  H34   S    
C88   C96   A    
O8    Zn11  S    
C181  H89   S    
O51   C163  S    
C171  H61   S    
C77   C133  S    
O68   C180  S    
C15   C19   A    
C50   C54   A    
O9    Zn11  S    
O10   Zn12  S    
C85   C109  A    
C10   N6    A    
C165  H41   S    
C173  H66   S    
C87   C111  A    
C94   C98   A    
O67   C179  S    
C2    O18   A    
C136  O44   A    
C143  H3    S    
C14   C18   A    
O66   C178  S    
C134  O38   A    
C105  C109  A    
O44   Zn8   S    
C123  O63   S    
C60   C80   A    
O16   Zn9   S    
C139  O11   A    
C100  I16   S    
C175  H72   S    
C50   H6    S    
C69   C73   A    
C6    C142  A    
O41   Zn5   S    
C72   C76   A    
C124  C128  A    
O6    Zn9   S    
C169  H53   S    
C118  I10   S    
C13   O73   S    
C148  H20   S    
C86   H10   S    
C186  H106  S    
N11   N15   A    
C46   O26   A    
C172  H63   S    
C129  O45   A    
C9    C150  S    
C89   O33   A    
O72   C184  S    
C165  H43   S    
C83   N15   A    
C184  H100  S    
C59   C79   A    
C174  H68   S    
C81   N13   A    
N7    N8    A    
C181  H91   S    
O61   C173  S    
C5    C45   S    
C33   C37   A    
C108  C112  A    
C68   C72   A    
C187  H108  S    
C35   C39   A    
C166  H44   S    
C8    C48   S    
C49   H5    S    
C57   C77   A    
C163  H37   S    
C103  O59   S    
C178  H81   S    
C16   O76   S    
C82   N9    A    
C5    C157  A    
O33   Zn5   S    
C119  I11   S    
C9    N2    A    
C8    C160  A    
C70   I6    S    
C104  C108  A    
C12   N3    A    
C138  O10   A    
C96   H16   S    
C183  H95   S    
C142  H2    S    
C79   C135  S    
C106  C126  A    
C80   C136  S    
O70   C182  S    
C170  H56   S    
O59   C171  S    
C66   C81   S    
C43   C51   A    
C177  H78   S    
C65   C69   A    
C91   C115  S    
C67   C71   A    
C153  C157  A    
N1    N2    A    
C17   C21   A    
C58   C78   A    
O31   Zn3   S    
C88   C112  A    
O28   Zn8   S    
C186  H104  S    
C185  H101  S    
C122  O62   S    
C31   C55   A    
C32   C56   A    
O50   C162  S    
C7    C47   S    
C177  H79   S    
O25   Zn5   S    
C71   C75   A    
C141  H1    S    
C88   H12   S    
O11   Zn9   S    
C178  H80   S    
C132  O8    A    
C144  C148  A    
O71   C183  S    
C168  H50   S    
C143  C147  A    
C22   I22   S    
C171  H60   S    
C38   C42   A    
C120  I12   S    
C47   O27   A    
C18   H22   S    
C90   O30   A    
C73   O53   S    
C117  C121  A    
C127  C132  S    
O3    Zn3   S    
C86   C94   A    
C133  O37   A    
C158  O70   S    
C125  C130  S    
O26   Zn6   S    
C185  H103  S    
C59   O51   S    
N9    N13   A    
C23   C27   A    
C1    O1    A    
O49   C161  S    
C74   C78   A    
O29   Zn1   S    
O20   Zn8   S    
C57   O49   S    
C67   C84   S    
C188  H111  S    
C12   C151  S    
C45   O25   A    
C183  H97   S    
O17   Zn5   S    
C15   C35   A    
C130  O46   A    
C101  C105  A    
C24   I24   S    
C63   C67   A    
C136  O40   A    
C60   O52   S    
C20   C24   A    
C36   C40   A    
C23   I23   S    
C19   H23   S    
C39   C43   A    
C164  H38   S    
C4    O20   A    
O36   Zn8   S    
C122  C126  A    
O42   Zn6   S    
C139  O15   A    
C174  H69   S    
C92   C116  S    
C154  O66   S    
C5    C141  A    
O75   C187  S    
C46   O22   A    
C8    C144  A    
C166  H45   S    
C180  H86   S    
C114  C118  A    
C94   H14   S    
C167  H47   S    
C163  H36   S    
C61   I1    S    
O38   Zn2   S    
C130  O6    A    
C76   C80   A    
C91   O35   A    
O2    Zn2   S    
O56   C168  S    
C132  O48   A    
C106  C110  A    
C168  H52   S    
C162  H33   S    
O30   Zn2   S    
C181  H90   S    
C6    C46   S    
C137  O9    A    
C34   C38   A    
C121  O61   S    
C170  H58   S    
O43   Zn7   S    
C109  C113  A    
O65   C177  S    
C45   O21   A    
C14   O74   S    
C165  H42   S    
O62   C174  S    
C54   C138  S    
C29   C53   A    
O64   C176  S    
C69   I5    S    
O34   Zn6   S    
C31   C35   A    
C102  O58   S    
C161  H29   S    
C140  O12   A    
C48   O28   A    
C120  C124  A    
C11   C152  S    
O22   Zn2   S    
C138  O14   A    
C150  C154  A    
C102  C106  A    
C145  H17   S    
C111  C115  A    
O4    Zn4   S    
O45   Zn9   S    
C129  O5    A    
C97   C101  A    
C52   C56   A    
C1    C37   S    
C104  O60   S    
