data_mof_unit_52396.cif
_audit_creation_date              2013-03-05T15:48:44-0500
_audit_creation_method            fapswitch 2.2
_symmetry_space_group_name_H-M    P1
_symmetry_Int_Tables_number       1
_space_group_crystal_system       triclinic
_cell_length_a                    10.749575
_cell_length_b                    12.999088
_cell_length_c                    11.666266
_cell_angle_alpha                 99.799758
_cell_angle_beta                  93.724508
_cell_angle_gamma                 90.205397
_cell_volume                      1602.82470915

loop_
_atom_site_label
_atom_site_type_symbol
_atom_site_description
_atom_site_fract_x
_atom_site_fract_y
_atom_site_fract_z
_atom_type_partial_charge
O1    O     O_R   0.506640 0.354460 0.582000 -0.581458
O2    O     O_R   0.490840 0.341410 0.386200 -0.595129
C1    C     C_R   0.497930 0.299080 0.478686 0.847936
O3    O     O_R   0.325590 0.506510 0.597900 -0.588122
O4    O     O_R   0.309790 0.493450 0.402100 -0.590490
C2    C     C_R   0.259909 0.497709 0.499893 0.834199
Cu1   Cu    Cu3+1 0.509350 0.507730 0.615930 0.996338
Cu2   Cu    Cu3+1 0.490650 0.492270 0.384070 0.948542
O5    O     O_R   0.509160 0.658590 0.613800 -0.581267
O6    O     O_R   0.493360 0.645540 0.418000 -0.592789
O7    O     O_R   0.690210 0.506550 0.597900 -0.550657
O8    O     O_R   0.674410 0.493490 0.402100 -0.615724
C3    C     C_R   0.501770 0.700937 0.521337 0.831994
C4    C     C_R   0.740084 0.497152 0.499093 0.797367
C5    C     C_3   0.076823 0.421517 0.580923 0.200601
H1    H     H_    0.106356 0.457886 0.672308 0.149349
C6    C     C_3   0.932717 0.414903 0.572258 -0.365229
H2    H     H_    0.898798 0.334769 0.534948 0.228214
H3    H     H_    0.898840 0.429922 0.661419 0.199985
H4    H     H_    0.121119 0.636146 0.633577 0.219772
C7    C     C_3   0.076902 0.607075 0.544975 -0.500283
C8    C     C_3   0.063502 0.461505 0.372134 -0.335275
C9    C     C_3   0.122213 0.495506 0.499042 -0.061709
H5    H     H_    0.094723 0.516230 0.315529 0.166139
H6    H     H_    0.097832 0.383666 0.333394 0.242512
C10   C     C_3   0.877951 0.494836 0.497547 -0.077279
C11   C     C_3   0.932783 0.607210 0.545823 0.195858
C12   C     C_3   0.920068 0.463866 0.369792 -0.201320
H7    H     H_    0.889413 0.526754 0.320592 0.104462
H8    H     H_    0.107168 0.661837 0.488066 0.165116
H9    H     H_    0.897515 0.659646 0.484958 0.100858
C13   C     C_R   0.502371 0.814337 0.533711 -0.052939
C14   C     C_R   0.496492 0.185724 0.466393 -0.047532
C15   C     C_R   0.489304 0.015250 0.344251 -0.172014
C16   C     C_R   0.489710 0.123358 0.355332 -0.144300
C17   C     C_R   0.502314 0.139345 0.566431 -0.176972
C18   C     C_R   0.502202 0.031307 0.556064 0.156274
C19   C     C_R   0.495722 0.968791 0.444096 0.163555
C20   C     C_R   0.495835 0.860755 0.433709 -0.248929
C21   C     C_R   0.509000 0.876706 0.644792 -0.140929
C22   C     C_R   0.508779 0.984832 0.655902 -0.152457
H10   H     H_    0.490855 0.813057 0.347637 0.156022
H11   H     H_    0.514180 0.842053 0.723055 0.169278
H12   H     H_    0.484223 0.968124 0.257939 0.147501
H13   H     H_    0.513807 0.031960 0.742216 0.167277
H14   H     H_    0.484994 0.157995 0.277056 0.169913
H15   H     H_    0.507212 0.187067 0.652493 0.181368
N1    N     N_R   0.523430 0.519360 0.790130 -0.211202
N2    N     N_R   0.476570 0.480640 0.209880 -0.208517
C23   C     C_R   0.383889 0.397703 0.022157 0.209842
C24   C     C_R   0.394190 0.410676 0.145134 0.003977
C25   C     C_R   0.550850 0.541019 0.156353 -0.001295
C26   C     C_R   0.542913 0.533227 0.033582 0.016038
C27   C     C_R   0.458029 0.461345 0.965018 -0.055880
C28   C     C_R   0.449097 0.457525 0.842087 0.074031
C29   C     C_R   0.606901 0.587499 0.856245 0.119273
C30   C     C_R   0.617757 0.596002 0.978142 -0.282548
H16   H     H_    0.382275 0.406264 0.787002 0.199833
H17   H     H_    0.665029 0.636106 0.814464 0.188025
H18   H     H_    0.684175 0.651455 0.028668 0.153369
H19   H     H_    0.338018 0.362435 0.189322 0.168747
H20   H     H_    0.616200 0.595713 0.209442 0.130479
N3    N     N_R   0.132492 0.317456 0.559060 0.117306
O9    O     O_R   0.107438 0.253405 0.461769 -0.310731
O10   O     O_R   0.204947 0.286746 0.639984 -0.324959
N4    N     N_R   0.300943 0.318248 0.958159 0.120989
O11   O     O_R   0.194978 0.299525 0.999216 -0.334138
O12   O     O_R   0.340644 0.251741 0.872434 -0.343305
N5    N     N_R   0.892883 0.650580 0.662171 0.137284
O13   O     O_R   0.934469 0.613799 0.754170 -0.382621
O14   O     O_R   0.821418 0.731781 0.675026 -0.373799
C31   C     C_2   0.861237 0.364038 0.300542 0.434460
H21   H     H_    0.791851 0.368869 0.229824 0.080959
O15   O     O_2   0.889036 0.278290 0.322670 -0.493247

loop_
_geom_bond_atom_site_label_1
_geom_bond_atom_site_label_2
_geom_bond_distance
_ccdc_geom_bond_type
N1    C28   1.369725 A    
N4    O12   1.301339 A    
N3    O10   1.300872 A    
C3    C13   1.456441 S    
C24   H19   1.082303 S    
Cu1   Cu2   2.672362 S    
C26   C27   1.410728 A    
Cu1   O7    1.968888 S    
C10   C11   1.571323 S    
C23   C27   1.419840 A    
C6    C10   1.559461 S    
C12   H7    1.115082 S    
O1    Cu1   1.963846 S    
C19   C20   1.388896 A    
O7    C4    1.289928 A    
C1    C14   1.455916 S    
C5    H1    1.115477 S    
C14   C17   1.399903 A    
C29   C30   1.404641 A    
C17   H15   1.084682 S    
N1    C29   1.362500 A    
C15   C16   1.389125 A    
C13   C20   1.399782 A    
N5    O14   1.301431 A    
O5    C3    1.290053 A    
C6    H3    1.110527 S    
C21   H11   1.083152 S    
N2    C24   1.362109 A    
C8    H6    1.110384 S    
C11   N5    1.470061 S    
C5    C9    1.563819 S    
N4    O11   1.301824 A    
C7    C11   1.549891 S    
C8    C12   1.540834 S    
C12   C31   1.519013 S    
O3    Cu1   1.972595 S    
C23   C24   1.412754 A    
C20   H10   1.084637 S    
C11   H9    1.115424 S    
C15   H12   1.083879 S    
C31   O15   1.220128 D    
C26   C30   1.405007 A    
C30   H18   1.083421 S    
O1    C1    1.291981 A    
C18   C19   1.413493 A    
Cu2   O8    1.972594 S    
N2    C25   1.367728 A    
C6    H2    1.108964 S    
C4    C10   1.483645 S    
C23   N4    1.436532 S    
O3    C2    1.291859 A    
C21   C22   1.389397 A    
O8    C4    1.287906 A    
C7    C9    1.549893 S    
C8    H5    1.114347 S    
C25   C26   1.415498 A    
C5    C6    1.546928 S    
C27   C28   1.423480 A    
C17   C18   1.388920 A    
C22   H13   1.083934 S    
C15   C19   1.398437 A    
O2    Cu2   1.965431 S    
C31   H21   1.085792 S    
O6    C3    1.292265 A    
O4    Cu2   1.968886 S    
C7    H8    1.113860 S    
C10   C12   1.572618 S    
C29   H17   1.081116 S    
Cu1   N1    2.007770 S    
O2    C1    1.290144 A    
C25   H20   1.082845 S    
O4    C2    1.284671 A    
C2    C9    1.479705 S    
C14   C16   1.403943 A    
C13   C21   1.404161 A    
C18   C22   1.398465 A    
N5    O13   1.301626 A    
N3    O9    1.300398 A    
Cu1   O5    1.965431 S    
H4    C7    1.113137 S    
Cu2   O6    1.963845 S    
C28   H16   1.078788 S    
C5    N3    1.470078 S    
C8    C9    1.561893 S    
C16   H14   1.083189 S    
Cu2   N2    2.007656 S    
