data_mof_unit_64563.cif
_audit_creation_date              2012-12-10T21:15:15-0500
_audit_creation_method            fapswitch 2.2
_symmetry_space_group_name_H-M    P1
_symmetry_Int_Tables_number       1
_space_group_crystal_system       triclinic
_cell_length_a                    17.609657
_cell_length_b                    16.745703
_cell_length_c                    14.173649
_cell_angle_alpha                 89.999357
_cell_angle_beta                  90.119253
_cell_angle_gamma                 90.001611
_cell_volume                      4179.60282366

loop_
_atom_site_label
_atom_site_type_symbol
_atom_type_description
_atom_site_fract_x
_atom_site_fract_y
_atom_site_fract_z
_atom_type_partial_charge
C1    C     C_R   0.353339 0.499994 0.499878 0.899772
C2    C     C_R   0.552713 0.252185 0.551701 -0.114674
C3    C     C_R   0.551688 0.747819 0.553271 -0.118330
C4    C     C_R   0.447286 0.252184 0.448298 -0.114633
C5    C     C_R   0.499999 0.875498 0.499998 0.017185
C6    C     C_R   0.500000 0.124505 0.499998 0.016336
C7    C     C_1   0.499999 0.963464 0.499998 0.182997
C8    C     C_1   0.499999 0.036540 0.499998 0.183222
C9    C     C_R   0.499964 0.500001 0.328739 0.900787
C10   C     C_R   0.500036 0.500000 0.671261 0.900831
C11   C     C_1   0.499958 0.500002 0.227413 -0.189859
C12   C     C_R   0.646661 0.499997 0.500076 0.899750
C13   C     C_1   0.500040 0.500000 0.772587 -0.189895
C14   C     C_1   0.499966 0.500003 0.142292 0.013003
C15   C     C_1   0.500032 0.500001 0.857708 0.012992
C16   C     C_1   0.499987 0.500003 0.042560 0.031611
C17   C     C_1   0.500010 0.500002 0.957441 0.031607
C18   C     C_R   0.846953 0.567390 0.467240 0.177123
C19   C     C_R   0.153057 0.432320 0.466659 0.178401
C20   C     C_R   0.152932 0.567420 0.531485 0.177110
C21   C     C_R   0.847060 0.432216 0.531852 0.178372
C22   C     C_R   0.768236 0.567416 0.468439 -0.219405
C23   C     C_1   0.966277 0.499667 0.499088 0.077859
C24   C     C_R   0.231783 0.432479 0.467783 -0.216460
C25   C     C_R   0.231654 0.567402 0.530880 -0.219457
C26   C     C_R   0.768332 0.432421 0.531327 -0.216444
C27   C     C_R   0.728870 0.499965 0.500005 -0.117063
C28   C     C_R   0.271132 0.499960 0.499522 -0.117016
C29   C     C_R   0.886170 0.499739 0.499355 0.007718
C30   C     C_R   0.113830 0.499825 0.498974 0.007720
C31   C     C_1   0.033723 0.499697 0.498964 0.077863
C32   C     C_R   0.446951 0.832541 0.445386 0.319045
C33   C     C_R   0.554114 0.167461 0.552976 0.319191
C34   C     C_R   0.553048 0.832545 0.554612 0.319053
C35   C     C_R   0.445885 0.167460 0.447022 0.319186
C36   C     C_R   0.448311 0.747816 0.446728 -0.118309
H1    H     H_    0.737941 0.619631 0.443465 0.184885
H2    H     H_    0.640929 0.164796 0.637715 0.345664
H3    H     H_    0.638109 0.835222 0.642062 0.345311
H4    H     H_    0.359070 0.164792 0.362282 0.345692
H5    H     H_    0.262094 0.380358 0.442707 0.175392
H6    H     H_    0.261862 0.619576 0.556139 0.184840
H7    H     H_    0.738112 0.380281 0.556523 0.175452
H8    H     H_    0.407930 0.714163 0.405023 0.147689
H9    H     H_    0.593892 0.285833 0.592196 0.141846
H10   H     H_    0.592070 0.714169 0.594977 0.147682
H11   H     H_    0.406108 0.285830 0.407803 0.141821
H12   H     H_    0.361890 0.835213 0.357936 0.345320
I1    I     I_    0.902886 0.670668 0.415229 -0.251439
I2    I     I_    0.097116 0.328951 0.414632 -0.254267
I3    I     I_    0.096808 0.670662 0.583270 -0.251493
I4    I     I_    0.903190 0.328760 0.583318 -0.254190
N1    N     N_R   0.500000 0.707230 0.500000 -0.106371
N2    N     N_R   0.500000 0.292770 0.500000 -0.105004
O1    O     O_R   0.389110 0.566570 0.500000 -0.615236
O2    O     O_3   0.607419 0.125978 0.605086 -0.712864
O3    O     O_3   0.605289 0.874033 0.608358 -0.713372
O4    O     O_3   0.392580 0.125975 0.394910 -0.712851
O5    O     O_R   0.610890 0.433430 0.500000 -0.613504
O6    O     O_R   0.610890 0.566570 0.500000 -0.615264
O7    O     O_R   0.389110 0.433430 0.500000 -0.613499
O8    O     O_R   0.500000 0.566560 0.373710 -0.592887
O9    O     O_R   0.500000 0.433440 0.626290 -0.591941
O10   O     O_R   0.500000 0.566560 0.626290 -0.592869
O11   O     O_R   0.500000 0.433440 0.373710 -0.591963
O12   O     O_3   0.394710 0.874026 0.391639 -0.713361
Zn1   Zn    Zn3+2 0.500000 0.588860 0.500000 0.960296
Zn2   Zn    Zn3+2 0.500000 0.411140 0.500000 0.963295

loop_
_geom_bond_atom_site_label_1
_geom_bond_atom_site_label_2
_ccdc_geom_bond_type
C25   H6    S    
C34   O3    S    
O1    Zn1   S    
C21   C26   A    
C5    C7    S    
C22   H1    S    
O5    Zn2   S    
C1    C28   S    
C9    C11   S    
C3    H10   S    
C10   O9    A    
O7    Zn2   S    
C6    C33   A    
C5    C32   A    
H12   O12   S    
C5    C34   A    
O11   Zn2   S    
C33   O2    S    
C19   C24   A    
C1    O1    A    
C4    C35   A    
C7    C8    T    
C18   C29   A    
C20   C30   A    
C25   C28   A    
C24   H5    S    
C3    N1    A    
C19   I2    S    
C26   C27   A    
O8    Zn1   S    
C35   O4    S    
C32   C36   A    
C2    C33   A    
C12   O5    A    
C26   H7    S    
N2    Zn2   S    
C20   I3    S    
C14   C16   S    
C22   C27   A    
C13   C15   T    
C2    H9    S    
C30   C31   S    
N1    Zn1   S    
C11   C14   T    
C9    O11   A    
C36   H8    S    
H4    O4    S    
C20   C25   A    
C12   C27   S    
C1    O7    A    
C9    O8    A    
C12   O6    A    
O10   Zn1   S    
C23   C29   S    
H2    O2    S    
C6    C35   A    
C18   I1    S    
C32   O12   S    
C2    N2    A    
C15   C17   S    
O9    Zn2   S    
C6    C8    S    
C36   N1    A    
C3    C34   A    
C4    N2    A    
C18   C22   A    
C19   C30   A    
C21   C29   A    
C4    H11   S    
C21   I4    S    
C10   O10   A    
C24   C28   A    
O6    Zn1   S    
C23   C31   T    
C16   C17   T    
C10   C13   S    
H3    O3    S    
