data_mof_unit_59814.cif
_audit_creation_date              2013-03-05T15:46:33-0500
_audit_creation_method            fapswitch 2.2
_symmetry_space_group_name_H-M    P1
_symmetry_Int_Tables_number       1
_space_group_crystal_system       triclinic
_cell_length_a                    10.144924
_cell_length_b                    10.586284
_cell_length_c                    10.897625
_cell_angle_alpha                 88.816365
_cell_angle_beta                  93.184556
_cell_angle_gamma                 79.280593
_cell_volume                      1147.60078697

loop_
_atom_site_label
_atom_site_type_symbol
_atom_site_description
_atom_site_fract_x
_atom_site_fract_y
_atom_site_fract_z
_atom_type_partial_charge
O1    O     O_R   0.568940 0.489660 0.307530 -0.535306
O2    O     O_R   0.431060 0.510340 0.692470 -0.544922
O3    O     O_R   0.348880 0.522640 0.340350 -0.631921
O4    O     O_R   0.651120 0.477360 0.659650 -0.629271
C1    C     C_R   0.445952 0.504924 0.268815 0.964055
C2    C     C_R   0.552656 0.489673 0.733246 0.967040
O5    O     O_R   0.610030 0.300280 0.483580 -0.611601
O6    O     O_R   0.389970 0.699720 0.516420 -0.595035
O7    O     O_R   0.389970 0.333270 0.516400 -0.614336
O8    O     O_R   0.610030 0.666730 0.483600 -0.603664
C3    C     C_R   0.505904 0.256760 0.511230 0.913693
C4    C     C_R   0.491853 0.739894 0.475679 0.912566
Zn1   Zn    Zn3+2 0.646940 0.477980 0.478080 1.047112
Zn2   Zn    Zn3+2 0.353060 0.522020 0.521920 1.049780
H1    H     H_    0.121016 0.144109 0.715518 0.182219
H2    H     H_    0.872261 0.845631 0.243750 0.182398
C5    C     C_R   0.752060 0.062007 0.453792 -0.082565
C6    C     C_R   0.239119 0.939713 0.494497 -0.074605
C7    C     C_R   0.842416 0.991998 0.377343 -0.167275
C8    C     C_R   0.146584 0.011124 0.568827 -0.159845
C9    C     C_R   0.804916 0.893932 0.308999 -0.115240
C10   C     C_R   0.187735 0.099608 0.647986 -0.145095
C11   C     C_R   0.680607 0.859099 0.323456 0.297399
C12   C     C_R   0.316779 0.126585 0.642802 0.299117
C13   C     C_R   0.592633 0.922721 0.409129 0.016260
C14   C     C_R   0.402203 0.070100 0.552918 0.005284
C15   C     C_R   0.620994 0.035368 0.462095 0.048805
C16   C     C_R   0.371881 0.962480 0.494163 0.042359
C17   C     C_R   0.477693 0.877457 0.444058 -0.189436
C18   C     C_R   0.517300 0.116529 0.521435 -0.175249
H3    H     H_    0.788137 0.133805 0.508559 0.180537
H4    H     H_    0.207073 0.866860 0.437864 0.175379
H5    H     H_    0.940233 0.016611 0.367801 0.176331
H6    H     H_    0.045983 0.991600 0.571821 0.180667
C19   C     C_2   0.417812 0.517575 0.140277 -0.323214
C20   C     C_2   0.571961 0.468420 0.865507 -0.359133
C21   C     C_2   0.489415 0.438513 0.064794 0.161862
C22   C     C_2   0.465152 0.468915 0.935562 0.224166
H7    H     H_    0.674027 0.446186 0.906595 0.176235
H8    H     H_    0.345559 0.602052 0.107219 0.165140
H9    H     H_    0.883809 0.569023 0.582898 0.177044
H10   H     H_    0.123308 0.399989 0.449449 0.167318
N1    N     N_2   0.157300 0.551390 0.551120 0.011492
N2    N     N_2   0.842700 0.448610 0.448880 0.002237
C23   C     C_2   0.077350 0.481090 0.501105 0.019506
C24   C     C_2   0.926239 0.504075 0.513781 0.005597
Br1   Br    Br    0.625637 0.745396 0.204975 -0.485163
Br2   Br    Br    0.387725 0.207327 0.779731 -0.474189
I1    I     I_    0.250511 0.515556 0.882963 -0.169985
I2    I     I_    0.618559 0.261283 0.121647 -0.186108
Br3   Br    Br    0.906543 0.333768 0.326116 -0.423572
Br4   Br    Br    0.081449 0.707234 0.622085 -0.454871

loop_
_geom_bond_atom_site_label_1
_geom_bond_atom_site_label_2
_geom_bond_distance
_ccdc_geom_bond_type
O1    Zn1   1.971423 S    
O7    Zn2   1.966116 S    
H2    C9    1.082997 S    
C4    C17   1.468361 S    
C13   C15   1.405590 A    
N1    C23   1.304213 D    
C14   C16   1.393278 A    
O1    C1    1.274583 A    
O6    C4    1.285697 A    
H9    C24   1.082904 S    
C8    H6    1.080412 S    
C11   Br1   1.913348 S    
C20   C22   1.359014 D    
C19   H8    1.086431 S    
C22   I1    2.182574 S    
C23   C24   1.521365 S    
Zn1   N2    1.996648 S    
C15   C18   1.423136 A    
O5    C3    1.276555 A    
C21   I2    2.137265 S    
O7    C3    1.302839 A    
O2    C2    1.265600 A    
O3    Zn2   1.976627 S    
O8    C4    1.298080 A    
C5    H3    1.079741 S    
C1    C19   1.412501 S    
N2    Br3   1.886242 S    
C16   C17   1.409462 A    
C5    C7    1.393293 A    
C21   C22   1.435561 S    
C2    C20   1.450950 S    
C14   C18   1.404899 A    
C6    C8    1.398098 A    
C9    C11   1.394216 A    
C13   C17   1.408483 A    
O2    Zn2   1.971425 S    
C10   C12   1.394715 A    
N1    Br4   1.886441 S    
C6    H4    1.082612 S    
H10   C23   1.082413 S    
C5    C15   1.416861 A    
O5    Zn1   1.985580 S    
C11   C13   1.420133 A    
C6    C16   1.411885 A    
O4    C2    1.304968 A    
C7    H5    1.081658 S    
O4    Zn1   1.976629 S    
O6    Zn2   1.985581 S    
N2    C24   1.303426 D    
C19   C21   1.331732 D    
C7    C9    1.387289 A    
C20   H7    1.086986 S    
H1    C10   1.082929 S    
C12   C14   1.412016 A    
C3    C18   1.468829 S    
C8    C10   1.390943 A    
Zn2   N1    1.996650 S    
O3    C1    1.278800 A    
O8    Zn1   1.966118 S    
C12   Br2   1.907235 S    
