data_mof_unit_8816.cif
_audit_creation_date              2012-12-11T15:43:02-0500
_audit_creation_method            fapswitch 2.2
_symmetry_space_group_name_H-M    P1
_symmetry_Int_Tables_number       1
_space_group_crystal_system       triclinic
_cell_length_a                    19.016018
_cell_length_b                    10.930384
_cell_length_c                    18.804208
_cell_angle_alpha                 90.100044
_cell_angle_beta                  90.604158
_cell_angle_gamma                 89.81723
_cell_volume                      3908.25646394

loop_
_atom_site_label
_atom_site_type_symbol
_atom_type_description
_atom_site_fract_x
_atom_site_fract_y
_atom_site_fract_z
_atom_type_partial_charge
C1    C     C_R   0.729040 0.375732 0.145162 0.552831
C2    C     C_R   0.270948 0.375784 0.854811 0.549138
C3    C     C_R   0.229040 0.875733 0.145163 0.551558
C4    C     C_R   0.770945 0.875792 0.854807 0.549035
C5    C     C_R   0.509192 0.391504 0.926841 -0.098243
C6    C     C_R   0.490580 0.391687 0.073449 -0.098243
C7    C     C_R   0.009153 0.891508 0.926879 -0.098339
C8    C     C_R   0.990544 0.891686 0.073487 -0.098023
C9    C     C_R   0.005256 0.001978 0.963838 -0.157478
C10   C     C_R   0.994361 0.002073 0.036703 -0.158064
C11   C     C_R   0.505273 0.501976 0.963794 -0.157552
C12   C     C_R   0.494377 0.502073 0.036659 -0.157876
C13   C     C_R   0.755706 0.915202 0.926704 0.015845
C14   C     C_R   0.244152 0.914829 0.073258 0.015902
C15   C     C_R   0.255714 0.415187 0.926709 0.015690
C16   C     C_R   0.744152 0.414825 0.073255 0.015892
C17   C     C_R   0.692502 0.890181 0.961137 0.011674
C18   C     C_R   0.307554 0.890228 0.038895 0.012661
C19   C     C_R   0.192506 0.390185 0.961139 0.011593
C20   C     C_R   0.807551 0.390204 0.038889 0.012918
C21   C     C_R   0.688589 0.897699 0.034748 0.040995
C22   C     C_R   0.311581 0.897893 0.965304 0.041837
C23   C     C_R   0.188590 0.397711 0.034749 0.041830
C24   C     C_R   0.811575 0.397863 0.965297 0.041699
C25   C     C_R   0.810701 0.954789 0.040901 -0.165627
C26   C     C_R   0.189201 0.954529 0.959001 -0.166939
C27   C     C_R   0.310707 0.454775 0.040906 -0.165452
C28   C     C_R   0.689201 0.454531 0.958999 -0.166910
C29   C     C_R   0.813182 0.956138 0.967813 -0.156520
C30   C     C_R   0.186532 0.955498 0.032109 -0.157027
C31   C     C_R   0.313191 0.456115 0.967819 -0.156684
C32   C     C_R   0.686534 0.455504 0.032107 -0.157045
C33   C     C_3   0.646800 0.779908 0.957695 -0.271857
C34   C     C_3   0.353877 0.780264 0.042200 -0.272293
C35   C     C_3   0.146789 0.279930 0.957698 -0.271827
C36   C     C_3   0.853856 0.280218 0.042191 -0.272251
C37   C     C_3   0.643105 0.786626 0.038070 -0.276095
C38   C     C_3   0.357682 0.787065 0.961838 -0.276301
C39   C     C_3   0.143089 0.286659 0.038073 -0.276402
C40   C     C_3   0.857656 0.287011 0.961829 -0.276408
C41   C     C_R   0.748721 0.924310 0.075686 0.014648
C42   C     C_R   0.251413 0.924366 0.924273 0.013061
C43   C     C_R   0.248722 0.424308 0.075688 0.015459
C44   C     C_R   0.751408 0.424354 0.924269 0.013031
C45   C     C_R   0.530800 0.155782 0.146936 0.547469
C46   C     C_R   0.469222 0.155700 0.853055 0.542379
C47   C     C_R   0.030786 0.655783 0.146948 0.548075
C48   C     C_R   0.969205 0.655699 0.853068 0.543169
C49   C     C_R   0.488663 0.167070 0.571184 -0.024970
C50   C     C_R   0.495337 0.165292 0.421315 -0.010732
C51   C     C_R   0.981179 0.670812 0.568649 -0.032016
C52   C     C_R   0.992832 0.664407 0.419637 -0.013655
C53   C     C_R   0.483435 0.059504 0.532185 -0.009324
C54   C     C_R   0.486907 0.057582 0.460110 -0.000638
C55   C     C_R   0.981969 0.561426 0.531424 -0.002959
C56   C     C_R   0.987540 0.557368 0.459496 0.004006
C57   C     C_R   0.484743 0.278725 0.456854 -0.019819
C58   C     C_R   0.488071 0.280322 0.533241 -0.006792
C59   C     C_R   0.974965 0.777100 0.452308 -0.032863
C60   C     C_R   0.973028 0.782535 0.528648 -0.030761
C61   C     C_3   0.518854 0.938304 0.540910 -0.266275
C62   C     C_3   0.522388 0.934357 0.460438 -0.249133
C63   C     C_3   0.025271 0.449377 0.543237 -0.268467
C64   C     C_3   0.032352 0.444249 0.463342 -0.255685
C65   C     C_R   0.752347 0.910879 0.576179 0.055345
C66   C     C_R   0.253394 0.945045 0.416543 0.015587
C67   C     C_R   0.252205 0.414003 0.575681 -0.005182
C68   C     C_R   0.758092 0.445123 0.415493 0.009065
C69   C     C_R   0.704135 0.001555 0.557972 -0.030302
C70   C     C_R   0.204362 0.018556 0.451992 0.009792
C71   C     C_R   0.299953 0.488888 0.541863 0.088867
C72   C     C_R   0.721138 0.543316 0.445524 0.009418
C73   C     C_R   0.694956 0.034987 0.487703 -0.038763
C74   C     C_R   0.212034 0.045244 0.523200 -0.003872
C75   C     C_R   0.301238 0.496331 0.469133 0.078670
C76   C     C_R   0.728589 0.572555 0.516557 -0.013612
C77   C     C_R   0.775415 0.876774 0.451014 -0.097379
C78   C     C_R   0.324653 0.945860 0.524490 -0.151385
C79   C     C_R   0.208184 0.347817 0.459706 -0.173578
C80   C     C_R   0.822189 0.426649 0.528033 -0.150448
C81   C     C_R   0.784609 0.843015 0.521982 -0.097217
C82   C     C_R   0.317330 0.919462 0.451457 -0.158322
C83   C     C_R   0.206748 0.341405 0.534021 -0.176034
C84   C     C_R   0.815092 0.397395 0.455263 -0.163770
C85   C     C_3   0.696274 0.129739 0.583974 -0.249157
C86   C     C_3   0.126812 0.001218 0.459152 -0.227018
C87   C     C_3   0.309798 0.623015 0.551957 -0.268381
C88   C     C_3   0.645066 0.577517 0.445425 -0.229277
C89   C     C_R   0.741110 0.968586 0.147720 0.554847
C90   C     C_R   0.258948 0.968562 0.852288 0.553715
C91   C     C_R   0.241109 0.468590 0.147718 0.548741
C92   C     C_R   0.758946 0.468555 0.852285 0.555134
C93   C     C_3   0.685703 0.166393 0.506602 -0.261518
C94   C     C_3   0.135917 0.025544 0.537406 -0.245213
C95   C     C_3   0.312443 0.631496 0.472031 -0.247502
C96   C     C_3   0.653984 0.612159 0.523204 -0.252320
C97   C     C_R   0.734489 0.979738 0.434232 0.035011
C98   C     C_R   0.269530 0.002387 0.561890 0.010112
C99   C     C_R   0.253698 0.430358 0.426813 0.021926
C100  C     C_R   0.773251 0.505646 0.561170 0.006878
C101  C     C_R   0.731010 0.381813 0.351663 0.530994
C102  C     C_R   0.269676 0.378704 0.647753 0.539386
C103  C     C_R   0.230661 0.882120 0.351407 0.532854
C104  C     C_R   0.769218 0.880376 0.648678 0.532982
C105  C     C_R   0.531002 0.157241 0.352829 0.567932
C106  C     C_R   0.467246 0.157559 0.645708 0.561217
C107  C     C_R   0.030535 0.657155 0.352359 0.575301
C108  C     C_R   0.964696 0.658278 0.644319 0.554758
C109  C     C_R   0.728196 0.020851 0.361640 0.555001
C110  C     C_R   0.272328 0.022771 0.638732 0.564966
C111  C     C_R   0.241830 0.472257 0.354689 0.554826
C112  C     C_R   0.772922 0.524066 0.638738 0.565289
C113  C     C_R   0.497781 0.164884 0.925496 0.000717
C114  C     C_R   0.502327 0.164973 0.074471 0.000836
C115  C     C_R   0.997723 0.664883 0.925527 0.000301
C116  C     C_R   0.002271 0.664975 0.074501 0.001419
C117  C     C_R   0.501789 0.278340 0.962441 0.030790
C118  C     C_R   0.498138 0.278407 0.037686 0.030532
C119  C     C_R   0.001736 0.778342 0.962474 0.030433
C120  C     C_R   0.998087 0.778408 0.037719 0.030730
C121  C     C_R   0.500129 0.055233 0.036259 -0.146293
C122  C     C_R   0.500277 0.055186 0.963543 -0.146135
C123  C     C_R   0.000038 0.555235 0.036294 -0.146161
C124  C     C_R   0.000184 0.555185 0.963578 -0.146184
Cr1   Cr    Cr6+3 0.772010 0.169670 0.250090 1.013827
Cr2   Cr    Cr6+3 0.227990 0.169670 0.749910 1.005093
Cr3   Cr    Cr6+3 0.272010 0.669670 0.250090 1.005813
Cr4   Cr    Cr6+3 0.727990 0.669670 0.749910 1.001389
Cr5   Cr    Cr6+3 0.615000 0.323260 0.249260 1.026876
Cr6   Cr    Cr6+3 0.385000 0.323260 0.750740 1.037827
Cr7   Cr    Cr6+3 0.115000 0.823260 0.249260 1.030450
Cr8   Cr    Cr6+3 0.885000 0.823260 0.750740 1.035080
Cr9   Cr    Cr6+3 0.616710 0.010760 0.250840 1.013141
Cr10  Cr    Cr6+3 0.383290 0.010760 0.749160 1.010914
Cr11  Cr    Cr6+3 0.116710 0.510760 0.250840 1.015505
Cr12  Cr    Cr6+3 0.883290 0.510760 0.749160 1.010315
H1    H     H_    0.501854 0.967215 0.062526 0.132249
H2    H     H_    0.498765 0.967139 0.937140 0.132112
H3    H     H_    0.001751 0.467219 0.062563 0.132286
H4    H     H_    0.998659 0.467137 0.937178 0.132101
H5    H     H_    0.994190 0.372346 0.564980 0.151691
H6    H     H_    0.086845 0.461492 0.445932 0.165727
H7    H     H_    0.484422 0.866542 0.563244 0.147355
H8    H     H_    0.577011 0.934931 0.440613 0.168621
H9    H     H_    0.570704 0.945503 0.567801 0.146598
H10   H     H_    0.488537 0.862002 0.436702 0.144243
H11   H     H_    0.075555 0.468903 0.571701 0.140486
H12   H     H_    0.006174 0.363455 0.438853 0.154148
H13   H     H_    0.802385 0.826173 0.409894 0.164927
H14   H     H_    0.370424 0.913399 0.552811 0.142800
H15   H     H_    0.170866 0.294901 0.428598 0.131243
H16   H     H_    0.862026 0.379356 0.559049 0.151371
H17   H     H_    0.819848 0.768085 0.534932 0.109440
H18   H     H_    0.358092 0.868464 0.424733 0.123386
H19   H     H_    0.170498 0.280029 0.559129 0.138958
H20   H     H_    0.848258 0.326303 0.433331 0.152140
H21   H     H_    0.745530 0.166431 0.608128 0.165970
H22   H     H_    0.109411 0.906030 0.448032 0.165025
H23   H     H_    0.360481 0.646256 0.578460 0.191227
H24   H     H_    0.611158 0.496319 0.437833 0.203267
H25   H     H_    0.648216 0.142195 0.616378 0.154945
H26   H     H_    0.097097 0.074506 0.430933 0.180873
H27   H     H_    0.262873 0.668732 0.574991 0.124620
H28   H     H_    0.633304 0.657003 0.410409 0.151399
H29   H     H_    0.631886 0.200329 0.494384 0.137565
H30   H     H_    0.107452 0.108417 0.555569 0.148576
H31   H     H_    0.267109 0.682932 0.449297 0.141678
H32   H     H_    0.648786 0.712088 0.532900 0.138997
H33   H     H_    0.728691 0.223104 0.485888 0.152720
H34   H     H_    0.127909 0.942310 0.570094 0.198950
H35   H     H_    0.365100 0.657073 0.451853 0.180668
H36   H     H_    0.623525 0.553282 0.559262 0.199697
H37   H     H_    0.520564 0.396228 0.870744 0.135729
H38   H     H_    0.479174 0.396593 0.129549 0.137189
H39   H     H_    0.020524 0.896240 0.870783 0.136911
H40   H     H_    0.979138 0.896586 0.129589 0.137199
H41   H     H_    0.010306 0.087794 0.935721 0.107156
H42   H     H_    0.989237 0.087967 0.064957 0.107055
H43   H     H_    0.510310 0.587790 0.935673 0.106882
H44   H     H_    0.489238 0.587967 0.064909 0.107056
H45   H     H_    0.856743 0.983623 0.070410 0.142911
H46   H     H_    0.143091 0.983324 0.929457 0.143079
H47   H     H_    0.356751 0.483603 0.070416 0.143024
H48   H     H_    0.643093 0.483343 0.929456 0.142947
H49   H     H_    0.862761 0.980208 0.944164 0.163466
H50   H     H_    0.136789 0.979268 0.055734 0.163746
H51   H     H_    0.362773 0.480170 0.944171 0.163401
H52   H     H_    0.636795 0.479291 0.055735 0.163764
H53   H     H_    0.175278 0.198206 0.938278 0.175483
H54   H     H_    0.825781 0.198359 0.061432 0.174015
H55   H     H_    0.675300 0.698199 0.938271 0.175535
H56   H     H_    0.325816 0.698386 0.061436 0.174467
H57   H     H_    0.595600 0.798760 0.930801 0.121624
H58   H     H_    0.404916 0.799467 0.069229 0.122210
H59   H     H_    0.095592 0.298802 0.930801 0.121747
H60   H     H_    0.904900 0.299396 0.069216 0.122450
H61   H     H_    0.589544 0.807745 0.057670 0.131116
H62   H     H_    0.411165 0.808497 0.942392 0.131063
H63   H     H_    0.089530 0.307809 0.057668 0.131183
H64   H     H_    0.911141 0.308411 0.942378 0.131026
H65   H     H_    0.669679 0.708949 0.065457 0.141310
H66   H     H_    0.331590 0.709260 0.934230 0.140140
H67   H     H_    0.169649 0.208972 0.065464 0.140733
H68   H     H_    0.831546 0.209221 0.934224 0.140114
O1    O     O_R   0.787520 0.042810 0.170440 -0.535478
O2    O     O_R   0.212480 0.042810 0.829560 -0.531229
O3    O     O_R   0.287520 0.542810 0.170440 -0.536296
O4    O     O_R   0.712480 0.542810 0.829560 -0.531809
O5    O     O_R   0.556610 0.252880 0.323980 -0.478505
O6    O     O_R   0.443390 0.252880 0.676020 -0.468035
O7    O     O_R   0.056610 0.752880 0.323980 -0.479995
O8    O     O_R   0.943390 0.752880 0.676020 -0.464499
O9    O     O_R   0.545950 0.051210 0.330860 -0.532907
O10   O     O_R   0.454050 0.051210 0.669140 -0.533293
O11   O     O_R   0.045950 0.551210 0.330860 -0.525984
O12   O     O_R   0.954050 0.551210 0.669140 -0.530993
O13   O     O_R   0.681390 0.959480 0.325510 -0.511687
O14   O     O_R   0.318610 0.959480 0.674490 -0.509683
O15   O     O_R   0.181390 0.459480 0.325510 -0.515342
O16   O     O_R   0.818610 0.459480 0.674490 -0.508786
O17   O     O_3   0.667900 0.167900 0.250060 -0.269569
O18   O     O_3   0.332100 0.167900 0.749940 -0.270865
O19   O     O_3   0.167900 0.667900 0.250060 -0.250760
O20   O     O_3   0.832100 0.667900 0.749940 -0.275029
O21   O     O_R   0.765640 0.292100 0.175020 -0.501508
O22   O     O_R   0.234360 0.292100 0.824980 -0.502810
O23   O     O_R   0.265640 0.792100 0.175020 -0.501285
O24   O     O_R   0.734360 0.792100 0.824980 -0.502711
O25   O     O_R   0.670190 0.408840 0.168540 -0.527447
O26   O     O_R   0.329810 0.408840 0.831460 -0.529625
O27   O     O_R   0.170190 0.908840 0.168540 -0.528782
O28   O     O_R   0.829810 0.908840 0.831460 -0.529625
O29   O     O_R   0.556620 0.251410 0.175160 -0.503296
O30   O     O_R   0.443380 0.251410 0.824840 -0.506263
O31   O     O_R   0.056620 0.751410 0.175160 -0.504143
O32   O     O_R   0.943380 0.751410 0.824840 -0.504545
O33   O     O_R   0.545960 0.049620 0.170320 -0.521376
O34   O     O_R   0.454040 0.049620 0.829680 -0.522912
O35   O     O_R   0.045960 0.549620 0.170320 -0.521439
O36   O     O_R   0.954040 0.549620 0.829680 -0.522285
O37   O     O_R   0.681390 0.958010 0.176690 -0.489877
O38   O     O_R   0.318610 0.958010 0.823310 -0.490318
O39   O     O_R   0.181390 0.458010 0.176690 -0.493696
O40   O     O_R   0.818610 0.458010 0.823310 -0.489844
O41   O     O_R   0.787510 0.044390 0.330970 -0.495735
O42   O     O_R   0.212490 0.044390 0.669030 -0.510691
O43   O     O_R   0.287510 0.544390 0.330970 -0.515123
O44   O     O_R   0.712490 0.544390 0.669030 -0.501986
O45   O     O_R   0.765630 0.293570 0.323840 -0.515445
O46   O     O_R   0.234370 0.293570 0.676160 -0.526924
O47   O     O_R   0.265630 0.793570 0.323840 -0.511904
O48   O     O_R   0.734370 0.793570 0.676160 -0.531199
O49   O     O_R   0.670190 0.410420 0.329080 -0.518984
O50   O     O_R   0.329810 0.410420 0.670920 -0.488088
O51   O     O_R   0.170190 0.910420 0.329080 -0.517940
O52   O     O_R   0.829810 0.910420 0.670920 -0.482258
C125  C     C_2   0.467397 0.389088 0.413179 0.593658
O53   O     O_2   0.484164 0.491736 0.432329 -0.534329
O54   O     O_R   0.430433 0.374248 0.349022 -0.690017
H69   H     H_    0.422413 0.454456 0.323147 0.338774
C126  C     C_2   0.497174 0.395715 0.574053 0.607557
O55   O     O_2   0.456977 0.481687 0.565400 -0.502678
O56   O     O_R   0.549623 0.401913 0.626652 -0.711570
H70   H     H_    0.548502 0.481754 0.654159 0.327465
C127  C     C_2   0.958205 0.884009 0.405541 0.594706
O57   O     O_2   0.973087 0.988290 0.423355 -0.517298
O58   O     O_R   0.925462 0.863807 0.339588 -0.697875
H71   H     H_    0.918185 0.941997 0.311511 0.344810
C128  C     C_2   0.964350 0.902554 0.565552 0.623977
O59   O     O_2   0.916901 0.972392 0.548277 -0.480996
O60   O     O_R   0.009961 0.934960 0.621185 -0.707997
H72   H     H_    0.998487 0.018025 0.642249 0.324404

loop_
_geom_bond_atom_site_label_1
_geom_bond_atom_site_label_2
_ccdc_geom_bond_type
C87   H27   S    
C55   C56   A    
C88   C96   S    
C67   C83   A    
C98   C110  S    
C116  C123  A    
C39   H67   S    
Cr2   O42   S    
C103  O51   A    
Cr9   O33   S    
C14   C18   A    
C101  O49   A    
C50   C57   A    
Cr8   O8    S    
C73   C93   S    
C72   C76   A    
C94   H30   S    
C57   C58   A    
C75   C95   S    
O56   H70   S    
C74   C98   A    
C66   C70   A    
C53   C54   A    
C15   C19   A    
Cr1   O17   S    
C108  O12   A    
C93   H33   S    
C78   H14   S    
C50   C54   A    
C17   C33   S    
C13   C17   A    
C36   H54   S    
C30   H50   S    
C13   C29   A    
C16   C20   A    
C65   C104  S    
C45   O29   A    
C5    C11   A    
C62   H10   S    
Cr7   O19   S    
C6    C12   A    
C126  O55   D    
C109  O13   A    
C88   H24   S    
Cr7   O51   S    
C83   H19   S    
Cr11  O19   S    
Cr6   O26   S    
C1    O21   A    
O60   H72   S    
C22   C38   S    
C123  H3    S    
Cr2   O18   S    
C81   H17   S    
C28   C44   A    
C7    C9    A    
C125  O53   D    
C6    C118  A    
C121  H1    S    
C4    C13   S    
C61   H9    S    
C85   H25   S    
Cr10  O38   S    
Cr3   O3    S    
C86   C94   S    
Cr9   O37   S    
C90   O2    A    
C114  C121  A    
C85   C93   S    
C45   C114  S    
C61   H7    S    
C89   O1    A    
C113  C122  A    
C40   H68   S    
C52   C107  S    
Cr11  O35   S    
C51   C108  S    
Cr10  O18   S    
C55   C63   S    
C70   C74   A    
C50   C105  S    
Cr9   O17   S    
C96   H32   S    
C69   C73   A    
C99   C111  S    
C86   H26   S    
C89   O37   A    
C37   H61   S    
C60   C128  S    
Cr8   O20   S    
C127  O57   D    
Cr3   O47   S    
C44   C92   S    
Cr3   O19   S    
C95   H35   S    
C123  C124  A    
C34   H58   S    
C46   O34   A    
C72   C88   S    
C33   H57   S    
C59   C60   A    
C35   H53   S    
C34   C38   S    
C128  O59   D    
C80   C100  A    
Cr3   O23   S    
Cr10  O34   S    
Cr4   O20   S    
C38   H62   S    
Cr2   O22   S    
C111  O15   A    
C14   C30   A    
C2    O22   A    
Cr1   O21   S    
Cr8   O28   S    
C63   H11   S    
C108  O8    A    
C25   H45   S    
C3    C14   S    
C47   O31   A    
C25   C29   A    
C47   C116  S    
C106  O10   A    
Cr11  O11   S    
C71   C75   A    
C105  O9    A    
C32   H52   S    
C27   C31   A    
C80   C84   A    
C10   H42   S    
C20   C24   A    
C76   C100  A    
C36   C40   S    
Cr6   O18   S    
C86   H22   S    
C68   C101  S    
C122  H2    S    
Cr5   O17   S    
C119  C120  A    
C77   H13   S    
C126  O56   S    
C5    C117  A    
Cr9   O13   S    
C20   C36   S    
C87   H23   S    
C6    H38   S    
C51   C55   A    
Cr7   O31   S    
C42   C90   S    
Cr10  O14   S    
C15   C31   A    
Cr6   O30   S    
C43   C91   S    
C49   C58   A    
C116  C120  A    
C7    H39   S    
C68   C72   A    
C102  O50   A    
C68   C84   A    
C19   C23   A    
C17   C21   A    
C36   H60   S    
C78   C98   A    
C92   O4    A    
C52   C59   A    
C7    C119  A    
C66   C82   A    
C97   C109  S    
Cr1   O45   S    
C78   C82   A    
C65   C81   A    
Cr12  O20   S    
C28   C32   A    
Cr4   O24   S    
Cr3   O43   S    
Cr11  O15   S    
C46   O30   A    
C75   C99   A    
C63   H5    S    
C79   C99   A    
C107  O11   A    
C109  O41   A    
C1    C16   S    
C48   O32   A    
C112  O16   A    
C113  C117  A    
Cr5   O25   S    
C77   C97   A    
C2    C15   S    
C18   C34   S    
C121  C122  A    
C114  C118  A    
Cr4   O44   S    
C38   H66   S    
C4    O28   A    
C48   C115  S    
C21   C41   A    
C26   H46   S    
C8    C10   A    
C12   H44   S    
C91   O39   A    
C73   C97   A    
C115  C119  A    
C94   H34   S    
C90   O38   A    
C58   C126  S    
Cr7   O7    S    
C24   C44   A    
C71   C87   S    
Cr6   O6    S    
C11   H43   S    
C105  O5    A    
C3    O27   A    
O54   H69   S    
C70   C86   S    
C3    O23   A    
C84   H20   S    
C9    H41   S    
C8    C120  A    
C33   C37   S    
C9    C10   A    
C79   H15   S    
Cr7   O27   S    
C104  O48   A    
C112  O44   A    
C27   C43   A    
C39   H63   S    
C87   C95   S    
C40   H64   S    
C115  C124  A    
C46   C113  S    
C41   C89   S    
C18   C22   A    
C23   C43   A    
C5    H37   S    
C66   C103  S    
C69   C85   S    
C101  O45   A    
C124  H4    S    
Cr12  O40   S    
Cr5   O49   S    
Cr6   O50   S    
C95   H31   S    
C91   O3    A    
O58   H71   S    
C8    H40   S    
C100  C112  S    
C49   C106  S    
Cr12  O16   S    
C35   H59   S    
C16   C32   A    
C45   O33   A    
C54   C62   S    
C48   O36   A    
Cr12  O36   S    
C104  O52   A    
Cr2   O46   S    
C57   C125  S    
C33   H55   S    
C59   C127  S    
Cr9   O9    S    
Cr8   O52   S    
C128  O60   S    
C28   H48   S    
C103  O47   A    
C127  O58   S    
C88   H28   S    
C117  C118  A    
C76   C96   S    
C107  O7    A    
C79   C83   A    
C92   O40   A    
Cr8   O32   S    
C110  O42   A    
C56   C64   S    
C22   C42   A    
C64   H6    S    
C34   H56   S    
Cr4   O48   S    
C102  O46   A    
C65   C69   A    
C35   C39   S    
Cr1   O1    S    
C24   C40   S    
C47   O35   A    
C29   H49   S    
C67   C71   A    
C53   C61   S    
C4    O24   A    
C26   C42   A    
C61   C62   S    
C110  O14   A    
C27   H47   S    
C49   C53   A    
Cr2   O2    S    
C2    O26   A    
C93   H29   S    
C63   C64   S    
C82   H18   S    
C1    O25   A    
C21   C37   S    
C67   C102  S    
Cr10  O10   S    
C111  O43   A    
C77   C81   A    
C96   H36   S    
Cr5   O29   S    
C74   C94   S    
C85   H21   S    
C37   H65   S    
C25   C41   A    
C19   C35   S    
C51   C60   A    
Cr4   O4    S    
Cr1   O41   S    
C31   H51   S    
C80   H16   S    
C125  O54   S    
Cr5   O5    S    
C23   C39   S    
C64   H12   S    
C52   C56   A    
C11   C12   A    
C62   H8    S    
Cr11  O39   S    
Cr12  O12   S    
C26   C30   A    
C106  O6    A    
