data_mof_unit_37302.cif
_audit_creation_date              2012-12-10T18:25:38-0500
_audit_creation_method            fapswitch 2.2
_symmetry_space_group_name_H-M    P1
_symmetry_Int_Tables_number       1
_space_group_crystal_system       triclinic
_cell_length_a                    14.985175
_cell_length_b                    13.957652
_cell_length_c                    19.222486
_cell_angle_alpha                 89.341524
_cell_angle_beta                  91.988064
_cell_angle_gamma                 88.994966
_cell_volume                      4017.20118511

loop_
_atom_site_label
_atom_site_type_symbol
_atom_type_description
_atom_site_fract_x
_atom_site_fract_y
_atom_site_fract_z
_atom_type_partial_charge
C1    C     C_R   0.326699 0.501012 0.500636 0.956924
C2    C     C_R   0.095664 0.520684 0.563966 -0.098921
C3    C     C_R   0.153757 0.576156 0.177865 -0.117251
C4    C     C_R   0.125760 0.482739 0.190349 -0.136301
C5    C     C_R   0.089387 0.458625 0.254095 -0.099953
C6    C     C_3   0.069514 0.588796 0.741228 0.108004
C7    C     C_3   0.023479 0.683391 0.715075 -0.441694
C8    C     C_3   0.977829 0.734359 0.774424 -0.946512
C9    C     C_3   0.866781 0.429338 0.291146 0.126512
C10   C     C_3   0.806399 0.441263 0.225714 -0.301865
C11   C     C_3   0.786188 0.345024 0.192240 -0.980737
C12   C     C_R   0.961804 0.488177 0.628761 -0.144829
C13   C     C_R   0.039084 0.505500 0.372833 -0.122351
C14   C     C_R   0.052331 0.517486 0.628556 0.447754
C15   C     C_R   0.945823 0.511491 0.373857 0.393493
C16   C     C_R   0.571230 0.796342 0.529034 -0.048051
C17   C     C_R   0.428822 0.203869 0.470623 -0.025567
C18   C     C_R   0.429266 0.799874 0.470123 -0.045078
C19   C     C_R   0.571635 0.200254 0.528568 -0.036270
C20   C     C_R   0.426575 0.900669 0.470775 0.025507
C21   C     C_R   0.673441 0.499143 0.500620 0.944501
C22   C     C_R   0.573860 0.099511 0.528361 0.013082
C23   C     C_R   0.573812 0.897014 0.528279 0.032797
C24   C     C_R   0.426729 0.103207 0.470385 0.007948
C25   C     C_R   0.500155 0.949463 0.499572 0.067808
C26   C     C_R   0.500226 0.050750 0.499460 0.077558
C27   C     C_R   0.352618 0.953513 0.443221 -0.224757
C28   C     C_R   0.647818 0.046646 0.555659 -0.242316
C29   C     C_R   0.647999 0.946202 0.555289 -0.240581
C30   C     C_R   0.352928 0.054045 0.442644 -0.243921
C31   C     C_R   0.505133 0.500295 0.365320 0.879642
C32   C     C_R   0.819624 0.462501 0.559586 -0.127513
C33   C     C_R   0.494702 0.499235 0.634634 0.858499
C34   C     C_R   0.487977 0.581589 0.248357 -0.042616
C35   C     C_R   0.446127 0.410510 0.741405 -0.018394
C36   C     C_R   0.496753 0.576229 0.752375 -0.028835
C37   C     C_R   0.536745 0.412658 0.254845 -0.009194
C38   C     C_R   0.476609 0.573406 0.176857 -0.219555
C39   C     C_R   0.438453 0.405452 0.813383 -0.216437
C40   C     C_R   0.484213 0.569770 0.823481 -0.209460
C41   C     C_R   0.524384 0.407423 0.182546 -0.235065
C42   C     C_R   0.491264 0.486378 0.143983 0.044687
C43   C     C_R   0.182135 0.481114 0.439375 -0.124891
C44   C     C_R   0.457267 0.484630 0.854010 0.058937
C45   C     C_R   0.513154 0.499482 0.289112 -0.143844
C46   C     C_R   0.479365 0.495678 0.709971 -0.131333
C47   C     C_R   0.453573 0.478948 0.929139 0.295218
C48   C     C_R   0.474030 0.480823 0.068903 0.300275
C49   C     C_R   0.811150 0.532001 0.442247 0.409452
C50   C     C_R   0.188383 0.535387 0.559773 0.425398
C51   C     C_R   0.769394 0.497652 0.501179 -0.229239
C52   C     C_R   0.230829 0.504639 0.500031 -0.233365
C53   C     C_R   0.471274 0.678208 0.276188 0.171758
C54   C     C_R   0.911250 0.485088 0.564529 -0.005136
C55   C     C_R   0.383784 0.715700 0.276523 -0.182888
C56   C     C_R   0.368664 0.812820 0.289537 -0.164743
C57   C     C_R   0.440854 0.873158 0.301678 -0.101165
C58   C     C_R   0.528026 0.835992 0.302760 -0.155360
C59   C     C_R   0.543326 0.738911 0.289437 -0.112528
C60   C     C_R   0.415063 0.326156 0.701658 0.141182
C61   C     C_R   0.338132 0.333425 0.657957 -0.079458
C62   C     C_R   0.306993 0.253192 0.622317 -0.138644
C63   C     C_R   0.351873 0.164947 0.630679 -0.121129
C64   C     C_R   0.428366 0.157010 0.674192 -0.131785
C65   C     C_R   0.089628 0.499063 0.436658 -0.009202
C66   C     C_R   0.459597 0.237091 0.709996 -0.156937
C67   C     C_R   0.530934 0.668367 0.726973 0.161465
C68   C     C_R   0.622354 0.678341 0.715935 -0.144373
C69   C     C_R   0.657397 0.769126 0.704542 -0.175424
C70   C     C_R   0.601313 0.850274 0.704307 -0.109771
C71   C     C_R   0.509823 0.840565 0.713366 -0.131083
C72   C     C_R   0.474824 0.750004 0.725432 -0.146294
C73   C     C_R   0.574328 0.326002 0.292249 0.151948
C74   C     C_R   0.647689 0.333508 0.339378 -0.102935
C75   C     C_R   0.682891 0.252391 0.374557 -0.148680
C76   C     C_R   0.953652 0.503869 0.501342 -0.058618
C77   C     C_R   0.645490 0.162800 0.362787 -0.118259
C78   C     C_R   0.572457 0.154379 0.316247 -0.135799
C79   C     C_R   0.537091 0.235400 0.280943 -0.152114
C80   C     C_3   0.784712 0.666019 0.372325 0.161174
C81   C     C_3   0.734228 0.737694 0.416674 -0.379714
C82   C     C_3   0.756526 0.840532 0.396774 -1.014527
C83   C     C_3   0.220964 0.667235 0.626395 0.132579
C84   C     C_3   0.289590 0.731290 0.593346 -0.348695
C85   C     C_3   0.278700 0.835122 0.616417 -1.014463
C86   C     C_R   0.781327 0.389437 0.606375 0.160613
C87   C     C_R   0.046286 0.507785 0.500736 -0.069940
C88   C     C_R   0.819013 0.296467 0.609355 -0.160950
C89   C     C_R   0.787602 0.228209 0.655830 -0.178916
C90   C     C_R   0.717831 0.251809 0.699138 -0.122973
C91   C     C_R   0.679375 0.343671 0.695906 -0.109081
C92   C     C_R   0.710068 0.411910 0.649082 -0.090510
C93   C     C_R   0.224428 0.422878 0.385064 0.161057
C94   C     C_R   0.204641 0.325111 0.380182 -0.173645
C95   C     C_R   0.238682 0.270311 0.326459 -0.185881
C96   C     C_R   0.291197 0.313148 0.276669 -0.109041
C97   C     C_R   0.311040 0.410282 0.281389 -0.119426
C98   C     C_R   0.903288 0.514856 0.438205 -0.118166
C99   C     C_R   0.280224 0.464581 0.336618 -0.128657
C100  C     C_R   0.921534 0.463320 0.695827 0.171922
C101  C     C_R   0.856894 0.523925 0.724540 -0.181025
C102  C     C_R   0.821372 0.501112 0.788862 -0.160679
C103  C     C_R   0.849666 0.417698 0.824643 -0.100805
C104  C     C_R   0.914072 0.357286 0.796496 -0.146296
C105  C     C_R   0.950385 0.380172 0.732514 -0.114108
C106  C     C_R   0.081018 0.528070 0.305934 0.201904
C107  C     C_R   0.109102 0.621835 0.292920 -0.155449
C108  C     C_R   0.145158 0.645701 0.229033 -0.171142
H1    H     H_    0.455035 0.636396 0.146822 0.163101
H2    H     H_    0.705615 0.082818 0.576966 0.149242
H3    H     H_    0.705962 0.906947 0.576448 0.144797
H4    H     H_    0.295412 0.093259 0.420781 0.140757
H5    H     H_    0.327828 0.670544 0.263844 0.129760
H6    H     H_    0.301126 0.841678 0.288799 0.121523
H7    H     H_    0.429268 0.948752 0.310270 0.134191
H8    H     H_    0.583621 0.883056 0.312091 0.134100
H9    H     H_    0.611094 0.711800 0.286389 0.124261
H10   H     H_    0.302174 0.400943 0.651952 0.172329
H11   H     H_    0.247916 0.259390 0.588414 0.125741
H12   H     H_    0.415379 0.340313 0.837695 0.148695
H13   H     H_    0.327538 0.102758 0.603305 0.138160
H14   H     H_    0.463278 0.088729 0.680350 0.126804
H15   H     H_    0.518160 0.229645 0.744319 0.115910
H16   H     H_    0.666794 0.616595 0.719171 0.105639
H17   H     H_    0.728244 0.776752 0.697293 0.124778
H18   H     H_    0.628739 0.920781 0.697401 0.132459
H19   H     H_    0.466437 0.903397 0.712860 0.125847
H20   H     H_    0.404647 0.743582 0.735920 0.130106
H21   H     H_    0.676485 0.402635 0.349527 0.143460
H22   H     H_    0.738904 0.259136 0.411167 0.123436
H23   H     H_    0.499618 0.630949 0.855821 0.154757
H24   H     H_    0.672649 0.099998 0.390105 0.135849
H25   H     H_    0.543143 0.085039 0.307617 0.124342
H26   H     H_    0.480230 0.227558 0.245325 0.117099
H27   H     H_    0.767535 0.680960 0.316554 0.162751
H28   H     H_    0.857714 0.678320 0.379005 0.143040
H29   H     H_    0.661326 0.727325 0.409131 0.257646
H30   H     H_    0.752972 0.725301 0.472519 0.215483
H31   H     H_    0.827928 0.854459 0.409615 0.267236
H32   H     H_    0.714712 0.891430 0.425882 0.281315
H33   H     H_    0.743268 0.853432 0.340221 0.260324
H34   H     H_    0.540503 0.341300 0.156384 0.154407
H35   H     H_    0.224396 0.678628 0.683475 0.172565
H36   H     H_    0.153425 0.690903 0.606215 0.107492
H37   H     H_    0.358058 0.704930 0.607968 0.267263
H38   H     H_    0.279296 0.728889 0.536037 0.217538
H39   H     H_    0.212852 0.864896 0.597671 0.265302
H40   H     H_    0.332086 0.879228 0.594585 0.281794
H41   H     H_    0.283794 0.839809 0.674033 0.259032
H42   H     H_    0.873820 0.277545 0.576585 0.124892
H43   H     H_    0.817919 0.157274 0.658697 0.125271
H44   H     H_    0.694053 0.199172 0.735538 0.120720
H45   H     H_    0.626352 0.754677 0.552144 0.141859
H46   H     H_    0.626983 0.362529 0.730646 0.130322
H47   H     H_    0.680974 0.483250 0.647884 0.088577
H48   H     H_    0.162010 0.291818 0.417503 0.123983
H49   H     H_    0.222750 0.195215 0.322549 0.124796
H50   H     H_    0.315317 0.271516 0.233833 0.119181
H51   H     H_    0.348025 0.444012 0.241035 0.149288
H52   H     H_    0.295633 0.539836 0.339704 0.113624
H53   H     H_    0.834034 0.588388 0.697028 0.125779
H54   H     H_    0.771694 0.547871 0.810894 0.133716
H55   H     H_    0.821719 0.399906 0.874220 0.128382
H56   H     H_    0.373429 0.245652 0.448077 0.150389
H57   H     H_    0.936000 0.292791 0.824332 0.128052
H58   H     H_    0.000540 0.333085 0.711313 0.129157
H59   H     H_    0.102550 0.676406 0.332122 0.117364
H60   H     H_    0.166617 0.718109 0.219247 0.129072
H61   H     H_    0.182301 0.594593 0.128628 0.133838
H62   H     H_    0.133121 0.428717 0.150920 0.128486
H63   H     H_    0.070634 0.385350 0.263697 0.108931
H64   H     H_    0.127015 0.609466 0.775505 0.153468
H65   H     H_    0.027023 0.548526 0.776794 0.170134
H66   H     H_    0.073395 0.733003 0.694892 0.205448
H67   H     H_    0.374966 0.760922 0.445881 0.134016
H68   H     H_    0.972679 0.671187 0.673020 0.215917
H69   H     H_    0.925495 0.688743 0.796327 0.270350
H70   H     H_    0.945855 0.802168 0.754628 0.259380
H71   H     H_    0.027595 0.751623 0.816391 0.263492
H72   H     H_    0.828636 0.394695 0.332835 0.124669
H73   H     H_    0.923883 0.381268 0.279531 0.118221
H74   H     H_    0.742817 0.477460 0.239424 0.229411
H75   H     H_    0.839731 0.487186 0.187140 0.232156
H76   H     H_    0.848310 0.312307 0.172432 0.261363
H77   H     H_    0.737457 0.355999 0.147898 0.272598
H78   H     H_    0.627182 0.239284 0.550861 0.151929
H79   H     H_    0.757456 0.294977 0.230302 0.275067
H80   H     H_    0.295005 0.917080 0.421513 0.141169
N1    N     N_R   0.492812 0.399929 0.033351 -0.187816
N2    N     N_R   0.432143 0.558482 0.964819 -0.184425
N3    N     N_R   0.482856 0.399054 0.964362 -0.182659
N4    N     N_R   0.441792 0.559167 0.033463 -0.190899
N5    N     N_R   0.500000 0.750030 0.500000 -0.115618
N6    N     N_R   0.500000 0.249970 0.500000 -0.096626
O1    O     O_R   0.367850 0.580280 0.500020 -0.637800
O2    O     O_3   0.240330 0.568850 0.615258 -0.631751
O3    O     O_3   0.104634 0.527140 0.689664 -0.625616
O4    O     O_3   0.897114 0.520445 0.311444 -0.630882
O5    O     O_R   0.632150 0.419720 0.499980 -0.631977
O6    O     O_R   0.632150 0.580280 0.499980 -0.627930
O7    O     O_R   0.367850 0.419720 0.500020 -0.626882
O8    O     O_R   0.499990 0.580300 0.398140 -0.609803
O9    O     O_R   0.500010 0.419700 0.601860 -0.607916
O10   O     O_R   0.500010 0.580300 0.601860 -0.614722
O11   O     O_R   0.499990 0.419700 0.398140 -0.600608
O12   O     O_3   0.759447 0.570464 0.386956 -0.650377
Zn1   Zn    Zn3+2 0.500000 0.607200 0.500000 0.941624
Zn2   Zn    Zn3+2 0.500000 0.392800 0.500000 0.971395

loop_
_geom_bond_atom_site_label_1
_geom_bond_atom_site_label_2
_ccdc_geom_bond_type
C80   O12   S    
C55   C56   A    
C93   C94   A    
N5    Zn1   S    
C73   C74   A    
C96   H50   S    
C95   C96   A    
C85   H40   S    
C1    O7    A    
C68   H16   S    
C81   C82   S    
C53   C59   A    
C36   C67   S    
C7    C8    S    
C57   H7    S    
C6    H64   S    
C77   C78   A    
C105  H58   S    
C81   H29   S    
C62   H11   S    
C100  C105  A    
C101  C102  A    
C80   H27   S    
C4    H62   S    
C72   H20   S    
C37   C41   A    
C11   H79   S    
C97   H51   S    
C28   C29   A    
C1    O1    A    
C24   C26   A    
C38   C42   A    
C19   H78   S    
C83   H36   S    
C86   C88   A    
C43   C52   A    
C106  C107  A    
C76   C98   A    
C39   H12   S    
C7    H66   S    
C56   C57   A    
C67   C72   A    
C41   C42   A    
C83   O2    S    
N1    N3    A    
O5    Zn2   S    
C31   O8    A    
C82   H32   S    
C16   N5    A    
C2    C50   A    
C63   H13   S    
C49   C98   A    
C50   O2    S    
C8    H69   S    
C68   C69   A    
C49   C51   A    
C20   C25   A    
C50   C52   A    
C107  C108  A    
C78   H25   S    
C36   C46   A    
C70   C71   A    
C103  C104  A    
C9    C10   S    
C93   C99   A    
C61   C62   A    
C90   C91   A    
C44   C47   S    
C102  H54   S    
C18   H67   S    
C70   H18   S    
C108  H60   S    
C69   H17   S    
C59   H9    S    
C95   H49   S    
C99   H52   S    
C7    H68   S    
C27   C30   A    
C58   H8    S    
C10   H75   S    
C71   H19   S    
C17   N6    A    
C102  C103  A    
C21   O5    A    
C82   H33   S    
C32   C54   A    
C104  C105  A    
C97   C99   A    
C65   C87   A    
C85   H41   S    
C5    C106  A    
C53   C55   A    
C73   C79   A    
C81   H30   S    
C14   O3    S    
C107  H59   S    
C19   N6    A    
C17   C24   A    
C12   C100  S    
C74   C75   A    
C67   C68   A    
C36   C40   A    
C19   C22   A    
C84   C85   S    
C91   H46   S    
C90   H44   S    
C91   C92   A    
C15   O4    S    
C78   C79   A    
C3    H61   S    
C13   C65   A    
C55   H5    S    
C28   H2    S    
C58   C59   A    
C84   H37   S    
C33   O9    A    
C104  H57   S    
C30   H4    S    
C60   C61   A    
C77   H24   S    
C64   C66   A    
C35   C39   A    
C32   C51   A    
C62   C63   A    
C17   H56   S    
C8    H70   S    
C83   C84   S    
O10   Zn1   S    
C40   C44   A    
C43   C65   A    
C32   C86   S    
C96   C97   A    
C82   H31   S    
C5    H63   S    
O1    Zn1   S    
C94   C95   A    
C34   C45   A    
C42   C48   S    
C88   C89   A    
C38   H1    S    
C75   C77   A    
C76   C87   A    
C48   N1    A    
C6    C7    S    
C9    H72   S    
C13   C106  S    
C54   C76   A    
C6    H65   S    
C40   H23   S    
C12   C14   A    
O6    Zn1   S    
O8    Zn1   S    
C13   C15   A    
C22   C26   A    
C10   H74   S    
C15   C98   A    
C37   C45   A    
C3    C4    A    
C23   C29   A    
C21   C51   S    
C9    O4    S    
O11   Zn2   S    
C79   H26   S    
C37   C73   S    
N2    N4    A    
C103  H55   S    
C61   H10   S    
C34   C38   A    
C88   H42   S    
C29   H3    S    
C11   H76   S    
C85   H39   S    
C80   C81   S    
C6    O3    S    
C75   H22   S    
C31   O11   A    
C39   C44   A    
C20   C27   A    
C84   H38   S    
C3    C108  A    
C16   C23   A    
N6    Zn2   S    
O9    Zn2   S    
C33   O10   A    
C33   C46   S    
C80   H28   S    
C47   N2    A    
C101  H53   S    
C25   C26   A    
C41   H34   S    
C86   C92   A    
C83   H35   S    
C8    H71   S    
C57   C58   A    
C64   H14   S    
C4    C5    A    
C100  C101  A    
C43   C93   S    
O7    Zn2   S    
C11   H77   S    
C92   H47   S    
C18   C20   A    
C27   H80   S    
C23   C25   A    
C47   N3    A    
C69   C70   A    
C2    C14   A    
C1    C52   S    
C24   C30   A    
C48   N4    A    
C9    H73   S    
C10   C11   S    
C60   C66   A    
C63   C64   A    
C2    C87   A    
C89   H43   S    
C71   C72   A    
C49   O12   S    
C34   C53   S    
C94   H48   S    
C31   C45   S    
C74   H21   S    
C16   H45   S    
C56   H6    S    
C66   H15   S    
C35   C60   S    
C22   C28   A    
C21   O6    A    
C89   C90   A    
C35   C46   A    
C12   C54   A    
C18   N5    A    
