data_mof_unit_17295.cif
_audit_creation_date              2012-12-11T14:55:58-0500
_audit_creation_method            fapswitch 2.2
_symmetry_space_group_name_H-M    P1
_symmetry_Int_Tables_number       1
_space_group_crystal_system       triclinic
_cell_length_a                    28.106173
_cell_length_b                    17.286228
_cell_length_c                    18.178291
_cell_angle_alpha                 90.144185
_cell_angle_beta                  137.905993
_cell_angle_gamma                 89.920317
_cell_volume                      5920.44687499

loop_
_atom_site_label
_atom_site_type_symbol
_atom_type_description
_atom_site_fract_x
_atom_site_fract_y
_atom_site_fract_z
_atom_type_partial_charge
C1    C     C_R   0.672699 0.917485 0.816527 -0.111708
C2    C     C_3   0.297307 0.699904 0.013436 -0.429154
C3    C     C_3   0.676087 0.729470 0.937401 -0.291515
C4    C     C_3   0.207319 0.769566 0.952952 -0.286033
C5    C     C_3   0.825567 0.231181 0.061255 -0.289867
C6    C     C_3   0.800052 0.806673 0.094058 -0.289589
C7    C     C_3   0.172233 0.288107 0.988222 -0.319180
C8    C     C_3   0.279718 0.743679 0.064638 0.680078
C9    C     C_3   0.788632 0.256503 0.947507 0.676134
C10   C     C_3   0.766287 0.780198 0.983008 0.702530
C11   C     C_3   0.249264 0.309770 0.097516 0.671714
C12   C     C_3   0.736798 0.280920 0.020452 0.703998
C13   C     C_3   0.266113 0.337495 0.038333 -0.408052
C14   C     C_3   0.257707 0.799962 0.907052 0.701226
C15   C     C_3   0.214076 0.233143 0.937085 0.676865
C16   C     C_3   0.710338 0.755561 0.049367 0.675127
C17   C     C_3   0.313304 0.817156 0.071909 0.001856
C18   C     C_3   0.718695 0.226336 0.897436 -0.024536
C19   C     C_3   0.694701 0.809857 0.927482 -0.016042
C20   C     C_3   0.273539 0.228438 0.104822 0.032329
C21   C     C_3   0.807262 0.311489 0.072232 -0.015723
C22   C     C_3   0.224812 0.726722 0.900828 -0.021799
C23   C     C_3   0.189809 0.314629 0.929609 0.003140
C24   C     C_3   0.748844 0.699834 0.993026 -0.355828
C25   C     C_3   0.781506 0.726238 0.103373 -0.024225
C26   C     C_3   0.331188 0.654500 0.202830 0.263076
C27   C     C_3   0.353993 0.643549 0.308543 -0.901578
C28   C     C_3   0.776571 0.276904 0.808778 0.253805
C29   C     C_3   0.791019 0.239548 0.751008 -0.871230
C30   C     C_3   0.767323 0.755439 0.858134 0.258993
C31   C     C_3   0.819472 0.694531 0.890667 -0.907619
C32   C     C_3   0.249670 0.426968 0.157880 0.258548
C33   C     C_3   0.247608 0.463737 0.231330 -0.881139
C34   C     C_3   0.738244 0.255275 0.147923 0.258936
C35   C     C_3   0.241060 0.844093 0.959679 -0.384276
C36   C     C_3   0.686161 0.194265 0.115289 -0.908184
C37   C     C_3   0.180435 0.861308 0.737439 0.274531
C38   C     C_3   0.189635 0.943157 0.719271 -0.920064
C39   C     C_3   0.147068 0.140238 0.798697 0.262892
C40   C     C_3   0.113326 0.125339 0.685295 -0.918627
C41   C     C_3   0.717906 0.776688 0.183277 0.253750
C42   C     C_3   0.700273 0.740379 0.236950 -0.869756
C43   C     C_3   0.754045 0.200664 0.009555 -0.359779
C44   C     C_3   0.726903 0.836911 0.037632 -0.391026
C45   C     C_3   0.197328 0.205023 0.996154 -0.416227
C46   C     C_R   0.712380 0.756460 0.607152 0.112379
C47   C     C_R   0.287530 0.245629 0.385740 0.157335
C48   C     C_R   0.384171 0.853226 0.636217 0.120957
C49   C     C_R   0.312606 0.101720 0.199753 -0.146679
C50   C     C_R   0.612003 0.145664 0.358001 0.128581
C51   C     C_R   0.119237 0.348562 0.369298 0.122580
C52   C     C_R   0.887795 0.646456 0.641754 0.128392
C53   C     C_R   0.788211 0.256557 0.394909 0.114110
C54   C     C_R   0.209796 0.744498 0.602125 0.145597
C55   C     C_R   0.268500 0.373015 0.415521 -0.262209
C56   C     C_R   0.734770 0.626562 0.588065 -0.237627
C57   C     C_R   0.607794 0.249399 0.264205 -0.227765
C58   C     C_R   0.391029 0.753729 0.737124 -0.219847
C59   C     C_R   0.892444 0.750043 0.736658 -0.228356
C60   C     C_R   0.332392 0.921953 0.184039 -0.089552
C61   C     C_R   0.110017 0.250254 0.264211 -0.217828
C62   C     C_R   0.229270 0.872863 0.575296 -0.228992
C63   C     C_R   0.766061 0.126723 0.414105 -0.236987
C64   C     C_R   0.311164 0.321676 0.426330 -0.099518
C65   C     C_R   0.690228 0.679333 0.571160 -0.184928
C66   C     C_R   0.577305 0.210318 0.287916 -0.170459
C67   C     C_R   0.420148 0.790435 0.709629 -0.158354
C68   C     C_R   0.922606 0.711171 0.712126 -0.172823
C69   C     C_R   0.082832 0.285704 0.295608 -0.159835
C70   C     C_R   0.184984 0.819387 0.557240 -0.162284
C71   C     C_R   0.685415 0.101058 0.804013 -0.129291
C72   C     C_R   0.810612 0.179632 0.431402 -0.186526
C73   C     C_R   0.216163 0.226902 0.315502 -0.261674
C74   C     C_R   0.783396 0.776245 0.675987 -0.290369
C75   C     C_R   0.666551 0.110045 0.380914 -0.275093
C76   C     C_R   0.330017 0.889861 0.613126 -0.268821
C77   C     C_R   0.833648 0.610499 0.619518 -0.277174
C78   C     C_R   0.172429 0.385869 0.390422 -0.265093
C79   C     C_R   0.281978 0.727414 0.676771 -0.228713
C80   C     C_R   0.717094 0.276031 0.325749 -0.288302
C81   C     C_R   0.174398 0.276512 0.309404 0.176081
C82   C     C_R   0.170895 0.419034 0.816524 -0.116067
C83   C     C_R   0.827142 0.724798 0.688851 0.195776
C84   C     C_R   0.700036 0.151269 0.363828 0.193812
C85   C     C_R   0.296867 0.849910 0.631290 0.194510
C86   C     C_R   0.800517 0.651458 0.637573 0.193173
C87   C     C_R   0.202971 0.347861 0.366307 0.183776
C88   C     C_R   0.325041 0.778416 0.687478 0.179626
C89   C     C_R   0.673334 0.224465 0.312584 0.194187
C90   C     C_R   0.326171 0.105289 0.406149 -0.145821
C91   C     C_R   0.673433 0.895642 0.591245 -0.156647
C92   C     C_R   0.639218 0.070286 0.507470 -0.130307
C93   C     C_R   0.814300 0.601460 0.196953 -0.131170
C94   C     C_R   0.359169 0.929332 0.489771 -0.119119
C95   C     C_R   0.860536 0.570651 0.492142 -0.128420
C96   C     C_R   0.142464 0.427497 0.512853 -0.120069
C97   C     C_R   0.173076 0.604795 0.590241 -0.142068
C98   C     C_R   0.826724 0.395655 0.409375 -0.158404
C99   C     C_R   0.437254 0.831609 0.571090 -0.118706
C100  C     C_R   0.556815 0.164170 0.420368 -0.139616
C101  C     C_R   0.590140 0.803747 0.500263 -0.146685
C102  C     C_R   0.409978 0.196668 0.498278 -0.113270
C103  C     C_R   0.910149 0.303914 0.500532 -0.152207
C104  C     C_R   0.829245 0.419018 0.183541 -0.105639
C105  C     C_R   0.088939 0.695960 0.497778 -0.127263
C106  C     C_R   0.064416 0.329581 0.431873 -0.111460
C107  C     C_R   0.942590 0.664882 0.578849 -0.136903
C108  C     C_R   0.600404 0.191730 0.715068 -0.142145
C109  C     C_R   0.416965 0.830444 0.273982 -0.091355
C110  C     C_R   0.395012 0.193890 0.287726 -0.151821
C111  C     C_R   0.593261 0.820675 0.727016 -0.177067
C112  C     C_R   0.103766 0.692555 0.715691 -0.175511
C113  C     C_R   0.908200 0.321774 0.272848 -0.178689
C114  C     C_R   0.899358 0.691947 0.285739 -0.138874
C115  C     C_R   0.186327 0.600217 0.804106 -0.131694
C116  C     C_R   0.085528 0.328403 0.726849 -0.083638
C117  C     C_R   0.651425 0.851751 0.827898 0.098105
C118  C     C_R   0.324575 0.177535 0.196781 0.118882
C119  C     C_R   0.358222 0.861415 0.172045 0.092849
C120  C     C_R   0.669735 0.174850 0.808127 0.101150
C121  C     C_R   0.146416 0.357245 0.828768 0.093559
C122  C     C_R   0.829845 0.675400 0.193363 0.099127
C123  C     C_R   0.851202 0.353846 0.172008 0.098109
C124  C     C_R   0.173295 0.674951 0.809797 0.117103
C125  C     C_R   0.339308 0.184131 0.431286 0.055068
C126  C     C_3   0.772315 0.337799 0.960184 -0.393511
C127  C     C_R   0.660275 0.817125 0.563980 0.062140
C128  C     C_R   0.602275 0.126230 0.424742 0.064698
C129  C     C_R   0.393333 0.871207 0.568631 0.059809
C130  C     C_R   0.897260 0.626971 0.574610 0.062605
C131  C     C_R   0.109377 0.367964 0.435757 0.057640
C132  C     C_R   0.158998 0.683032 0.561214 0.054242
C133  C     C_R   0.840111 0.317295 0.437364 0.061058
C134  C     C_3   0.700422 0.306664 0.907712 -0.288163
C135  C     C_3   0.331263 0.774709 0.020389 -0.261396
C136  C     C_3   0.290103 0.255040 0.044833 -0.257317
H1    H     H_    0.720842 0.950206 0.880274 0.115257
H2    H     H_    0.085884 0.197172 0.216813 0.132762
H3    H     H_    0.224441 0.943373 0.709997 0.280250
H4    H     H_    0.137095 0.967293 0.643768 0.209375
H5    H     H_    0.214136 0.979972 0.790623 0.254777
H6    H     H_    0.103645 0.156465 0.787533 0.070857
H7    H     H_    0.172854 0.086216 0.847869 0.096132
H8    H     H_    0.154868 0.110939 0.691825 0.274264
H9    H     H_    0.075213 0.076520 0.645550 0.204149
H10   H     H_    0.084420 0.177718 0.633462 0.250718
H11   H     H_    0.700984 0.838312 0.164860 0.100282
H12   H     H_    0.776587 0.773873 0.243412 0.084415
H13   H     H_    0.207495 0.928072 0.533382 0.128370
H14   H     H_    0.717575 0.678948 0.257363 0.253180
H15   H     H_    0.728252 0.772008 0.313720 0.208439
H16   H     H_    0.642195 0.743181 0.180427 0.258226
H17   H     H_    0.786430 0.069913 0.451158 0.127549
H18   H     H_    0.290128 0.428611 0.456648 0.134453
H19   H     H_    0.714515 0.569603 0.551134 0.127925
H20   H     H_    0.585014 0.303866 0.220488 0.129164
H21   H     H_    0.414855 0.700592 0.784085 0.133410
H22   H     H_    0.274565 0.078348 0.342938 0.090997
H23   H     H_    0.724972 0.922806 0.653806 0.093624
H24   H     H_    0.678720 0.030770 0.532198 0.101607
H25   H     H_    0.261716 0.073473 0.147107 0.091073
H26   H     H_    0.320721 0.970202 0.465978 0.098684
H27   H     H_    0.821039 0.531155 0.467363 0.101058
H28   H     H_    0.181466 0.467741 0.537399 0.097798
H29   H     H_    0.224931 0.578379 0.652726 0.089922
H30   H     H_    0.775110 0.422575 0.346885 0.094563
H31   H     H_    0.465607 0.779281 0.615016 0.087382
H32   H     H_    0.520271 0.210060 0.365730 0.093139
H33   H     H_    0.564700 0.748459 0.479169 0.084718
H34   H     H_    0.436124 0.251489 0.519810 0.084179
H35   H     H_    0.935650 0.248640 0.521777 0.086334
H36   H     H_    0.284195 0.954317 0.119891 0.090950
H37   H     H_    0.062914 0.750950 0.475849 0.073710
H38   H     H_    0.036440 0.276720 0.389062 0.086506
H39   H     H_    0.978378 0.711514 0.632626 0.094728
H40   H     H_    0.574178 0.247254 0.688311 0.093034
H41   H     H_    0.446533 0.779434 0.292348 0.089162
H42   H     H_    0.419538 0.250468 0.314508 0.104753
H43   H     H_    0.572515 0.762935 0.709593 0.093206
H44   H     H_    0.079584 0.749181 0.689345 0.076074
H45   H     H_    0.928199 0.263707 0.289525 0.094030
H46   H     H_    0.926129 0.747104 0.312176 0.092205
H47   H     H_    0.737399 0.075028 0.859059 0.116836
H48   H     H_    0.054834 0.278640 0.708124 0.093256
H49   H     H_    0.648265 0.336251 0.844581 0.145312
H50   H     H_    0.382200 0.779353 0.048494 0.151336
H51   H     H_    0.338323 0.239613 0.068193 0.147022
H52   H     H_    0.624363 0.699070 0.873472 0.142222
H53   H     H_    0.156416 0.765476 0.925085 0.148790
H54   H     H_    0.877795 0.201658 0.123898 0.142409
H55   H     H_    0.851711 0.837076 0.158581 0.144482
H56   H     H_    0.123735 0.303981 0.963790 0.151542
H57   H     H_    0.781734 0.394167 0.943556 0.148761
H58   H     H_    0.219578 0.450893 0.880054 0.090589
H59   H     H_    0.319501 0.640656 0.033956 0.133696
H60   H     H_    0.294270 0.391656 0.055821 0.134225
H61   H     H_    0.758858 0.643363 0.977203 0.150190
H62   H     H_    0.219396 0.903682 0.938624 0.141821
H63   H     H_    0.745518 0.144139 0.027274 0.150363
H64   H     H_    0.716027 0.893315 0.052180 0.149048
H65   H     H_    0.170309 0.150525 0.981139 0.134740
H66   H     H_    0.802582 0.834114 0.708928 0.121859
H67   H     H_    0.196007 0.169973 0.278990 0.113347
H68   H     H_    0.305239 0.941792 0.563873 0.118715
H69   H     H_    0.762361 0.575240 0.141878 0.118020
H70   H     H_    0.690566 0.057029 0.427795 0.118900
H71   H     H_    0.197737 0.437593 0.440399 0.119380
H72   H     H_    0.809625 0.557402 0.572490 0.119072
H73   H     H_    0.697764 0.333741 0.292571 0.122018
H74   H     H_    0.302595 0.671100 0.714954 0.107649
H75   H     H_    0.636989 0.660400 0.522512 0.115739
H76   H     H_    0.364570 0.340225 0.475469 0.105185
H77   H     H_    0.466442 0.764892 0.737335 0.121856
H78   H     H_    0.531219 0.235859 0.260742 0.115135
H79   H     H_    0.037350 0.259479 0.269665 0.119568
H80   H     H_    0.781447 0.451995 0.119458 0.114505
H81   H     H_    0.968505 0.736902 0.738962 0.114396
H82   H     H_    0.863976 0.160925 0.480495 0.116464
H83   H     H_    0.130256 0.836054 0.501789 0.110127
H84   H     H_    0.380210 0.659428 0.225160 0.072194
H85   H     H_    0.300183 0.602988 0.149378 0.087257
H86   H     H_    0.306739 0.641142 0.290705 0.264585
H87   H     H_    0.384315 0.588806 0.348820 0.205167
H88   H     H_    0.388215 0.692612 0.365347 0.252549
H89   H     H_    0.793543 0.338491 0.826060 0.099792
H90   H     H_    0.718230 0.274299 0.751622 0.084497
H91   H     H_    0.237587 0.572846 0.857238 0.091013
H92   H     H_    0.773664 0.178110 0.731822 0.253937
H93   H     H_    0.761185 0.270522 0.673173 0.208772
H94   H     H_    0.848611 0.242211 0.804306 0.257264
H95   H     H_    0.756247 0.796222 0.799974 0.134850
H96   H     H_    0.715718 0.727350 0.812725 0.072495
H97   H     H_    0.834192 0.654929 0.953011 0.247661
H98   H     H_    0.794920 0.660103 0.817599 0.228222
H99   H     H_    0.868187 0.722911 0.925254 0.265781
H100  H     H_    0.196299 0.435444 0.071321 0.089730
H101  H     H_    0.290152 0.457763 0.170847 0.085904
H102  H     H_    0.915205 0.804601 0.780485 0.128834
H103  H     H_    0.300720 0.460180 0.318478 0.253154
H104  H     H_    0.232184 0.525457 0.208831 0.212838
H105  H     H_    0.207565 0.433781 0.219897 0.266376
H106  H     H_    0.750164 0.295382 0.207542 0.135987
H107  H     H_    0.789526 0.227242 0.191671 0.072015
H108  H     H_    0.670530 0.155314 0.051515 0.247847
H109  H     H_    0.711178 0.159159 0.187939 0.228138
H110  H     H_    0.637922 0.222606 0.082476 0.266503
H111  H     H_    0.147343 0.864053 0.750169 0.054546
H112  H     H_    0.149633 0.827000 0.661705 0.110870
N1    N     N_R   0.625380 0.928280 0.709340 -0.046137
N2    N     N_R   0.613900 0.929750 0.547530 -0.036461
N3    N     N_R   0.613900 0.070250 0.547530 -0.040935
N4    N     N_R   0.386100 0.929750 0.452470 -0.040333
N5    N     N_R   0.886100 0.570250 0.452470 -0.040375
N6    N     N_R   0.113900 0.429750 0.547530 -0.040453
N7    N     N_R   0.113900 0.570250 0.547530 -0.038647
N8    N     N_R   0.886100 0.429750 0.452470 -0.036715
N9    N     N_R   0.437800 0.869550 0.507970 -0.040908
N10   N     N_R   0.562200 0.130450 0.492030 -0.042940
N11   N     N_R   0.562200 0.869550 0.492030 -0.039786
N12   N     N_R   0.374620 0.071720 0.290660 -0.040259
N13   N     N_R   0.437800 0.130450 0.507970 -0.038625
N14   N     N_R   0.937800 0.369550 0.507970 -0.040143
N15   N     N_R   0.062200 0.630450 0.492030 -0.036427
N16   N     N_R   0.062200 0.369550 0.492030 -0.039857
N17   N     N_R   0.937800 0.630450 0.507970 -0.042533
N18   N     N_R   0.573690 0.128980 0.653840 -0.041682
N19   N     N_R   0.426310 0.871020 0.346160 -0.045641
N20   N     N_R   0.426310 0.128980 0.346160 -0.041636
N21   N     N_R   0.573690 0.871020 0.653840 -0.039457
N22   N     N_R   0.073690 0.628980 0.653840 -0.036085
N23   N     N_R   0.374620 0.928280 0.290660 -0.045347
N24   N     N_R   0.926310 0.371020 0.346160 -0.040254
N25   N     N_R   0.926310 0.628980 0.346160 -0.041160
N26   N     N_R   0.073690 0.371020 0.653840 -0.047412
N27   N     N_R   0.625380 0.071720 0.709340 -0.045125
N28   N     N_R   0.125380 0.428280 0.709340 -0.044058
N29   N     N_R   0.874620 0.571720 0.290660 -0.045031
N30   N     N_R   0.874620 0.428280 0.290660 -0.047000
N31   N     N_R   0.125380 0.571720 0.709340 -0.040326
N32   N     N_R   0.386100 0.070250 0.452470 -0.038954
Ni1   Ni    Ni4+2 0.616560 0.000000 0.627280 0.214682
Ni2   Ni    Ni4+2 0.383440 0.000000 0.372720 0.221940
Ni3   Ni    Ni4+2 0.116560 0.500000 0.627280 0.220315
Ni4   Ni    Ni4+2 0.883440 0.500000 0.372720 0.215212
Ni5   Ni    Ni4+2 0.497990 0.870580 0.500000 0.209256
Ni6   Ni    Ni4+2 0.502010 0.129420 0.500000 0.208316
Ni7   Ni    Ni4+2 0.997990 0.370580 0.500000 0.209025
Ni8   Ni    Ni4+2 0.002010 0.629420 0.500000 0.203101
O1    O     O_3   0.288615 0.721266 0.149074 -0.631739
O2    O     O_3   0.815543 0.237583 0.908162 -0.638321
O3    O     O_3   0.798285 0.798292 0.951653 -0.651162
O4    O     O_3   0.268020 0.347911 0.184941 -0.637986
O5    O     O_3   0.706698 0.299074 0.054983 -0.651206
O6    O     O_3   0.247986 0.826743 0.823406 -0.634030
O7    O     O_3   0.198584 0.198914 0.850437 -0.630815
O8    O     O_3   0.681204 0.736608 0.085109 -0.638295

loop_
_geom_bond_atom_site_label_1
_geom_bond_atom_site_label_2
_ccdc_geom_bond_type
C55   H18   S    
N8    N14   A    
C108  C120  A    
C113  N24   A    
C74   C83   A    
C102  C125  A    
C110  C118  A    
C20   C118  S    
C104  C123  A    
C91   C127  A    
C40   H9    S    
C29   H94   S    
C112  C124  A    
C49   N12   A    
C38   H5    S    
C6    C25   S    
C110  H42   S    
C12   O5    S    
C62   C70   A    
C2    H59   S    
C78   H71   S    
N17   Ni8   S    
C2    C22   S    
C71   N27   A    
C3    C19   S    
C115  C124  A    
N31   Ni3   S    
C95   N5    A    
C135  H50   S    
C93   N29   A    
C20   C45   S    
C5    C43   S    
C6    C44   S    
C111  H43   S    
C73   C81   A    
C99   H31   S    
C31   H98   S    
C11   C20   S    
C116  C121  A    
C99   C129  A    
C71   H47   S    
C53   C133  S    
C104  H80   S    
C46   C65   A    
C47   C64   A    
C51   C131  S    
N23   Ni2   S    
C58   C88   A    
N22   N31   A    
C21   C123  S    
C115  H91   S    
C37   C38   S    
C95   H27   S    
C56   C86   A    
C54   C70   A    
N18   N27   A    
C105  N15   A    
C106  N16   A    
C108  N18   A    
N1    Ni1   S    
C11   O4    S    
N7    N15   A    
C48   C129  S    
C104  N30   A    
C52   C77   A    
C72   H82   S    
C19   C44   S    
C54   C79   A    
C32   H100  S    
C16   C25   S    
C107  N17   A    
N24   N30   A    
C12   C134  S    
C34   H107  S    
C94   N4    A    
C54   C132  S    
C27   H87   S    
C8    C17   S    
C37   H111  S    
C63   C84   A    
C92   H24   S    
C51   C78   A    
C96   N6    A    
C11   C13   S    
C126  H57   S    
C30   C31   S    
N13   N32   A    
C101  N11   A    
C48   C67   A    
C58   C67   A    
C83   C86   A    
C5    C21   S    
C126  C134  S    
N7    Ni3   S    
C64   H76   S    
C51   C69   A    
C21   C126  S    
C50   C75   A    
C76   C85   A    
C114  N25   A    
C91   N2    A    
C78   C87   A    
C102  H34   S    
C79   H74   S    
C48   C76   A    
C33   H105  S    
C57   C66   A    
C73   H67   S    
N3    N10   A    
C1    N1    A    
C75   C84   A    
C14   C135  S    
C13   C23   S    
C60   C119  A    
C90   C125  A    
C113  H45   S    
C13   H60   S    
C6    H55   S    
C17   C135  S    
C95   C130  A    
N12   N20   A    
C49   H25   S    
C112  H44   S    
N6    N16   A    
C105  H37   S    
C103  H35   S    
C36   H109  S    
C3    C24   S    
C8    O1    S    
C57   H20   S    
C46   C127  S    
C53   C80   A    
C39   C40   S    
C15   C136  S    
C10   C24   S    
C31   H99   S    
C96   H28   S    
C30   H95   S    
C5    C9    S    
C4    C22   S    
C1    C117  A    
C20   C136  S    
C42   H15   S    
C98   H30   S    
C30   O3    S    
C96   C131  A    
N29   Ni4   S    
C44   H64   S    
C39   O7    S    
N2    Ni1   S    
N2    N11   A    
C1    H1    S    
C85   C88   A    
C16   C44   S    
C100  C128  A    
C58   H21   S    
C28   H89   S    
C2    C135  S    
C40   H10   S    
C111  C117  A    
C14   C22   S    
C68   H81   S    
C29   H93   S    
C33   H104  S    
C61   C81   A    
C41   H12   S    
C7    C23   S    
C116  H48   S    
C101  C127  A    
C18   C134  S    
C34   C36   S    
C60   N23   A    
C55   C87   A    
N27   Ni1   S    
C9    C18   S    
N19   Ni5   S    
C29   H92   S    
C3    C16   S    
C41   C42   S    
C109  N19   A    
C110  N20   A    
C23   C121  S    
N24   Ni7   S    
C31   H97   S    
C98   C133  A    
C26   C27   S    
C57   C89   A    
C16   O8    S    
C28   C29   S    
C59   C83   A    
C9    O2    S    
C34   H106  S    
C99   N9    A    
C90   N32   A    
N3    Ni1   S    
C80   C89   A    
N19   N23   A    
C38   H3    S    
C101  H33   S    
C91   H23   S    
C97   N7    A    
C4    C35   S    
C107  C130  A    
C79   C88   A    
N4    N9    A    
C47   C125  S    
C105  C132  A    
C106  C131  A    
C100  N10   A    
C36   H108  S    
N1    N21   A    
C59   H102  S    
C93   C122  A    
C47   C73   A    
C112  N22   A    
C74   H66   S    
C114  H46   S    
N25   N29   A    
C66   H78   S    
N4    Ni2   S    
N18   Ni6   S    
C113  C123  A    
C39   H6    S    
C10   C19   S    
N9    Ni5   S    
C106  H38   S    
C102  N13   A    
C63   H17   S    
C81   C87   A    
C24   H61   S    
C50   C128  S    
C111  N21   A    
C109  C119  A    
N13   Ni6   S    
C115  N31   A    
N15   Ni8   S    
C2    C8    S    
C70   H83   S    
C97   C132  A    
C6    C10   S    
C10   O3    S    
C100  H32   S    
C32   C33   S    
C18   C43   S    
C107  H39   S    
C97   H29   S    
C108  H40   S    
C103  N14   A    
C61   H2    S    
C82   H58   S    
C17   C119  S    
C109  H41   S    
C63   C72   A    
C19   C117  S    
C32   H101  S    
N25   Ni8   S    
N26   Ni7   S    
C17   C35   S    
C53   C72   A    
C80   H73   S    
C37   O6    S    
C62   H13   S    
C14   O6    S    
C36   H110  S    
C26   O1    S    
C69   H79   S    
C4    C8    S    
C93   H69   S    
C3    H52   S    
C98   N8    A    
C7    C11   S    
C15   O7    S    
C27   H88   S    
C37   H112  S    
C71   C120  A    
C7    C45   S    
N21   Ni5   S    
N32   Ni2   S    
C5    H54   S    
C12   C43   S    
C75   H70   S    
C56   C65   A    
C30   H96   S    
N11   Ni5   S    
C42   H16   S    
C25   C122  S    
C94   H26   S    
C82   C121  A    
N26   N28   A    
C52   C68   A    
N5    Ni4   S    
N6    Ni3   S    
C15   C23   S    
N14   Ni7   S    
N30   Ni4   S    
C134  H49   S    
C56   H19   S    
C42   H14   S    
C92   C128  A    
C62   C85   A    
C94   C129  A    
N8    Ni4   S    
C26   H84   S    
C60   H36   S    
C24   C25   S    
C77   H72   S    
C28   H90   S    
C14   C35   S    
N5    N17   A    
C12   C21   S    
C90   H22   S    
C82   N28   A    
C33   H103  S    
C59   C68   A    
C34   O5    S    
C49   C118  A    
C41   H11   S    
C55   C64   A    
C26   H85   S    
C116  N26   A    
C50   C66   A    
C32   O4    S    
C39   H7    S    
C77   C86   A    
C40   H8    S    
C136  H51   S    
C13   C136  S    
C67   H77   S    
C84   C89   A    
C15   C45   S    
C18   C120  S    
C46   C74   A    
C92   N3    A    
C61   C69   A    
C27   H86   S    
N20   Ni6   S    
N16   Ni7   S    
C4    H53   S    
N22   Ni8   S    
N12   Ni2   S    
C76   H68   S    
C22   C124  S    
N28   Ni3   S    
C9    C126  S    
N10   Ni6   S    
C52   C130  S    
C103  C133  A    
C28   O2    S    
C7    H56   S    
C65   H75   S    
C114  C122  A    
C41   O8    S    
C45   H65   S    
C38   H4    S    
C43   H63   S    
C35   H62   S    
