data_mof_unit_46643.cif
_audit_creation_date              2012-12-10T16:41:56-0500
_audit_creation_method            fapswitch 2.2
_symmetry_space_group_name_H-M    P1
_symmetry_Int_Tables_number       1
_space_group_crystal_system       triclinic
_cell_length_a                    10.935089
_cell_length_b                    8.686915
_cell_length_c                    7.584003
_cell_angle_alpha                 102.415965
_cell_angle_beta                  95.774947
_cell_angle_gamma                 94.599799
_cell_volume                      696.146659846

loop_
_atom_site_label
_atom_site_type_symbol
_atom_type_description
_atom_site_fract_x
_atom_site_fract_y
_atom_site_fract_z
_atom_type_partial_charge
C1    C     C_R   0.495250 0.200286 0.453849 0.864827
C2    C     C_2   0.513696 0.967907 0.570600 -0.367759
C3    C     C_R   0.265409 0.490962 0.498452 0.834334
C4    C     C_R   0.505595 0.799661 0.546045 0.870324
C5    C     C_R   0.733848 0.499863 0.499494 0.781670
C6    C     C_2   0.917178 0.407754 0.370941 0.188324
C7    C     C_2   0.866447 0.512046 0.496200 -0.071917
C8    C     C_2   0.048455 0.429815 0.349627 0.220016
C9    C     C_2   0.132640 0.464587 0.498916 -0.367035
C10   C     C_2   0.488641 0.031894 0.428791 -0.370661
Cu1   Cu    Cu3+1 0.513740 0.517380 0.684380 0.938698
Cu2   Cu    Cu3+1 0.486260 0.482620 0.315620 0.948209
H1    H     H_    0.102124 0.467148 0.631479 0.165282
H2    H     H_    0.460819 0.960176 0.292595 0.168866
H3    H     H_    0.542165 0.039166 0.706504 0.162900
N1    N     N_2   0.465540 0.456420 0.038510 -0.035179
N2    N     N_2   0.534460 0.543580 0.961490 -0.059595
O1    O     O_R   0.508930 0.286130 0.619780 -0.604626
O2    O     O_R   0.485720 0.256780 0.308360 -0.571435
O3    O     O_R   0.333540 0.514670 0.655670 -0.590522
O4    O     O_R   0.310330 0.485320 0.344250 -0.571036
O5    O     O_R   0.514280 0.743220 0.691640 -0.587500
O6    O     O_R   0.491070 0.713870 0.380220 -0.614835
O7    O     O_R   0.689670 0.514680 0.655750 -0.577268
O8    O     O_R   0.666460 0.485330 0.344330 -0.616644
N3    N     N_3   0.845157 0.273474 0.249470 -0.583582
H4    H     H_    0.786686 0.312469 0.154343 0.249277
H5    H     H_    0.792726 0.210822 0.324193 0.200531
N4    N     N_3   0.939099 0.648294 0.612146 -0.611189
H6    H     H_    0.902623 0.749912 0.585989 0.215100
H7    H     H_    0.929455 0.645188 0.747072 0.230599
N5    N     N_3   0.080362 0.406131 0.167112 -0.566545
H8    H     H_    0.137382 0.314585 0.144401 0.244137
H9    H     H_    0.125305 0.511313 0.148697 0.239921
N6    N     N_3   0.417296 0.307090 0.938951 -0.447659
H10   H     H_    0.490314 0.238911 0.912613 0.231724
H11   H     H_    0.360280 0.315779 0.823961 0.251561
C11   C     C_3   0.603260 0.690354 0.068293 -0.049598
C12   C     C_3   0.725036 0.730776 0.997963 -0.842242
H12   H     H_    0.779965 0.627544 0.981405 0.255899
H13   H     H_    0.711282 0.772265 0.870315 0.271052
H14   H     H_    0.780303 0.829948 0.099265 0.206138
H15   H     H_    0.545285 0.789579 0.070894 0.153857
H16   H     H_    0.636243 0.681085 0.204291 0.213583

loop_
_geom_bond_atom_site_label_1
_geom_bond_atom_site_label_2
_ccdc_geom_bond_type
C2    C4    S    
Cu1   Cu2   S    
Cu1   O1    S    
C11   H16   S    
C6    C7    D    
C7    N4    S    
C4    O5    A    
Cu1   O5    S    
N3    H5    S    
N6    H10   S    
Cu2   O8    S    
N5    H8    S    
C1    O1    A    
C11   H15   S    
C12   H13   S    
C6    N3    S    
C2    H3    S    
Cu2   O6    S    
N3    H4    S    
N4    H6    S    
C5    O7    A    
C3    C9    S    
Cu2   O2    S    
N6    H11   S    
C12   H14   S    
N2    C11   S    
N1    N6    S    
C11   C12   S    
C5    O8    A    
Cu1   O3    S    
C1    O2    A    
C3    O4    A    
C8    N5    S    
Cu1   O7    S    
C3    O3    A    
N4    H7    S    
C10   H2    S    
C12   H12   S    
C5    C7    S    
C4    O6    A    
C9    H1    S    
Cu1   N2    S    
C6    C8    S    
Cu2   O4    S    
C2    C10   D    
C1    C10   S    
Cu2   N1    S    
N1    N2    D    
C8    C9    D    
N5    H9    S    
