data_mof_unit_67983.cif
_audit_creation_date              2013-03-05T16:49:26-0500
_audit_creation_method            fapswitch 2.2
_symmetry_space_group_name_H-M    P1
_symmetry_Int_Tables_number       1
_space_group_crystal_system       triclinic
_cell_length_a                    11.075034
_cell_length_b                    9.134222
_cell_length_c                    8.378604
_cell_angle_alpha                 89.26803
_cell_angle_beta                  90.610808
_cell_angle_gamma                 88.909794
_cell_volume                      847.321838888

loop_
_atom_site_label
_atom_site_type_symbol
_atom_site_description
_atom_site_fract_x
_atom_site_fract_y
_atom_site_fract_z
_atom_type_partial_charge
O1    O     O_R   0.499990 0.285340 0.636850 -0.606029
O2    O     O_R   0.500010 0.714660 0.363150 -0.611122
O3    O     O_R   0.500010 0.285350 0.363100 -0.652450
O4    O     O_R   0.499990 0.714650 0.636900 -0.653915
C1    C     C_R   0.500042 0.218726 0.500581 0.919986
C2    C     C_R   0.500029 0.781269 0.499331 0.912397
O5    O     O_R   0.316750 0.500000 0.636870 -0.635682
O6    O     O_R   0.683250 0.500000 0.363130 -0.639995
O7    O     O_R   0.316770 0.500020 0.363120 -0.626067
O8    O     O_R   0.683230 0.499980 0.636880 -0.621819
C3    C     C_R   0.260001 0.506194 0.499341 0.842206
C4    C     C_R   0.740020 0.495451 0.500696 0.851001
Zn1   Zn    Zn3+2 0.499990 0.499990 0.682780 0.949129
Zn2   Zn    Zn3+2 0.500010 0.500010 0.317220 0.943163
H1    H     H_    0.322737 0.633140 0.859360 0.233533
H2    H     H_    0.681991 0.369985 0.144824 0.224697
C5    C     C_R   0.227658 0.732665 0.045190 0.158189
C6    C     C_R   0.789069 0.277135 0.970877 0.147295
C7    C     C_R   0.158292 0.710176 0.181263 0.165359
C8    C     C_R   0.859050 0.299424 0.835509 0.204260
C9    C     C_R   0.112644 0.568539 0.209930 -0.026323
C10   C     C_R   0.887741 0.444529 0.792748 -0.051867
C11   C     C_R   0.141368 0.450305 0.111593 0.170554
C12   C     C_R   0.843985 0.565990 0.878049 0.185742
C13   C     C_R   0.227723 0.469623 0.994030 0.149543
C14   C     C_R   0.765701 0.542203 0.004594 0.188543
C15   C     C_R   0.262635 0.612495 0.955116 -0.254788
C16   C     C_R   0.742428 0.396844 0.051256 -0.275570
C17   C     C_R   0.933642 0.517317 0.360494 -0.262093
C18   C     C_R   0.065801 0.491610 0.639734 -0.306269
H3    H     H_    0.886187 0.529187 0.250854 0.166178
H4    H     H_    0.112717 0.487474 0.749669 0.175582
C19   C     C_R   0.873181 0.491611 0.501201 -0.110585
C20   C     C_R   0.126723 0.512504 0.498792 -0.098463
C21   C     C_R   0.942550 0.472947 0.640838 0.098528
C22   C     C_R   0.057416 0.533257 0.359575 0.149578
C23   C     C_1   0.500114 0.064999 0.500681 -0.204696
C24   C     C_1   0.500157 0.935002 0.498868 -0.225337
N1    N     N_1   0.500020 0.500030 0.073640 -0.051415
N2    N     N_1   0.499980 0.499970 0.926360 -0.047916
N3    N     N_2   0.267585 0.875525 0.005054 -0.307706
H5    H     H_    0.330987 0.914924 0.083691 0.223774
C25   C     C_3   0.286754 0.912415 0.837982 -0.829601
H6    H     H_    0.256726 0.026503 0.812766 0.252761
H7    H     H_    0.233413 0.842944 0.756492 0.242964
H8    H     H_    0.384211 0.901944 0.810731 0.262497
N4    N     N_2   0.757811 0.134428 0.022347 -0.327968
H9    H     H_    0.665797 0.124028 0.035389 0.228231
C26   C     C_3   0.822983 0.085283 0.164237 -0.812826
H10   H     H_    0.790914 0.976243 0.202341 0.237533
H11   H     H_    0.808399 0.162301 0.264222 0.256171
H12   H     H_    0.920656 0.075685 0.138415 0.277000
N5    N     N_2   0.142154 0.828270 0.289907 -0.308315
H13   H     H_    0.219006 0.865018 0.346028 0.219886
C27   C     C_3   0.028858 0.851840 0.371370 -0.841679
H14   H     H_    0.011071 0.970268 0.383926 0.250099
H15   H     H_    0.033770 0.802560 0.493012 0.247556
H16   H     H_    0.952062 0.807255 0.303255 0.241469
N6    N     N_2   0.882563 0.181230 0.729331 -0.294600
H17   H     H_    0.820232 0.098818 0.733220 0.244849
C28   C     C_3   0.005749 0.126133 0.725188 -0.868332
H18   H     H_    0.010221 0.027293 0.650607 0.251178
H19   H     H_    0.038254 0.094060 0.846113 0.250238
H20   H     H_    0.066177 0.207526 0.671930 0.254985
N7    N     N_2   0.084235 0.312968 0.133140 -0.300653
H21   H     H_    0.071282 0.255957 0.029935 0.231261
C29   C     C_3   0.123591 0.222160 0.267648 -0.803118
H22   H     H_    0.052402 0.222407 0.359662 0.263157
H23   H     H_    0.209384 0.259418 0.321023 0.253156
H24   H     H_    0.139098 0.108489 0.227854 0.248491
N8    N     N_2   0.861092 0.711572 0.820199 -0.304794
H25   H     H_    0.863555 0.729527 0.698673 0.229633
C30   C     C_3   0.943959 0.798229 0.909991 -0.810380
H26   H     H_    0.033086 0.796770 0.851372 0.257226
H27   H     H_    0.952514 0.758035 0.034396 0.249373
H28   H     H_    0.908247 0.911426 0.913518 0.280895
N9    N     N_2   0.278913 0.347594 0.912602 -0.264078
H29   H     H_    0.222425 0.299335 0.831474 0.213883
C31   C     C_3   0.343777 0.240445 0.010699 -0.738200
H30   H     H_    0.283617 0.150687 0.041197 0.236150
H31   H     H_    0.374214 0.286799 0.124663 0.278124
H32   H     H_    0.422795 0.196738 0.944974 0.244994
N10   N     N_2   0.711297 0.662342 0.087297 -0.259157
H33   H     H_    0.764424 0.708399 0.173955 0.213774
C32   C     C_3   0.642134 0.770506 0.994836 -0.693291
H34   H     H_    0.694911 0.870337 0.977502 0.240612
H35   H     H_    0.557861 0.799496 0.058429 0.236738
H36   H     H_    0.619119 0.729686 0.875353 0.272978

loop_
_geom_bond_atom_site_label_1
_geom_bond_atom_site_label_2
_geom_bond_distance
_ccdc_geom_bond_type
H2    C16   1.065526 S    
C27   H14   1.102404 S    
C14   N10   1.431990 S    
C1    C23   1.404150 S    
C30   H27   1.103196 S    
N3    H5    1.030767 S    
O7    Zn2   2.069530 S    
C6    N4    1.418088 S    
N4    C26   1.446221 S    
C9    C22   1.436518 S    
N5    H13   1.031790 S    
O5    C3    1.306728 A    
C10   C21   1.438707 S    
C17   C22   1.381351 A    
C18   C21   1.378937 A    
C13   N9    1.425806 S    
C10   C12   1.408438 A    
C7    C9    1.416533 A    
C12   C14   1.394262 A    
C17   C19   1.381712 A    
C30   H26   1.107130 S    
O4    Zn1   1.993254 S    
C28   H19   1.105705 S    
Zn1   N2    2.040859 S    
C5    C7    1.396750 A    
Zn2   N1    2.040859 S    
N10   H33   1.028830 S    
N7    C29   1.449128 S    
C2    C24   1.404213 S    
C20   C22   1.398368 A    
N9    H29   1.028023 S    
C7    N5    1.430164 S    
N9    C31   1.445552 S    
N6    H17   1.031449 S    
N3    C25   1.454351 S    
O2    C2    1.299930 A    
N5    C27   1.448566 S    
N6    C28   1.446065 S    
C18   C20   1.379240 A    
C32   H35   1.109020 S    
C29   H22   1.108561 S    
C5    C15   1.391295 A    
C6    C16   1.385907 A    
O4    C2    1.296515 A    
N1    N2    1.234002 T    
C31   H31   1.101617 S    
C26   H11   1.111945 S    
C32   H34   1.101349 S    
C29   H23   1.107144 S    
C28   H20   1.102983 S    
C25   H6    1.104947 S    
C23   C24   1.187706 T    
C25   H7    1.111113 S    
H1    C15   1.065174 S    
N4    H9    1.032101 S    
O6    C4    1.306854 A    
C26   H12   1.107476 S    
C8    N6    1.429538 S    
O7    C3    1.310240 A    
O3    Zn2   1.993253 S    
O8    C4    1.309494 A    
N10   C32   1.449827 S    
C8    C10   1.411526 A    
N7    H21   1.025273 S    
C27   H15   1.109279 S    
C30   H28   1.100846 S    
O1    C1    1.300599 A    
O1    Zn1   2.002888 S    
N8    C30   1.436307 S    
C32   H36   1.101781 S    
O6    Zn2   2.061488 S    
C3    C20   1.476044 S    
O3    C1    1.295875 A    
O8    Zn1   2.069530 S    
C31   H32   1.109534 S    
C13   C15   1.403537 A    
C14   C16   1.408579 A    
C29   H24   1.105441 S    
C11   N7    1.426015 S    
C9    C11   1.400589 A    
N8    H25   1.029997 S    
C17   H3    1.056813 S    
C18   H4    1.052616 S    
C19   C21   1.399597 A    
C6    C8    1.395481 A    
C11   C13   1.392166 A    
C28   H18   1.105173 S    
O2    Zn2   2.002889 S    
C25   H8    1.108222 S    
C5    N3    1.423148 S    
C31   H30   1.095654 S    
O5    Zn1   2.061488 S    
C26   H10   1.108069 S    
C27   H16   1.106218 S    
C4    C19   1.474464 S    
C12   N8    1.426254 S    
