data_mof_unit_37806.cif
_audit_creation_date              2012-12-11T14:29:45-0500
_audit_creation_method            fapswitch 2.2
_symmetry_space_group_name_H-M    P1
_symmetry_Int_Tables_number       1
_space_group_crystal_system       triclinic
_cell_length_a                    6.940008
_cell_length_b                    14.742108
_cell_length_c                    16.247434
_cell_angle_alpha                 90.517708
_cell_angle_beta                  89.917269
_cell_angle_gamma                 90.051986
_cell_volume                      1662.21036311

loop_
_atom_site_label
_atom_site_type_symbol
_atom_type_description
_atom_site_fract_x
_atom_site_fract_y
_atom_site_fract_z
_atom_type_partial_charge
O1    O     O_R   0.494400 0.416610 0.413880 -0.537667
O2    O     O_R   0.823920 0.406790 0.585520 -0.543015
O3    O     O_R   0.994250 0.583390 0.586120 -0.538504
C1    C     C_R   0.654570 0.385134 0.613585 0.732934
O4    O     O_R   0.824110 0.405730 0.414490 -0.542565
O5    O     O_R   0.994440 0.582310 0.413870 -0.549091
C2    C     C_R   0.654907 0.383747 0.386288 0.763953
O6    O     O_R   0.494210 0.417690 0.586130 -0.549597
O7    O     O_3   0.660810 0.557940 0.500000 -0.365931
V1    V     V_3+5 0.935650 0.489250 0.500000 1.426171
O8    O     O_R   0.324160 0.593210 0.414480 -0.517065
C3    C     C_R   0.156263 0.612239 0.384397 0.708113
O9    O     O_R   0.323970 0.594270 0.585510 -0.541145
C4    C     C_R   0.155090 0.616153 0.613910 0.686943
V2    V     V_3+5 0.435660 0.510750 0.500000 1.458284
O10   O     O_3   0.160630 0.442060 0.500000 -0.378527
H1    H     H_    0.834811 0.893418 0.519905 0.114114
C5    C     C_R   0.310672 0.578437 0.775579 -0.142866
C6    C     C_R   0.385531 0.557724 0.852647 -0.128323
C7    C     C_R   0.372822 0.620246 0.916882 -0.102008
C8    C     C_R   0.285349 0.704021 0.904536 -0.125507
C9    C     C_R   0.210290 0.727683 0.826625 0.063294
C10   C     C_R   0.223050 0.663450 0.760695 0.070785
C11   C     C_R   0.119745 0.812794 0.814364 -0.184344
C12   C     C_R   0.041683 0.833448 0.736012 0.069262
C13   C     C_R   0.054333 0.769194 0.670091 0.070351
C14   C     C_R   0.144928 0.684079 0.682339 -0.183089
C15   C     C_R   0.954212 0.918504 0.721134 -0.142892
C16   C     C_R   0.879301 0.939230 0.644084 -0.124855
C17   C     C_R   0.891749 0.876662 0.579872 -0.121752
C18   C     C_R   0.979124 0.792852 0.592206 -0.131090
H2    H     H_    0.321115 0.526578 0.728314 0.110371
H3    H     H_    0.452330 0.492427 0.862727 0.121406
H4    H     H_    0.429654 0.603488 0.976869 0.144201
H5    H     H_    0.275822 0.749344 0.957081 0.120246
H6    H     H_    0.943932 0.970391 0.768387 0.110088
H7    H     H_    0.812652 0.004568 0.634008 0.118759
H8    H     H_    0.988466 0.747502 0.539672 0.103015
C19   C     C_2   0.996132 0.715510 0.286604 -0.173640
C20   C     C_2   0.154293 0.667992 0.309034 0.115608
H9    H     H_    0.867200 0.711204 0.324361 0.139231
C21   C     C_2   0.979833 0.771771 0.211222 -0.079039
C22   C     C_2   0.123763 0.824806 0.184107 -0.279692
H10   H     H_    0.840408 0.774170 0.181059 0.162591
H11   H     H_    0.258218 0.827943 0.217900 0.176962
C23   C     C_2   0.779300 0.207782 0.780993 -0.137649
C24   C     C_2   0.614310 0.179532 0.816604 -0.309499
H12   H     H_    0.915397 0.179719 0.801628 0.135062
H13   H     H_    0.476322 0.205990 0.797329 0.127748
C25   C     C_2   0.791103 0.276184 0.713978 -0.132745
C26   C     C_2   0.637976 0.317744 0.680090 -0.310549
H14   H     H_    0.934652 0.292480 0.691840 0.134357
H15   H     H_    0.493175 0.302798 0.700763 0.126702
C27   C     C_2   0.779164 0.209107 0.213819 -0.126597
C28   C     C_2   0.614021 0.181889 0.177372 -0.305618
H16   H     H_    0.914983 0.180472 0.192872 0.136499
H17   H     H_    0.476509 0.209832 0.196168 0.129685
C29   C     C_2   0.791687 0.277595 0.281757 -0.129005
C30   C     C_2   0.638346 0.315552 0.319463 -0.294615
H18   H     H_    0.935648 0.296704 0.301549 0.136553
H19   H     H_    0.493242 0.297131 0.301548 0.129687
O11   O     O_R   0.770210 0.079270 0.910680 -0.542399
O12   O     O_R   0.440150 0.091160 0.082270 -0.546497
O13   O     O_R   0.269970 0.914530 0.082860 -0.538494
C31   C     C_R   0.608787 0.113266 0.110482 0.743001
O14   O     O_R   0.440480 0.090100 0.911240 -0.545661
O15   O     O_R   0.270310 0.913460 0.910610 -0.537535
C32   C     C_R   0.609267 0.111706 0.883099 0.743408
O16   O     O_R   0.769870 0.080340 0.082930 -0.539695
O17   O     O_3   0.603660 0.938980 0.996790 -0.366507
V3    V     V_3+5 0.328750 0.007610 0.996740 1.416030
O18   O     O_R   0.940600 0.902510 0.911180 -0.538480
C33   C     C_R   0.109510 0.880690 0.882792 0.694166
O19   O     O_R   0.940270 0.903570 0.082200 -0.540991
C34   C     C_R   0.109002 0.883890 0.111615 0.730624
V4    V     V_3+5 0.828770 0.986010 0.996670 1.429768
O20   O     O_3   0.103730 0.054750 0.996710 -0.376223
Br1   Br    Br    0.378143 0.655165 0.238918 -0.599004

loop_
_geom_bond_atom_site_label_1
_geom_bond_atom_site_label_2
_ccdc_geom_bond_type
O14   C32   A    
O12   C31   A    
C6    C7    A    
O18   V4    S    
C19   H9    S    
C12   C15   A    
C13   C14   A    
O19   V4    S    
C9    C11   A    
C15   C16   A    
O5    C3    A    
C17   C18   A    
C11   C33   S    
C29   H18   S    
V2    O10   S    
O16   V4    S    
C5    C6    A    
O13   V3    S    
C23   C24   D    
O8    V2    S    
C25   H14   S    
O17   V3    S    
O15   C33   A    
C10   C14   A    
C4    C14   S    
O7    V1    S    
C1    O6    A    
C7    H4    S    
C13   C18   A    
O9    C4    A    
H1    C17   S    
O11   V4    S    
C21   H10   S    
C2    C30   S    
C28   C31   S    
C19   C21   S    
C23   H12   S    
C22   C34   S    
C27   H16   S    
C30   H19   S    
O19   C34   A    
C1    C26   S    
C5    C10   A    
V4    O20   S    
C24   H13   S    
C6    H3    S    
C19   C20   D    
O4    C2    A    
C12   C13   A    
C26   H15   S    
C3    C20   S    
O2    C1    A    
C16   C17   A    
O14   V3    S    
C25   C26   D    
C11   C12   A    
C22   H11   S    
O3    C4    A    
O1    V2    S    
O12   V3    S    
O6    V2    S    
C28   H17   S    
O17   V4    S    
C20   Br1   S    
C5    H2    S    
C21   C22   D    
O2    V1    S    
C24   C32   S    
V3    O20   S    
C27   C29   S    
C27   C28   D    
O1    C2    A    
O18   C33   A    
O5    V1    S    
O8    C3    A    
C8    H5    S    
C23   C25   S    
C18   H8    S    
O11   C32   A    
O9    V2    S    
C29   C30   D    
O4    V1    S    
O3    V1    S    
V1    O10   S    
C31   O16   A    
O13   C34   A    
O15   V3    S    
O7    V2    S    
C7    C8    A    
C15   H6    S    
C16   H7    S    
C9    C10   A    
C8    C9    A    
