data_mof_unit_12228.cif
_audit_creation_date              2012-12-10T17:44:35-0500
_audit_creation_method            fapswitch 2.2
_symmetry_space_group_name_H-M    P1
_symmetry_Int_Tables_number       1
_space_group_crystal_system       triclinic
_cell_length_a                    9.917217
_cell_length_b                    10.672725
_cell_length_c                    15.442704
_cell_angle_alpha                 91.336043
_cell_angle_beta                  67.867015
_cell_angle_gamma                 89.493591
_cell_volume                      1513.38346101

loop_
_atom_site_label
_atom_site_type_symbol
_atom_type_description
_atom_site_fract_x
_atom_site_fract_y
_atom_site_fract_z
_atom_type_partial_charge
C1    C     C_R   0.501378 0.740598 0.495018 0.877016
C2    C     C_R   0.743822 0.526097 0.028813 0.169240
C3    C     C_R   0.598594 0.563328 0.084820 0.093355
C4    C     C_R   0.408964 0.502391 0.676079 0.870162
C5    C     C_R   0.841584 0.491675 0.070656 -0.206258
C6    C     C_R   0.794232 0.486499 0.167575 -0.193605
C7    C     C_R   0.554417 0.558610 0.181852 -0.213878
C8    C     C_R   0.252029 0.895754 0.482888 -0.155461
C9    C     C_R   0.116457 0.956576 0.514871 -0.148278
C10   C     C_R   0.092875 0.063765 0.571844 -0.101872
C11   C     C_R   0.209461 0.118975 0.587389 0.080060
C12   C     C_R   0.429551 0.564586 0.907692 0.097197
C13   C     C_R   0.352199 0.065930 0.543628 0.072364
C14   C     C_R   0.367350 0.943701 0.506152 0.106625
C15   C     C_R   0.497248 0.875664 0.494812 -0.108972
C16   C     C_R   0.492788 0.261958 0.512766 0.899842
C17   C     C_R   0.617701 0.937101 0.500513 -0.216016
C18   C     C_R   0.611996 0.064230 0.515052 -0.204034
C19   C     C_R   0.482106 0.130065 0.531394 -0.142520
C20   C     C_R   0.788365 0.664967 0.622963 -0.201574
C21   C     C_R   0.822556 0.744341 0.684139 -0.275199
C22   C     C_R   0.962214 0.743107 0.685489 -0.019610
C23   C     C_R   0.289367 0.615969 0.959794 0.166053
C24   C     C_R   0.067097 0.660320 0.624520 -0.226690
C25   C     C_R   0.035919 0.579076 0.561647 0.106215
C26   C     C_R   0.891874 0.580221 0.561087 0.181244
C27   C     C_R   0.962825 0.424907 0.440742 -0.179732
C28   C     C_R   0.591241 0.502528 0.324097 0.882714
C29   C     C_R   0.106129 0.424982 0.439918 0.004847
C30   C     C_R   0.355107 0.524992 0.777050 -0.048045
C31   C     C_R   0.648964 0.516126 0.222983 -0.063791
C32   C     C_R   0.184469 0.623357 0.919119 -0.215625
C33   C     C_R   0.218036 0.579506 0.827322 -0.148286
C34   C     C_R   0.538612 0.563760 0.945977 0.069126
C35   C     C_R   0.455425 0.511369 0.819586 -0.262276
C36   C     C_1   0.175560 0.217137 0.658675 0.167930
C37   C     C_2   0.000340 0.830454 0.748665 0.897180
C38   C     C_2   0.214949 0.343474 0.369694 0.965087
C39   C     C_R   0.498251 0.592325 0.042354 0.076539
C40   C     C_R   0.358016 0.645302 0.092975 -0.188821
C41   C     C_R   0.256370 0.658933 0.051465 -0.225078
C42   C     C_R   0.686587 0.535583 0.890954 -0.207349
C43   C     C_R   0.787902 0.519019 0.931967 -0.217529
H1    H     H_    0.150305 0.700146 0.092086 0.152862
H2    H     H_    0.739142 0.808034 0.729968 0.198936
H3    H     H_    0.443639 0.580759 0.226932 0.177665
H4    H     H_    0.172683 0.662193 0.626955 0.241404
H5    H     H_    0.869370 0.455280 0.198828 0.165766
H6    H     H_    0.899343 0.494143 0.887998 0.153421
H7    H     H_    0.078144 0.665560 0.957447 0.152771
H8    H     H_    0.139301 0.591552 0.794996 0.162941
H9    H     H_    0.555276 0.459787 0.781750 0.161850
H10   H     H_    0.325211 0.680386 0.164147 0.144203
H11   H     H_    0.727392 0.527456 0.815617 0.161123
H12   H     H_    0.952598 0.463278 0.028410 0.154707
H13   H     H_    0.157516 0.904057 0.786593 0.348936
H14   H     H_    0.319381 0.175706 0.338504 0.337102
H15   H     H_    0.718264 0.887645 0.491434 0.171076
H16   H     H_    0.265226 0.813505 0.438190 0.162539
H17   H     H_    0.027842 0.917150 0.499057 0.141088
H18   H     H_    0.983958 0.104103 0.603308 0.132485
H19   H     H_    0.711082 0.111107 0.509990 0.173797
H20   H     H_    0.936395 0.364118 0.392467 0.150806
H21   H     H_    0.679900 0.674523 0.625968 0.222810
N1    N     N_R   0.856800 0.501200 0.500850 -0.118899
N2    N     N_R   0.142390 0.501280 0.500880 -0.160450
N3    N     N_1   0.146095 0.294335 0.716996 -0.208066
O1    O     O_R   0.385310 0.683220 0.500000 -0.648178
O2    O     O_R   0.145311 0.840969 0.740110 -0.833816
O3    O     O_2   0.271263 0.377534 0.289120 -0.650908
O4    O     O_R   0.244596 0.223768 0.393204 -0.802352
O5    O     O_R   0.614640 0.683250 0.500010 -0.637631
O6    O     O_R   0.319840 0.499980 0.632240 -0.626586
O7    O     O_R   0.549160 0.500000 0.632250 -0.638609
O8    O     O_R   0.385360 0.316750 0.499990 -0.583334
O9    O     O_R   0.614690 0.316780 0.500000 -0.619469
O10   O     O_R   0.450840 0.500000 0.367750 -0.604170
O11   O     O_R   0.680160 0.500020 0.367760 -0.613281
O12   O     O_2   0.905535 0.894426 0.807781 -0.625951
Zn1   Zn    Zn3+2 0.346880 0.499980 0.499990 0.958477
Zn2   Zn    Zn3+2 0.653120 0.500020 0.500010 0.932637

loop_
_geom_bond_atom_site_label_1
_geom_bond_atom_site_label_2
_ccdc_geom_bond_type
O1    Zn1   S    
C38   O3    D    
C37   O2    S    
C27   C29   A    
C16   O8    A    
C34   C42   A    
C36   N3    T    
C37   O12   D    
C12   C23   A    
C6    H5    S    
C30   C35   A    
C11   C36   S    
C3    C7    A    
C8    H16   S    
C5    C6    A    
C1    O1    A    
C18   C19   A    
C8    C9    A    
C29   C38   S    
C1    C15   S    
C28   O11   A    
C9    C10   A    
C4    O7    A    
O5    Zn2   S    
C17   H15   S    
C6    C31   A    
C3    C39   A    
C13   C14   A    
C24   H4    S    
C21   H2    S    
C1    O5    A    
C7    C31   A    
C13   C19   A    
C34   C39   A    
C7    H3    S    
C24   C25   A    
C39   C40   A    
C43   H6    S    
C25   C26   A    
C22   C37   S    
C32   C33   A    
C20   H21   S    
C27   N1    A    
N1    Zn2   S    
C2    C43   A    
C17   C18   A    
H14   O4    S    
C12   C35   A    
C28   O10   A    
C32   H7    S    
C4    O6    A    
C27   H20   S    
C40   C41   A    
H13   O2    S    
C41   H1    S    
C22   C24   A    
C2    C5    A    
C42   C43   A    
O7    Zn2   S    
C12   C34   A    
O8    Zn1   S    
O10   Zn1   S    
C15   C17   A    
C38   O4    S    
C8    C14   A    
C30   C33   A    
C16   O9    A    
C26   N1    A    
C5    H12   S    
C28   C31   S    
C18   H19   S    
C25   N2    A    
O9    Zn2   S    
C33   H8    S    
N2    Zn1   S    
C23   C41   A    
C9    H17   S    
C23   C32   A    
C2    C3    A    
C42   H11   S    
C11   C13   A    
O11   Zn2   S    
C20   C26   A    
C16   C19   S    
O6    Zn1   S    
C10   C11   A    
C29   N2    A    
C10   H18   S    
C20   C21   A    
C40   H10   S    
C35   H9    S    
C14   C15   A    
C21   C22   A    
C4    C30   S    
