data_mof_unit_19880.cif
_audit_creation_date              2012-12-11T15:52:28-0500
_audit_creation_method            fapswitch 2.2
_symmetry_space_group_name_H-M    P1
_symmetry_Int_Tables_number       1
_space_group_crystal_system       triclinic
_cell_length_a                    6.924892
_cell_length_b                    14.548943
_cell_length_c                    16.033823
_cell_angle_alpha                 90.240385
_cell_angle_beta                  89.951892
_cell_angle_gamma                 89.938041
_cell_volume                      1615.38966877

loop_
_atom_site_label
_atom_site_type_symbol
_atom_type_description
_atom_site_fract_x
_atom_site_fract_y
_atom_site_fract_z
_atom_type_partial_charge
O1    O     O_R   0.494400 0.415640 0.412830 -0.547888
O2    O     O_R   0.823920 0.405510 0.586560 -0.517293
O3    O     O_R   0.994250 0.584360 0.587170 -0.548076
C1    C     C_R   0.654730 0.383770 0.615980 0.720625
O4    O     O_R   0.824110 0.404610 0.413450 -0.504602
O5    O     O_R   0.994440 0.583460 0.412820 -0.545574
C2    C     C_R   0.655503 0.381454 0.384802 0.725327
O6    O     O_R   0.494210 0.416540 0.587180 -0.553039
O7    O     O_3   0.660810 0.558680 0.500000 -0.372214
V1    V     V_3+5 0.935650 0.489110 0.500000 1.485854
O8    O     O_R   0.324150 0.594490 0.413440 -0.544223
C3    C     C_R   0.155086 0.616670 0.384356 0.680675
O9    O     O_R   0.323970 0.595390 0.586550 -0.524770
C4    C     C_R   0.155132 0.618193 0.615163 0.677829
V2    V     V_3+5 0.435660 0.510890 0.500000 1.441547
O10   O     O_3   0.160630 0.441320 0.500000 -0.353977
C5    C     C_3   0.056279 0.644403 0.764974 -0.397173
H1    H     H_    0.910152 0.616671 0.750782 0.159615
H2    H     H_    0.146843 0.585424 0.785385 0.137617
C6    C     C_3   0.040263 0.715805 0.837155 -0.329050
H3    H     H_    0.119361 0.689959 0.892712 0.129600
H4    H     H_    0.886014 0.723760 0.855381 0.151391
H5    H     H_    0.865107 0.746742 0.649575 0.190962
H6    H     H_    0.856140 0.857822 0.750570 0.156550
C7    C     C_3   0.014571 0.771394 0.661734 -0.322848
C8    C     C_3   0.350725 0.725050 0.709970 0.237474
C9    C     C_3   0.145392 0.688607 0.685594 0.053512
H7    H     H_    0.438314 0.665603 0.731825 0.098263
C10   C     C_3   0.123745 0.810222 0.810471 0.075517
C11   C     C_3   0.009077 0.843999 0.733124 -0.339125
C12   C     C_3   0.337379 0.794946 0.783120 -0.354660
H8    H     H_    0.422963 0.768539 0.836708 0.121320
H9    H     H_    0.403330 0.861730 0.765071 0.144248
H10   H     H_    0.065165 0.803656 0.602959 0.125673
H11   H     H_    0.071345 0.909822 0.710496 0.122052
C13   C     C_R   0.953193 0.773823 0.215966 -0.157174
H12   H     H_    0.812319 0.792121 0.191911 0.116151
C14   C     C_R   0.964228 0.710677 0.281542 -0.150734
H13   H     H_    0.831309 0.682138 0.305785 0.117083
C15   C     C_R   0.143952 0.684661 0.315169 -0.046325
C16   C     C_R   0.312320 0.723621 0.281295 -0.154121
H14   H     H_    0.453193 0.705327 0.305355 0.116705
C17   C     C_R   0.301285 0.786768 0.215721 -0.152832
H15   H     H_    0.434203 0.815313 0.191482 0.118567
C18   C     C_R   0.121564 0.812763 0.182076 -0.048585
C19   C     C_R   0.784605 0.244983 0.691998 0.181240
C20   C     C_R   0.773610 0.180661 0.756898 -0.207593
H16   H     H_    0.882964 0.127515 0.761103 0.123748
C21   C     C_R   0.621318 0.182833 0.814425 -0.129942
C22   C     C_R   0.480494 0.251425 0.807431 -0.135400
H17   H     H_    0.363495 0.254862 0.852290 0.144842
C23   C     C_R   0.490561 0.317833 0.744607 0.150925
C24   C     C_R   0.643063 0.315013 0.684829 -0.096530
C25   C     C_R   0.808417 0.257259 0.294060 0.363478
C26   C     C_R   0.794384 0.194120 0.227257 -0.241960
H18   H     H_    0.919188 0.152872 0.210817 0.116542
C27   C     C_R   0.621294 0.182786 0.182678 -0.074773
C28   C     C_R   0.460456 0.235848 0.205911 -0.170341
H19   H     H_    0.324731 0.228828 0.172986 0.132069
C29   C     C_R   0.473200 0.299687 0.271262 -0.228706
H20   H     H_    0.346831 0.340438 0.286252 0.163454
C30   C     C_R   0.646332 0.311758 0.316075 -0.077809
O11   O     O_R   0.771300 0.080930 0.910090 -0.536919
O12   O     O_R   0.441270 0.092800 0.083770 -0.544616
O13   O     O_R   0.271080 0.913920 0.084380 -0.540447
C31   C     C_R   0.610092 0.114988 0.113015 0.707763
O14   O     O_R   0.441580 0.091910 0.910670 -0.544817
O15   O     O_R   0.271390 0.913020 0.910040 -0.541113
C32   C     C_R   0.610561 0.114028 0.882024 0.711155
O16   O     O_R   0.770990 0.081830 0.084440 -0.539212
O17   O     O_3   0.604750 0.938760 0.997250 -0.372055
V3    V     V_3+5 0.329850 0.008280 0.997210 1.394985
O18   O     O_R   0.941680 0.901940 0.910610 -0.544965
C33   C     C_R   0.111043 0.879831 0.881466 0.670529
O19   O     O_R   0.941370 0.902830 0.083720 -0.543991
C34   C     C_R   0.110431 0.880711 0.112851 0.684527
V4    V     V_3+5 0.829860 0.986420 0.997150 1.393370
O20   O     O_3   0.104830 0.056030 0.997180 -0.365586
N1    N     N_3   0.937515 0.236986 0.632112 -0.644221
H21   H     H_    0.927213 0.172361 0.603698 0.222166
H22   H     H_    0.068924 0.239548 0.664088 0.228896
N2    N     N_3   0.347400 0.389138 0.745681 -0.683074
H23   H     H_    0.416219 0.453059 0.744512 0.211222
H24   H     H_    0.258536 0.382243 0.693448 0.251719
O21   O     O_3   0.977851 0.265248 0.338956 -0.641860
H25   H     H_    0.074097 0.220848 0.316915 0.277824
O22   O     O_3   0.449336 0.762854 0.641255 -0.651383
H26   H     H_    0.386686 0.821876 0.626480 0.286982

loop_
_geom_bond_atom_site_label_1
_geom_bond_atom_site_label_2
_ccdc_geom_bond_type
O22   H26   S    
C1    C24   S    
O18   C33   A    
C27   C31   S    
C1    O6    A    
C20   C21   A    
C31   O16   A    
V4    O20   S    
C8    C9    S    
O13   C34   A    
C11   H11   S    
C18   C34   S    
C13   H12   S    
O5    C3    A    
C14   H13   S    
C28   C29   A    
V2    O10   S    
C5    C6    S    
C29   C30   A    
O14   V3    S    
C16   H14   S    
V3    O20   S    
C25   C26   A    
O8    V2    S    
C12   H8    S    
C8    O22   S    
C22   C23   A    
C12   H9    S    
O1    V2    S    
C4    C9    S    
O7    V1    S    
C7    H10   S    
H5    C7    S    
C8    C12   S    
C21   C32   S    
O9    C4    A    
O16   V4    S    
C16   C17   A    
C5    H1    S    
C6    C10   S    
C5    C9    S    
O11   C32   A    
O4    C2    A    
C10   C33   S    
C25   C30   A    
C28   H19   S    
O21   H25   S    
C29   H20   S    
O14   C32   A    
O12   C31   A    
C3    C15   S    
O2    C1    A    
O19   C34   A    
C2    C30   S    
C10   C11   S    
C17   C18   A    
C20   H16   S    
O15   V3    S    
C26   H18   S    
C22   H17   S    
C13   C18   A    
C23   N2    S    
O19   V4    S    
O3    C4    A    
C15   C16   A    
C6    H4    S    
C21   C22   A    
O6    V2    S    
N2    H24   S    
O9    V2    S    
C17   H15   S    
O2    V1    S    
O17   V4    S    
C23   C24   A    
N1    H22   S    
O11   V4    S    
C7    C11   S    
C19   C20   A    
O1    C2    A    
O5    V1    S    
C25   O21   S    
O8    C3    A    
C7    C9    S    
O13   V3    S    
C8    H7    S    
C26   C27   A    
O7    V2    S    
O4    V1    S    
C10   C12   S    
O3    V1    S    
V1    O10   S    
C14   C15   A    
C27   C28   A    
C19   N1    S    
C19   C24   A    
C13   C14   A    
C5    H2    S    
O12   V3    S    
H6    C11   S    
N1    H21   S    
O17   V3    S    
C6    H3    S    
N2    H23   S    
O18   V4    S    
O15   C33   A    
