data_mof_unit_52901.cif
_audit_creation_date              2012-12-10T18:47:47-0500
_audit_creation_method            fapswitch 2.2
_symmetry_space_group_name_H-M    P1
_symmetry_Int_Tables_number       1
_space_group_crystal_system       triclinic
_cell_length_a                    9.852557
_cell_length_b                    10.703082
_cell_length_c                    15.630556
_cell_angle_alpha                 90.097199
_cell_angle_beta                  66.685167
_cell_angle_gamma                 90.88702
_cell_volume                      1513.4932986

loop_
_atom_site_label
_atom_site_type_symbol
_atom_type_description
_atom_site_fract_x
_atom_site_fract_y
_atom_site_fract_z
_atom_type_partial_charge
C1    C     C_R   0.500196 0.739542 0.501364 0.917863
C2    C     C_R   0.387862 0.934298 0.573645 -0.068047
C3    C     C_R   0.497944 0.127826 0.497640 -0.154721
C4    C     C_R   0.502056 0.872174 0.502360 -0.154718
C5    C     C_R   0.951457 0.404233 0.460385 -0.047802
C6    C     C_R   0.048542 0.595767 0.539616 -0.047807
C7    C     C_R   0.095288 0.404369 0.460241 -0.070651
C8    C     C_R   0.904711 0.595631 0.539759 -0.070652
C9    C     C_R   0.406107 0.501156 0.676572 0.928836
C10   C     C_R   0.593893 0.498844 0.323428 0.928806
C11   C     C_R   0.344031 0.499623 0.779232 -0.131127
C12   C     C_R   0.499805 0.260458 0.498635 0.917838
C13   C     C_R   0.655969 0.500377 0.220768 -0.131125
C14   C     C_R   0.167335 0.425837 0.928749 -0.253665
C15   C     C_R   0.832670 0.574153 0.071250 -0.253663
C16   C     C_R   0.198340 0.458908 0.836188 -0.052582
C17   C     C_R   0.801662 0.541088 0.163811 -0.052583
C18   C     C_R   0.443949 0.526873 0.820117 -0.222455
C19   C     C_R   0.556048 0.473132 0.179882 -0.222448
C20   C     C_R   0.411661 0.500008 0.913605 0.098365
C21   C     C_R   0.588342 0.499986 0.086392 0.098364
C22   C     C_R   0.273900 0.441940 0.966332 0.148311
C23   C     C_R   0.348590 0.412355 0.093820 -0.194138
C24   C     C_R   0.726106 0.558049 0.033666 0.148307
C25   C     C_R   0.516143 0.522189 0.954117 0.077705
C26   C     C_R   0.483864 0.477801 0.045880 0.077703
C27   C     C_2   0.924540 0.548867 0.195953 0.919714
C28   C     C_2   0.075463 0.451135 0.804045 0.919718
C29   C     C_1   0.724514 0.868539 0.353559 0.229214
C30   C     C_1   0.275497 0.131464 0.646449 0.229238
C31   C     C_2   0.724722 0.135441 0.346899 0.927366
C32   C     C_2   0.275285 0.864560 0.653108 0.927346
C33   C     C_R   0.651422 0.587627 0.906175 -0.194129
C34   C     C_R   0.244654 0.397729 0.055387 -0.167936
C35   C     C_R   0.755357 0.602253 0.944609 -0.167942
C36   C     C_R   0.613960 0.936109 0.429139 -0.097042
C37   C     C_R   0.386042 0.063892 0.570864 -0.097035
C38   C     C_R   0.612138 0.065702 0.426357 -0.068031
H1    H     H_    0.142082 0.348060 0.094746 0.175587
H2    H     H_    0.083927 0.672256 0.571589 0.180961
H3    H     H_    0.168460 0.328005 0.428159 0.149806
H4    H     H_    0.831540 0.671996 0.571841 0.149803
H5    H     H_    0.034750 0.467808 0.265137 0.334664
H6    H     H_    0.965247 0.532207 0.734869 0.334659
H7    H     H_    0.765555 0.256489 0.240852 0.361399
H8    H     H_    0.234459 0.743521 0.759158 0.361389
H9    H     H_    0.857931 0.651918 0.905249 0.175596
H10   H     H_    0.448710 0.437959 0.224690 0.164339
H11   H     H_    0.551279 0.562062 0.775310 0.164340
H12   H     H_    0.059258 0.387476 0.972018 0.173966
H13   H     H_    0.940748 0.612511 0.027980 0.173969
H14   H     H_    0.319298 0.368924 0.160933 0.148675
H15   H     H_    0.680724 0.631047 0.839058 0.148668
H16   H     H_    0.916072 0.327744 0.428413 0.180981
N1    N     N_R   0.142780 0.500030 0.500020 -0.082514
N2    N     N_R   0.857220 0.499970 0.499980 -0.082514
N3    N     N_1   0.812720 0.815176 0.293186 -0.131403
N4    N     N_1   0.187299 0.184828 0.706825 -0.131396
O1    O     O_R   0.385370 0.683250 0.500010 -0.620785
O2    O     O_R   0.944063 0.453434 0.250723 -0.802586
O3    O     O_2   0.984591 0.365510 0.831081 -0.603556
O4    O     O_R   0.055933 0.546578 0.749285 -0.802585
O5    O     O_2   0.856416 0.118141 0.325937 -0.611429
O6    O     O_R   0.679243 0.218722 0.295209 -0.814944
O7    O     O_2   0.143587 0.881887 0.674094 -0.611412
O8    O     O_R   0.320772 0.781261 0.704782 -0.814935
O9    O     O_R   0.614630 0.316750 0.499990 -0.620784
O10   O     O_R   0.614700 0.683220 0.500000 -0.616757
O11   O     O_R   0.385300 0.316780 0.500000 -0.616758
O12   O     O_R   0.319830 0.500020 0.632250 -0.568768
O13   O     O_R   0.680170 0.499980 0.367750 -0.568768
O14   O     O_R   0.549160 0.499990 0.632240 -0.622342
O15   O     O_R   0.450840 0.500010 0.367760 -0.622343
O16   O     O_2   0.015419 0.634487 0.168908 -0.603559
Zn1   Zn    Zn3+2 0.346870 0.500020 0.500000 0.998470
Zn2   Zn    Zn3+2 0.653130 0.499980 0.500000 0.998472

loop_
_geom_bond_atom_site_label_1
_geom_bond_atom_site_label_2
_ccdc_geom_bond_type
C16   C28   S    
C21   C26   A    
C4    C36   A    
C11   C18   A    
N2    Zn2   S    
C5    N2    A    
C9    O14   A    
C7    N1    A    
C6    N1    A    
O14   Zn2   S    
C35   H9    S    
C8    N2    A    
C29   C36   S    
C19   C21   A    
C8    H4    S    
H8    O8    S    
C27   O2    S    
C1    O1    A    
O13   Zn2   S    
C10   O15   A    
C20   C25   A    
C1    O10   A    
C2    C32   S    
C23   C26   A    
C3    C12   S    
C3    C38   A    
C15   H13   S    
C27   O16   D    
N1    Zn1   S    
C10   O13   A    
O15   Zn1   S    
C33   H15   S    
C22   C34   A    
C12   O9    A    
C24   C35   A    
C13   C19   A    
C34   H1    S    
C17   C27   S    
C31   O5    D    
C5    H16   S    
C6    H2    S    
C9    O12   A    
C5    C7    A    
C19   H10   S    
C6    C8    A    
H6    O4    S    
C25   C26   A    
C30   C37   S    
C2    C4    A    
C11   C16   A    
C23   C34   A    
C9    C11   S    
H5    O2    S    
C15   C24   A    
C12   O11   A    
C20   C22   A    
C14   C16   A    
O1    Zn1   S    
C32   O8    S    
C15   C17   A    
C31   O6    S    
C29   N3    T    
C10   C13   S    
O10   Zn2   S    
H7    O6    S    
C31   C38   S    
C13   C17   A    
C1    C4    S    
C14   C22   A    
C36   C38   A    
C28   O3    D    
C2    C37   A    
C23   H14   S    
C14   H12   S    
C30   N4    T    
C33   C35   A    
O11   Zn1   S    
C18   C20   A    
C7    H3    S    
C3    C37   A    
C21   C24   A    
O12   Zn1   S    
O9    Zn2   S    
C18   H11   S    
C25   C33   A    
C32   O7    D    
C28   O4    S    
