data_mof_unit_40067.cif
_audit_creation_date              2012-12-11T17:34:21-0500
_audit_creation_method            fapswitch 2.2
_symmetry_space_group_name_H-M    P1
_symmetry_Int_Tables_number       1
_space_group_crystal_system       triclinic
_cell_length_a                    23.703081
_cell_length_b                    7.219072
_cell_length_c                    20.706846
_cell_angle_alpha                 89.998553
_cell_angle_beta                  105.480771
_cell_angle_gamma                 89.999815
_cell_volume                      3414.68807872

loop_
_atom_site_label
_atom_site_type_symbol
_atom_type_description
_atom_site_fract_x
_atom_site_fract_y
_atom_site_fract_z
_atom_type_partial_charge
O1    O     O_R   0.449110 0.494310 0.552140 -0.542635
O2    O     O_R   0.550890 0.994310 0.447860 -0.542635
O3    O     O_R   0.440010 0.824420 0.415850 -0.547808
O4    O     O_R   0.559990 0.324420 0.584150 -0.547805
C1    C     C_R   0.425723 0.655415 0.390702 0.758648
C2    C     C_R   0.574277 0.155411 0.609298 0.758651
O5    O     O_R   0.442260 0.824040 0.549660 -0.535787
O6    O     O_R   0.557740 0.324040 0.450340 -0.535789
O7    O     O_R   0.553160 0.993960 0.582620 -0.522686
O8    O     O_R   0.446840 0.493960 0.417380 -0.522691
C3    C     C_R   0.428662 0.655612 0.567659 0.678896
C4    C     C_R   0.571338 0.155614 0.432340 0.678885
O9    O     O_3   0.536380 0.660670 0.510660 -0.376614
O10   O     O_3   0.463620 0.160670 0.489340 -0.376615
V1    V     V_3+5 0.493250 0.935680 0.498020 1.421271
V2    V     V_3+5 0.506750 0.435680 0.501980 1.421269
C5    C     C_R   0.799019 0.950249 0.141702 0.524968
C6    C     C_R   0.200980 0.450254 0.858298 0.524970
C7    C     C_R   0.837469 0.936429 0.100229 0.038457
C8    C     C_R   0.162533 0.436434 0.899773 0.038419
C9    C     C_R   0.887053 0.055368 0.110748 -0.256502
C10   C     C_R   0.112950 0.555383 0.889255 -0.256499
C11   C     C_R   0.897987 0.180409 0.165345 0.451731
C12   C     C_R   0.102018 0.680442 0.834663 0.451757
C13   C     C_R   0.857683 0.199133 0.203869 -0.322194
C14   C     C_R   0.142319 0.699162 0.796134 -0.322271
H1    H     H_    0.866205 0.299119 0.244371 0.157384
H2    H     H_    0.133799 0.799163 0.755636 0.157329
C15   C     C_R   0.808073 0.086234 0.192108 -0.099548
C16   C     C_R   0.191927 0.586247 0.807892 -0.099501
C17   C     C_1   0.767754 0.104895 0.233702 0.042963
C18   C     C_1   0.232245 0.604904 0.766296 0.042961
C19   C     C_1   0.733965 0.116993 0.268362 -0.058426
C20   C     C_1   0.266033 0.616997 0.731635 -0.058428
C21   C     C_R   0.671753 0.965188 0.331431 -0.126669
C22   C     C_R   0.328241 0.465187 0.668564 -0.126666
H3    H     H_    0.685194 0.830985 0.317370 0.108522
H4    H     H_    0.314797 0.330985 0.682623 0.108520
C23   C     C_R   0.632453 0.974211 0.371336 -0.183515
C24   C     C_R   0.367542 0.474209 0.628660 -0.183517
H5    H     H_    0.616590 0.845687 0.386998 0.129297
H6    H     H_    0.383401 0.345685 0.612995 0.129286
C25   C     C_R   0.613864 0.146438 0.390478 -0.047260
C26   C     C_R   0.386135 0.646436 0.609521 -0.047254
C27   C     C_R   0.635974 0.309229 0.368460 -0.137771
C28   C     C_R   0.364029 0.809227 0.631542 -0.137771
H7    H     H_    0.622749 0.444393 0.381777 0.127318
H8    H     H_    0.377257 0.944391 0.618227 0.127318
C29   C     C_R   0.675345 0.299720 0.328535 -0.133937
C30   C     C_R   0.324658 0.799720 0.671466 -0.133943
H9    H     H_    0.691594 0.426795 0.312184 0.103350
H10   H     H_    0.308411 0.926796 0.687819 0.103350
C31   C     C_R   0.693417 0.127684 0.309798 0.126620
C32   C     C_R   0.306581 0.627685 0.690200 0.126623
C33   C     C_R   0.637656 0.095180 0.796259 0.108869
C34   C     C_R   0.362343 0.595254 0.203738 0.108867
H11   H     H_    0.724004 0.073476 0.910136 0.176817
H12   H     H_    0.275996 0.573551 0.089862 0.176816
C35   C     C_R   0.616933 0.144185 0.675957 -0.188514
C36   C     C_R   0.383067 0.644201 0.324043 -0.188511
C37   C     C_R   0.904069 0.066042 0.768274 -0.307691
C38   C     C_R   0.095932 0.566003 0.231726 -0.307706
C39   C     C_R   0.866524 0.060395 0.703597 0.172451
C40   C     C_R   0.133477 0.560347 0.296402 0.172438
C41   C     C_R   0.805529 0.055361 0.694156 0.440581
C42   C     C_R   0.194472 0.555325 0.305843 0.440583
C43   C     C_R   0.781095 0.078545 0.749789 -0.051232
C44   C     C_R   0.218906 0.578534 0.250211 -0.051231
C45   C     C_R   0.820672 0.071241 0.815616 0.011638
C46   C     C_R   0.179328 0.571242 0.184384 0.011638
C47   C     C_R   0.719200 0.101522 0.743113 0.053727
C48   C     C_R   0.280801 0.601528 0.256887 0.053730
C49   C     C_R   0.698399 0.090239 0.801485 0.070931
C50   C     C_R   0.301600 0.590283 0.198514 0.070929
C51   C     C_R   0.738537 0.076786 0.864804 -0.124434
C52   C     C_R   0.261463 0.576837 0.135195 -0.124433
C53   C     C_R   0.798316 0.074055 0.871720 -0.176321
C54   C     C_R   0.201684 0.574082 0.128279 -0.176326
C55   C     C_R   0.677226 0.139205 0.681202 -0.287039
C56   C     C_R   0.322774 0.639194 0.318799 -0.287041
C57   C     C_R   0.597072 0.123603 0.733648 0.407144
C58   C     C_R   0.402927 0.623664 0.266350 0.407145
C59   C     C_R   0.882139 0.060432 0.824283 -0.110000
C60   C     C_R   0.117862 0.560416 0.175716 -0.109995
H13   H     H_    0.689711 0.169337 0.636066 0.192456
H14   H     H_    0.310289 0.669295 0.363937 0.192458
H15   H     H_    0.951030 0.068552 0.775165 0.155852
H16   H     H_    0.048970 0.568508 0.224834 0.155854
H17   H     H_    0.827214 0.072830 0.921861 0.090128
H18   H     H_    0.172786 0.572860 0.078138 0.090126
O11   O     O_R   0.053190 0.709680 0.082610 -0.537709
O12   O     O_R   0.946810 0.209680 0.917390 -0.537686
O13   O     O_R   0.057740 0.380240 0.950340 -0.550339
O14   O     O_R   0.942260 0.880240 0.049660 -0.550342
C61   C     C_R   0.071457 0.548143 0.932566 0.737420
C62   C     C_R   0.928543 0.048141 0.067433 0.737254
O15   O     O_R   0.060000 0.379940 0.084150 -0.530775
O16   O     O_R   0.940000 0.879940 0.915850 -0.530764
O17   O     O_R   0.949110 0.210100 0.052140 -0.508410
O18   O     O_R   0.050890 0.710100 0.947860 -0.508401
C63   C     C_R   0.074684 0.548994 0.109103 0.722939
C64   C     C_R   0.925316 0.048998 0.890897 0.722973
O19   O     O_3   0.963630 0.543720 0.989330 -0.376231
O20   O     O_3   0.036370 0.043720 0.010670 -0.376242
V3    V     V_3+5 0.006750 0.268680 0.001980 1.449379
V4    V     V_3+5 0.993250 0.768680 0.998020 1.449383
O21   O     O_3   0.750638 0.835382 0.130454 -0.528664
C65   C     C_3   0.766736 0.672893 0.168841 -0.187116
H19   H     H_    0.780809 0.704286 0.223432 0.106729
H20   H     H_    0.801799 0.595778 0.153655 0.149412
H21   H     H_    0.728012 0.580566 0.160014 0.167960
O22   O     O_3   0.249360 0.335377 0.869544 -0.528665
C66   C     C_3   0.233257 0.172887 0.831162 -0.187116
H22   H     H_    0.219176 0.204280 0.776570 0.106721
H23   H     H_    0.198199 0.095772 0.846358 0.149421
H24   H     H_    0.271982 0.080560 0.839983 0.167958
N1    N     N_3   0.617110 0.065906 0.854721 -0.660088
H25   H     H_    0.594160 0.183352 0.862740 0.246412
H26   H     H_    0.588301 0.953357 0.845775 0.264208
N2    N     N_3   0.382890 0.566025 0.145275 -0.660090
H27   H     H_    0.411705 0.453488 0.154216 0.264209
H28   H     H_    0.405834 0.683489 0.137260 0.246417
O23   O     O_3   0.771271 0.020091 0.630119 -0.558909
C67   C     C_3   0.759957 0.828112 0.623932 -0.221439
H29   H     H_    0.735365 0.779929 0.659686 0.132119
H30   H     H_    0.801194 0.747421 0.631032 0.155077
H31   H     H_    0.732326 0.799738 0.572557 0.160618
O24   O     O_3   0.228731 0.520044 0.369880 -0.558910
C68   C     C_3   0.240044 0.328063 0.376067 -0.221438
H32   H     H_    0.264634 0.279883 0.340311 0.132116
H33   H     H_    0.198807 0.247376 0.368968 0.155083
H34   H     H_    0.267676 0.299681 0.427441 0.160616
N3    N     N_3   0.889774 0.051119 0.646304 -0.636260
H35   H     H_    0.935527 0.046766 0.661277 0.219205
H36   H     H_    0.878271 0.174029 0.619294 0.241129
N4    N     N_3   0.110228 0.551053 0.353696 -0.636255
H37   H     H_    0.064475 0.546699 0.338722 0.219233
H38   H     H_    0.121729 0.673959 0.380706 0.241126
N5    N     N_3   0.824883 0.799418 0.048217 -0.613281
H39   H     H_    0.824458 0.862043 0.002725 0.222449
H40   H     H_    0.857532 0.698148 0.059374 0.249211
N6    N     N_3   0.175119 0.299420 0.951787 -0.613283
H41   H     H_    0.175544 0.362043 0.997279 0.222445
H42   H     H_    0.142471 0.198151 0.940631 0.249209
O25   O     O_3   0.949426 0.280933 0.183037 -0.548616
C69   C     C_3   0.991238 0.174657 0.229753 -0.248383
H43   H     H_    0.978479 0.157823 0.277395 0.137918
H44   H     H_    0.998224 0.036636 0.209076 0.123449
H45   H     H_    0.033843 0.247305 0.241713 0.169431
O26   O     O_3   0.050577 0.780968 0.816987 -0.548607
C70   C     C_3   0.008809 0.674957 0.770128 -0.248568
H46   H     H_    0.021529 0.659145 0.722426 0.138082
H47   H     H_    0.001956 0.536480 0.790559 0.123389
H48   H     H_    0.966144 0.747254 0.758364 0.169458
O27   O     O_3   0.537676 0.116211 0.728629 -0.558907
C71   C     C_3   0.516579 0.298172 0.731163 -0.255551
H49   H     H_    0.516678 0.377032 0.685195 0.148084
H50   H     H_    0.541910 0.375139 0.776137 0.132689
H51   H     H_    0.470572 0.290221 0.734016 0.171530
O28   O     O_3   0.462324 0.616306 0.271367 -0.558909
C72   C     C_3   0.483410 0.798280 0.268834 -0.255569
H52   H     H_    0.483334 0.877087 0.314819 0.148112
H53   H     H_    0.458057 0.875288 0.223880 0.132672
H54   H     H_    0.529407 0.790357 0.265946 0.171542

loop_
_geom_bond_atom_site_label_1
_geom_bond_atom_site_label_2
_ccdc_geom_bond_type
C42   C44   A    
C39   C41   A    
C59   C64   S    
C21   C31   A    
C5    C15   A    
C10   C61   S    
C45   C53   A    
O1    C3    A    
O2    C4    A    
O24   C68   S    
C72   H54   S    
C2    O7    A    
C40   N4    S    
O25   C69   S    
H12   C52   S    
O23   C67   S    
C23   H5    S    
C54   H18   S    
O5    C3    A    
C11   O25   S    
C53   H17   S    
C30   C32   A    
C50   C52   A    
C39   N3    S    
C71   H49   S    
C7    C9    A    
C12   C14   A    
C66   H22   S    
C4    C25   S    
C5    O21   S    
C43   C47   A    
C46   C54   A    
C62   O17   A    
C65   H19   S    
C70   H48   S    
C37   C39   A    
O22   C66   S    
C56   H14   S    
C37   H15   S    
O13   V3    S    
C36   C58   A    
C71   H50   S    
O14   V4    S    
C26   C28   A    
C29   H9    S    
C30   H10   S    
C70   H46   S    
C17   C19   T    
C6    C16   A    
C33   C57   A    
C46   C60   A    
C38   C40   A    
O12   C64   A    
C66   H24   S    
O15   V3    S    
C24   H6    S    
O6    V2    S    
C70   H47   S    
C13   C15   A    
C60   C63   S    
C49   C51   A    
O11   V4    S    
O11   C63   A    
C47   C55   A    
O20   V3    S    
C72   H53   S    
N2    H28   S    
C72   H52   S    
C69   H44   S    
C27   H7    S    
C19   C31   S    
O17   V3    S    
C28   H8    S    
C34   C50   A    
C52   C54   A    
C8    N6    S    
C22   C24   A    
C48   C50   A    
C37   C59   A    
C35   C55   A    
C47   C49   A    
N1    H26   S    
C61   O18   A    
C23   C25   A    
C41   C43   A    
O16   C64   A    
C38   H16   S    
C44   C48   A    
C43   C45   A    
C18   C20   T    
O4    V2    S    
C21   C23   A    
C45   C59   A    
C69   H45   S    
C58   O28   S    
O10   V1    S    
C27   C29   A    
O6    C4    A    
C3    C26   S    
O1    V2    S    
O14   C62   A    
O2    V1    S    
C51   C53   A    
C12   O26   S    
C67   H31   S    
C7    N5    S    
C8    C10   A    
C20   C32   S    
C9    C11   A    
N3    H35   S    
C10   C12   A    
O4    C2    A    
O21   C65   S    
C55   H13   S    
N6    H42   S    
O3    V1    S    
N2    H27   S    
N4    H38   S    
C67   H30   S    
C69   H43   S    
C33   N1    S    
C38   C60   A    
C36   C56   A    
C1    C36   S    
C21   H3    S    
N6    H41   S    
C14   H2    S    
C2    C35   S    
C42   O24   S    
C71   H51   S    
C35   C57   A    
C6    O22   S    
N4    H37   S    
O3    C1    A    
C57   O27   S    
N5    H39   S    
C34   C58   A    
C34   N2    S    
C9    C62   S    
C13   H1    S    
C28   C30   A    
O18   V4    S    
O16   V4    S    
C65   H21   S    
O28   C72   S    
C68   H34   S    
C22   H4    S    
C68   H32   S    
C1    O8    A    
C15   C17   S    
O8    V2    S    
N1    H25   S    
C16   C18   S    
N5    H40   S    
H11   C51   S    
O13   C61   A    
C29   C31   A    
O5    V1    S    
C5    C7    A    
C65   H20   S    
O19   V4    S    
C6    C8    A    
C41   O23   S    
O7    V1    S    
C22   C32   A    
C33   C49   A    
O12   V3    S    
C24   C26   A    
C11   C13   A    
C48   C56   A    
O9    V2    S    
O27   C71   S    
N3    H36   S    
C44   C46   A    
O26   C70   S    
C68   H33   S    
C25   C27   A    
O15   C63   A    
C40   C42   A    
C67   H29   S    
C66   H23   S    
C14   C16   A    
