data_mof_unit_58991.cif
_audit_creation_date              2012-12-11T14:06:36-0500
_audit_creation_method            fapswitch 2.2
_symmetry_space_group_name_H-M    P1
_symmetry_Int_Tables_number       1
_space_group_crystal_system       triclinic
_cell_length_a                    6.921504
_cell_length_b                    17.332192
_cell_length_c                    24.102971
_cell_angle_alpha                 104.500214
_cell_angle_beta                  90.446313
_cell_angle_gamma                 89.921693
_cell_volume                      2799.31944176

loop_
_atom_site_label
_atom_site_type_symbol
_atom_type_description
_atom_site_fract_x
_atom_site_fract_y
_atom_site_fract_z
_atom_type_partial_charge
O1    O     O_R   0.494290 0.391990 0.999150 -0.499122
O2    O     O_R   0.827170 0.534410 0.082350 -0.547537
O3    O     O_R   0.994360 0.608010 0.000850 -0.542460
C1    C     C_R   0.658639 0.549763 0.106143 0.711749
O4    O     O_R   0.824210 0.388010 0.004470 -0.524057
O5    O     O_R   0.991370 0.460560 0.922410 -0.541222
C2    C     C_R   0.653750 0.354695 0.000818 0.838480
O6    O     O_R   0.497270 0.539440 0.077590 -0.543387
O7    O     O_3   0.659770 0.523970 0.973170 -0.387972
V1    V     V_3+5 0.935840 0.495550 0.004980 1.494125
O8    O     O_R   0.320910 0.465590 0.917650 -0.542313
C3    C     C_R   0.151377 0.450297 0.893869 0.745890
O9    O     O_R   0.323870 0.611990 0.995530 -0.553465
C4    C     C_R   0.154314 0.645116 0.998527 0.748875
V2    V     V_3+5 0.435470 0.504450 0.995020 1.474733
O10   O     O_3   0.161670 0.476030 0.026830 -0.345382
C5    C     C_2   0.142722 0.730191 0.998108 -0.335642
H1    H     H_    0.277255 0.760877 0.994747 0.148660
C6    C     C_2   0.972831 0.769849 0.002021 -0.338725
H2    H     H_    0.838299 0.739163 0.005383 0.148201
C7    C     C_R   0.182490 0.259252 0.622996 0.581221
N1    N     N_R   0.101661 0.331875 0.648107 -0.559279
C8    C     C_R   0.006290 0.374864 0.615625 0.583870
C9    C     C_R   0.988122 0.344936 0.555785 -0.040070
C10   C     C_R   0.069849 0.270389 0.529574 -0.013347
C11   C     C_R   0.168587 0.227183 0.563305 -0.024632
C12   C     C_R   0.890297 0.387622 0.521622 -0.106758
C13   C     C_R   0.873155 0.356534 0.462366 -0.058857
C14   C     C_R   0.953501 0.281985 0.435753 -0.043286
C15   C     C_R   0.052488 0.238878 0.469507 -0.017073
C16   C     C_R   0.133999 0.164270 0.443347 -0.022039
C17   C     C_R   0.232561 0.121749 0.477453 -0.149012
C18   C     C_R   0.249662 0.152814 0.536676 -0.140662
C19   C     C_R   0.938260 0.249484 0.376095 0.611434
N2    N     N_R   0.018222 0.176620 0.351112 -0.562742
C20   C     C_R   0.114523 0.133954 0.383621 0.572529
O11   O     O_2   0.274006 0.217605 0.655719 -0.513472
O12   O     O_2   0.930251 0.446606 0.641027 -0.514683
H3    H     H_    0.826356 0.445175 0.540548 0.180046
H4    H     H_    0.796680 0.391154 0.437512 0.201326
O13   O     O_2   0.846111 0.290862 0.343313 -0.491031
O14   O     O_2   0.190037 0.062050 0.358344 -0.519377
H5    H     H_    0.296765 0.064250 0.458523 0.171643
H6    H     H_    0.326384 0.118243 0.561510 0.176767
C21   C     C_R   0.822990 0.125420 0.262961 -0.076347
H7    H     H_    0.692691 0.134059 0.288344 0.128299
C22   C     C_R   0.809606 0.094415 0.203463 -0.190840
H8    H     H_    0.668168 0.080154 0.184150 0.128993
C23   C     C_R   0.976960 0.082138 0.169469 -0.058944
C24   C     C_R   0.157682 0.101720 0.196646 -0.191725
H9    H     H_    0.289646 0.093471 0.172034 0.129889
C25   C     C_R   0.170671 0.132720 0.256019 -0.068130
H10   H     H_    0.311098 0.147713 0.275879 0.127628
C26   C     C_R   0.003663 0.144850 0.289714 0.372377
C27   C     C_R   0.946790 0.373688 0.743032 -0.079250
H11   H     H_    0.806711 0.359355 0.722780 0.125247
C28   C     C_R   0.958784 0.402262 0.802665 -0.187314
H12   H     H_    0.826432 0.409625 0.827083 0.129572
C29   C     C_R   0.139156 0.420558 0.830328 -0.061009
C30   C     C_R   0.307058 0.409717 0.796580 -0.187113
H13   H     H_    0.448265 0.423187 0.816236 0.127828
C31   C     C_R   0.294687 0.381158 0.736884 -0.071375
H14   H     H_    0.425533 0.373321 0.711754 0.128194
C32   C     C_R   0.114497 0.362767 0.709621 0.372673
C33   C     C_R   0.607994 0.865092 0.616446 0.574685
N3    N     N_R   0.505059 0.824100 0.648314 -0.557058
C34   C     C_R   0.419645 0.752464 0.622601 0.605204
C35   C     C_R   0.437054 0.719401 0.563014 -0.091711
C36   C     C_R   0.543556 0.760363 0.529981 -0.007058
C37   C     C_R   0.629750 0.834029 0.556888 -0.011138
C38   C     C_R   0.351524 0.646164 0.536020 -0.180098
C39   C     C_R   0.370539 0.613102 0.477012 0.422821
C40   C     C_R   0.478288 0.653636 0.442871 -0.138062
C41   C     C_R   0.564178 0.727799 0.470042 -0.069456
C42   C     C_R   0.671030 0.769886 0.437487 -0.006842
C43   C     C_R   0.756118 0.843307 0.464880 -0.134005
C44   C     C_R   0.735827 0.874928 0.523768 -0.150757
C45   C     C_R   0.504028 0.623717 0.382802 0.736568
N4    N     N_R   0.606478 0.666269 0.351962 -0.558033
C46   C     C_R   0.689415 0.737935 0.378093 0.628648
O15   O     O_2   0.688307 0.936046 0.642177 -0.517188
O16   O     O_2   0.320385 0.712623 0.654603 -0.516281
H15   H     H_    0.268681 0.613862 0.560845 0.202511
O17   O     O_2   0.428986 0.552735 0.355124 -0.421440
O18   O     O_2   0.788660 0.778488 0.346550 -0.509826
H16   H     H_    0.838877 0.876754 0.440867 0.173658
H17   H     H_    0.803731 0.931612 0.543226 0.171186
C47   C     C_R   0.464707 0.643187 0.255127 -0.114759
H18   H     H_    0.332541 0.671063 0.273935 0.181289
C48   C     C_R   0.476661 0.614816 0.195563 -0.181996
H19   H     H_    0.351838 0.621181 0.169699 0.142508
C49   C     C_R   0.647966 0.579735 0.169700 -0.113003
C50   C     C_R   0.806603 0.573224 0.205222 -0.239090
H20   H     H_    0.939708 0.545892 0.186605 0.165741
C51   C     C_R   0.793638 0.600514 0.265143 0.439294
C52   C     C_R   0.622172 0.636239 0.290467 0.290963
C53   C     C_R   0.311427 0.876231 0.736153 -0.075772
H21   H     H_    0.180675 0.868636 0.710396 0.132277
C54   C     C_R   0.299376 0.906931 0.795753 -0.189438
H22   H     H_    0.158630 0.921994 0.814695 0.131415
C55   C     C_R   0.467238 0.917992 0.830320 -0.057166
C56   C     C_R   0.646989 0.897409 0.803553 -0.191828
H23   H     H_    0.779437 0.904632 0.828524 0.130745
C57   C     C_R   0.658646 0.866660 0.744158 -0.081069
H24   H     H_    0.798518 0.850849 0.724784 0.127269
C58   C     C_R   0.491299 0.855794 0.709813 0.368885
C59   C     C_2   0.637606 0.269912 0.001814 -0.394490
H25   H     H_    0.769803 0.241020 0.010530 0.157094
C60   C     C_2   0.468588 0.228024 0.993666 0.195370
O19   O     O_R   0.618210 0.960470 0.922400 -0.542108
O20   O     O_R   0.291310 0.111960 0.995450 -0.510888
O21   O     O_R   0.124210 0.039530 0.077580 -0.541301
C61   C     C_R   0.460652 0.144570 0.997488 0.726372
O22   O     O_R   0.288310 0.965490 0.917650 -0.542486
O23   O     O_R   0.121180 0.892010 0.999220 -0.539110
C62   C     C_R   0.456779 0.949642 0.893843 0.706154
O24   O     O_R   0.621230 0.107990 0.000760 -0.552504
O25   O     O_3   0.455770 0.976060 0.026840 -0.377244
V3    V     V_3+5 0.179680 0.004440 0.995020 1.469296
O26   O     O_R   0.791670 0.888040 0.004570 -0.548576
C63   C     C_R   0.961230 0.854915 0.001577 0.763738
O27   O     O_R   0.794680 0.034510 0.082370 -0.545503
C64   C     C_R   0.964222 0.050387 0.106087 0.709864
V4    V     V_3+5 0.680070 0.995560 0.005010 1.421435
O28   O     O_3   0.953840 0.023940 0.973160 -0.361674
Cl1   Cl    Cl    0.252944 0.520920 0.449654 -0.532165
Cl2   Cl    Cl    0.991960 0.587673 0.307912 -0.555602
Cl3   Cl    Cl    0.245794 0.267280 0.975838 -0.628866

loop_
_geom_bond_atom_site_label_1
_geom_bond_atom_site_label_2
_ccdc_geom_bond_type
C27   H11   S    
C47   C52   A    
C55   C56   A    
O23   C63   A    
O19   C62   A    
C40   C41   A    
C20   O14   S    
C51   C52   A    
C9    C12   A    
C1    O6    A    
C57   C58   A    
C53   H21   S    
C28   H12   S    
C22   C23   A    
C21   H7    S    
O26   C63   A    
C14   C15   A    
C30   C31   A    
C13   C14   A    
O24   V4    S    
C16   C20   A    
O5    C3    A    
C15   C16   A    
C28   C29   A    
C13   H4    S    
C33   C37   A    
C23   C64   S    
O20   V3    S    
C19   N2    A    
O25   V3    S    
C31   C32   A    
C11   C18   A    
O19   V4    S    
C3    C29   S    
C48   C49   A    
C22   H8    S    
C12   H3    S    
C35   C36   A    
C24   C25   A    
C40   C45   A    
O1    V2    S    
C42   C46   A    
O22   V3    S    
C60   C61   S    
N3    C34   A    
C29   C30   A    
C50   C51   A    
O9    C4    A    
N2    C26   S    
C59   C60   D    
C4    C5    S    
C36   C37   A    
C19   O13   S    
O8    V2    S    
N3    C58   S    
C57   H24   S    
C53   C54   A    
C7    C11   A    
C25   C26   A    
C24   H9    S    
C38   H15   S    
C21   C22   A    
C37   C44   A    
C41   C42   A    
C34   C35   A    
C43   C44   A    
O21   C64   A    
O4    C2    A    
C45   N4    A    
C10   C11   A    
C14   C19   A    
C39   Cl1   S    
C30   H13   S    
N2    C20   A    
O2    C1    A    
C42   C43   A    
C46   O18   S    
C45   O17   S    
C60   Cl3   S    
C33   O15   S    
C16   C17   A    
C59   H25   S    
C27   C32   A    
C31   H14   S    
C5    H1    S    
C7    O11   S    
C36   C41   A    
O20   C61   A    
C50   H20   S    
O25   V4    S    
C9    C10   A    
C56   C57   A    
O3    C4    A    
C61   O24   A    
C53   C58   A    
V3    O28   S    
C54   C55   A    
C47   C48   A    
C21   C26   A    
C33   N3    A    
O6    V2    S    
O23   V3    S    
O9    V2    S    
C2    C59   S    
O27   V4    S    
O2    V1    S    
C43   H16   S    
C25   H10   S    
O7    V1    S    
C10   C15   A    
C6    C63   S    
O1    C2    A    
C18   H6    S    
C39   C40   A    
O5    V1    S    
O21   V3    S    
O22   C62   A    
O8    C3    A    
C8    O12   S    
C54   H22   S    
C17   C18   A    
C6    H2    S    
C27   C28   A    
O7    V2    S    
N4    C52   S    
O3    V1    S    
V1    O10   S    
C48   H19   S    
C35   C38   A    
C49   C50   A    
C5    C6    D    
C17   H5    S    
C56   H23   S    
O26   V4    S    
C8    C9    A    
N1    C32   S    
N4    C46   A    
C51   Cl2   S    
O4    V1    S    
C38   C39   A    
C47   H18   S    
C44   H17   S    
C34   O16   S    
C23   C24   A    
C12   C13   A    
C55   C62   S    
N1    C8    A    
O27   C64   A    
C7    N1    A    
V2    O10   S    
V4    O28   S    
C1    C49   S    
