data_mof_unit_10651.cif
_audit_creation_date              2012-12-11T15:11:47-0500
_audit_creation_method            fapswitch 2.2
_symmetry_space_group_name_H-M    P1
_symmetry_Int_Tables_number       1
_space_group_crystal_system       triclinic
_cell_length_a                    20.127842
_cell_length_b                    7.100965
_cell_length_c                    13.531608
_cell_angle_alpha                 89.786058
_cell_angle_beta                  103.578359
_cell_angle_gamma                 90.089232
_cell_volume                      1879.96321613

loop_
_atom_site_label
_atom_site_type_symbol
_atom_type_description
_atom_site_fract_x
_atom_site_fract_y
_atom_site_fract_z
_atom_type_partial_charge
O1    O     O_R   0.449830 0.506740 0.599960 -0.535868
O2    O     O_R   0.550170 0.006740 0.400040 -0.535557
O3    O     O_R   0.588980 0.179860 0.596720 -0.545550
O4    O     O_R   0.411020 0.679860 0.403280 -0.546416
C1    C     C_R   0.616362 0.344414 0.619072 0.662766
C2    C     C_R   0.383485 0.844251 0.381124 0.663665
O5    O     O_R   0.452740 0.177340 0.612040 -0.539891
O6    O     O_R   0.547260 0.677340 0.387960 -0.540579
O7    O     O_R   0.412960 0.002070 0.415460 -0.540886
O8    O     O_R   0.587040 0.502070 0.584540 -0.542774
C3    C     C_R   0.436598 0.345556 0.638612 0.690560
C4    C     C_R   0.563769 0.846404 0.361984 0.691948
O9    O     O_3   0.487110 0.337570 0.435490 -0.373627
O10   O     O_3   0.512890 0.837570 0.564510 -0.373781
V1    V     V_3+5 0.502390 0.064650 0.511970 1.395029
V2    V     V_3+5 0.497610 0.564650 0.488030 1.392191
C5    C     C_R   0.611861 0.955211 0.117396 -0.166732
C6    C     C_R   0.391201 0.377221 0.891510 -0.165383
H1    H     H_    0.517891 0.945714 0.165791 0.100969
H2    H     H_    0.484914 0.371659 0.841928 0.098550
H3    H     H_    0.586705 0.003110 0.041712 0.111241
H4    H     H_    0.417598 0.388446 0.970892 0.111658
C7    C     C_R   0.603700 0.859938 0.285267 -0.029663
C8    C     C_R   0.396810 0.353612 0.715862 -0.026959
C9    C     C_R   0.932130 0.796457 0.315271 -0.163874
C10   C     C_R   0.067298 0.342842 0.681904 -0.168504
C11   C     C_R   0.896656 0.767524 0.391192 0.223770
C12   C     C_R   0.102390 0.330191 0.604649 0.219916
C13   C     C_R   0.825689 0.792235 0.369011 -0.179977
C14   C     C_R   0.173906 0.335371 0.628942 -0.179179
C15   C     C_R   0.788790 0.849006 0.270957 0.038913
C16   C     C_R   0.211945 0.352577 0.730967 0.038147
C17   C     C_R   0.826213 0.885441 0.195606 0.072005
C18   C     C_R   0.175332 0.364197 0.808992 0.071729
C19   C     C_R   0.716013 0.869907 0.244829 0.084149
C20   C     C_R   0.285040 0.357633 0.758238 0.086113
C21   C     C_R   0.683026 0.931496 0.145237 0.152715
C22   C     C_R   0.319494 0.372775 0.862552 0.151152
C23   C     C_R   0.721127 0.971001 0.074101 -0.219650
C24   C     C_R   0.282334 0.383507 0.937361 -0.234017
C25   C     C_R   0.791499 0.948439 0.098678 -0.199283
C26   C     C_R   0.211483 0.379452 0.911211 -0.186209
C27   C     C_R   0.674499 0.832769 0.313796 -0.222006
C28   C     C_R   0.325453 0.348540 0.685788 -0.218946
C29   C     C_R   0.572542 0.921408 0.187401 -0.174907
C30   C     C_R   0.429623 0.367657 0.818499 -0.177063
C31   C     C_R   0.897697 0.855123 0.218060 -0.119878
C32   C     C_R   0.103009 0.359597 0.783295 -0.116815
H5    H     H_    0.695412 0.787364 0.390890 0.089856
H6    H     H_    0.303459 0.338226 0.605344 0.087124
H7    H     H_    0.986834 0.772454 0.331578 0.099735
H8    H     H_    0.011884 0.338709 0.663307 0.101804
H9    H     H_    0.801056 0.766159 0.430324 0.111593
H10   H     H_    0.198008 0.324516 0.566068 0.112976
H11   H     H_    0.818580 0.979582 0.040380 0.121708
H12   H     H_    0.185233 0.387844 0.972294 0.112056
C33   C     C_3   0.212935 0.651845 0.209939 -0.310824
C34   C     C_3   0.765230 0.215779 0.851850 -0.323853
H13   H     H_    0.177791 0.575887 0.248844 0.134713
H14   H     H_    0.786561 0.072154 0.848687 0.143463
H15   H     H_    0.211949 0.573613 0.138669 0.138226
H16   H     H_    0.764700 0.242659 0.932356 0.137546
C35   C     C_3   0.285880 0.647701 0.278658 -0.315020
C36   C     C_3   0.691312 0.222049 0.784405 -0.332951
H17   H     H_    0.320609 0.576932 0.237373 0.135491
H18   H     H_    0.655760 0.274411 0.829875 0.124328
H19   H     H_    0.285659 0.561589 0.347520 0.136199
H20   H     H_    0.675151 0.076155 0.760143 0.144657
H21   H     H_    0.151336 0.878207 0.327409 0.133442
H22   H     H_    0.842142 0.166453 0.707352 0.145919
H23   H     H_    0.258668 0.867522 0.433349 0.137730
H24   H     H_    0.732590 0.136830 0.610145 0.143840
C37   C     C_3   0.188162 0.951723 0.290663 -0.381571
C38   C     C_3   0.815024 0.303414 0.705293 -0.383819
C39   C     C_3   0.240519 0.968188 0.138882 0.032134
C40   C     C_3   0.775340 0.560287 0.807151 0.042388
C41   C     C_3   0.187863 0.858037 0.186728 0.120110
C42   C     C_3   0.811353 0.361880 0.814537 0.121829
H25   H     H_    0.224289 0.118521 0.130335 0.126100
H26   H     H_    0.808146 0.665335 0.779739 0.127148
C43   C     C_3   0.312521 0.850226 0.310245 0.093661
C44   C     C_3   0.687103 0.351707 0.689993 0.096446
C45   C     C_3   0.260672 0.945933 0.362746 -0.331352
C46   C     C_3   0.742257 0.285896 0.634529 -0.326648
C47   C     C_3   0.313368 0.961617 0.211700 -0.324435
C48   C     C_3   0.705489 0.555252 0.728207 -0.307880
H27   H     H_    0.351103 0.895858 0.173996 0.132709
H28   H     H_    0.663729 0.612730 0.760640 0.144809
H29   H     H_    0.171105 0.100844 0.278835 0.142727
H30   H     H_    0.844974 0.409858 0.673424 0.126821
H31   H     H_    0.277593 0.092027 0.385475 0.138145
H32   H     H_    0.739317 0.371908 0.564709 0.129143
O11   O     O_R   0.912980 0.203550 0.915410 -0.540671
O12   O     O_R   0.087020 0.703550 0.084590 -0.540071
O13   O     O_R   0.047270 0.535570 0.887960 -0.538045
O14   O     O_R   0.952730 0.035570 0.112040 -0.538691
C49   C     C_R   0.063571 0.368293 0.861414 0.701533
C50   C     C_R   0.936581 0.867507 0.138934 0.695082
O15   O     O_R   0.911030 0.532970 0.903270 -0.546839
O16   O     O_R   0.088970 0.032970 0.096730 -0.548496
O17   O     O_R   0.949820 0.708150 0.099970 -0.537096
O18   O     O_R   0.050180 0.208150 0.900030 -0.535977
C51   C     C_R   0.883163 0.365637 0.883564 0.651557
C52   C     C_R   0.116176 0.864718 0.118028 0.657105
O19   O     O_3   0.012900 0.375230 0.064480 -0.373290
O20   O     O_3   0.987100 0.875230 0.935520 -0.372050
V3    V     V_3+5 0.997610 0.648190 0.988040 1.396702
V4    V     V_3+5 0.002390 0.148190 0.011960 1.395671
C53   C     C_3   0.242534 0.899824 0.031671 -0.796235
H33   H     H_    0.277980 0.989697 0.000460 0.222281
H34   H     H_    0.260935 0.752519 0.033381 0.220485
H35   H     H_    0.191262 0.909864 0.979038 0.211441
C54   C     C_3   0.764950 0.632702 0.909796 -0.799600
H36   H     H_    0.745273 0.778850 0.899508 0.197660
H37   H     H_    0.726814 0.546860 0.937365 0.220155
H38   H     H_    0.813216 0.633774 0.969339 0.224760
H39   H     H_    0.331355 0.108116 0.231274 0.120065
H40   H     H_    0.708339 0.647968 0.662743 0.116139
H41   H     H_    0.696023 0.018238 0.998347 0.118484
H42   H     H_    0.308258 0.394812 0.016978 0.115380
C55   C     C_3   0.933857 0.707573 0.496217 -0.808382
H43   H     H_    0.989729 0.694783 0.502834 0.218779
H44   H     H_    0.925545 0.813142 0.552443 0.206590
H45   H     H_    0.914155 0.568926 0.514786 0.202186
C56   C     C_3   0.064098 0.309863 0.495620 -0.803877
H46   H     H_    0.007944 0.305748 0.487984 0.216185
H47   H     H_    0.076095 0.430740 0.450448 0.201800
H48   H     H_    0.079566 0.177207 0.464009 0.207846

loop_
_geom_bond_atom_site_label_1
_geom_bond_atom_site_label_2
_ccdc_geom_bond_type
C34   H16   S    
O15   C51   A    
C35   H17   S    
O17   V3    S    
C7    C29   A    
C11   C13   A    
O1    C3    A    
O2    C4    A    
O11   C51   A    
C2    O7    A    
C11   C55   S    
C23   C25   A    
O5    C3    A    
C32   C49   S    
O19   V3    S    
C4    C7    S    
C31   C50   S    
C13   H9    S    
C35   C43   S    
C16   C20   A    
C19   C21   A    
C5    C29   A    
C53   H34   S    
O11   V4    S    
C48   H28   S    
C33   H13   S    
O20   V3    S    
C34   H14   S    
C3    C8    S    
O16   C52   A    
C7    C27   A    
C25   H11   S    
C55   H45   S    
C26   H12   S    
C39   C47   S    
C18   C26   A    
O14   C50   A    
H22   C38   S    
C56   H48   S    
C15   C17   A    
H21   C37   S    
C19   C27   A    
C9    C31   A    
C49   O18   A    
C10   C32   A    
C54   H38   S    
C24   C26   A    
O14   V4    S    
O12   C52   A    
O6    V2    S    
C2    C43   S    
C6    C30   A    
C43   C45   S    
C33   C35   S    
H23   C45   S    
C47   H27   S    
C34   C36   S    
O19   V4    S    
C35   H19   S    
O12   V3    S    
O16   V4    S    
C39   C53   S    
C40   C42   S    
C33   C41   S    
O4    C2    A    
C53   H35   S    
C27   H5    S    
O5    V1    S    
C44   C48   S    
C5    H3    S    
C36   H18   S    
O4    V2    S    
C47   H39   S    
C9    H7    S    
C10   H8    S    
C14   H10   S    
C22   C24   A    
O6    C4    A    
O13   C49   A    
C40   C54   S    
C48   H40   S    
O1    V2    S    
C5    C21   A    
O18   V4    S    
O2    V1    S    
C39   C41   S    
C36   C44   S    
C55   H43   S    
H24   C46   S    
O13   V3    S    
C24   H42   S    
C8    C28   A    
C44   C46   S    
C56   H46   S    
C17   C31   A    
C15   C19   A    
C20   C28   A    
C18   C32   A    
C45   H31   S    
C36   H20   S    
C40   C48   S    
O3    V1    S    
C12   C56   S    
C54   H36   S    
C28   H6    S    
C42   C51   S    
C6    H4    S    
C40   H26   S    
C38   C46   S    
O3    C1    A    
H1    C29   S    
C33   H15   S    
C9    C11   A    
C50   O17   A    
O15   V3    S    
C10   C12   A    
C8    C30   A    
C38   H30   S    
C20   C22   A    
C6    C22   A    
C17   C25   A    
C1    O8    A    
C13   C15   A    
O8    V2    S    
C53   H33   S    
C14   C16   A    
C1    C44   S    
O20   V4    S    
C23   H41   S    
C12   C14   A    
O7    V1    S    
C43   C47   S    
C55   H44   S    
C34   C42   S    
C37   H29   S    
C21   C23   A    
C38   C42   S    
O9    V2    S    
C56   H47   S    
C37   C41   S    
O10   V1    S    
C41   C52   S    
C46   H32   S    
C39   H25   S    
C37   C45   S    
H2    C30   S    
C16   C18   A    
C54   H37   S    
