data_mof_unit_40014.cif
_audit_creation_date              2013-03-05T15:51:41-0500
_audit_creation_method            fapswitch 2.2
_symmetry_space_group_name_H-M    P1
_symmetry_Int_Tables_number       1
_space_group_crystal_system       triclinic
_cell_length_a                    11.583322
_cell_length_b                    11.541376
_cell_length_c                    19.546639
_cell_angle_alpha                 90.441135
_cell_angle_beta                  89.899203
_cell_angle_gamma                 60.060724
_cell_volume                      2264.31536439

loop_
_atom_site_label
_atom_site_type_symbol
_atom_site_description
_atom_site_fract_x
_atom_site_fract_y
_atom_site_fract_z
_atom_type_partial_charge
O1    O     O_R   0.267750 0.231960 0.575440 -0.510389
O2    O     O_R   0.527290 0.186640 0.570530 -0.500338
C1    C     C_R   0.640186 0.117300 0.599256 0.536511
O3    O     O_R   0.728110 0.003450 0.576380 -0.508253
O4    O     O_R   0.682980 0.789190 0.570500 -0.497002
C2    C     C_R   0.612065 0.746345 0.598643 0.541848
O5    O     O_R   0.499300 0.771880 0.575540 -0.504560
O6    O     O_R   0.285350 0.030870 0.569740 -0.499082
C3    C     C_R   0.240946 0.145285 0.598148 0.535371
O7    O     O_R   0.270960 0.227070 0.423890 -0.454144
O8    O     O_R   0.530270 0.182120 0.430040 -0.428456
C4    C     C_R   0.647642 0.113891 0.404002 0.555872
O9    O     O_R   0.731320 0.998570 0.424830 -0.529642
O10   O     O_R   0.685950 0.784660 0.430010 -0.503550
C5    C     C_R   0.618392 0.735310 0.404025 0.561001
O11   O     O_R   0.502510 0.767000 0.423980 -0.521370
O12   O     O_R   0.288320 0.026340 0.429250 -0.515271
C6    C     C_R   0.239823 0.143131 0.402800 0.569768
Cr1   Cr    Cr6+3 0.404720 0.198220 0.499960 1.099659
Cr2   Cr    Cr6+3 0.698290 0.897110 0.500380 1.031937
Cr3   Cr    Cr6+3 0.396970 0.904720 0.499610 1.032996
O13   O     O_3   0.499990 0.000020 0.499980 -0.261757
C7    C     C_1   0.670859 0.646253 0.860136 0.007881
C8    C     C_1   0.654450 0.683749 0.728412 -0.029767
C9    C     C_1   0.663632 0.666566 0.799683 -0.029237
C10   C     C_1   0.640650 0.704116 0.667987 0.006128
C11   C     C_1   0.126786 0.198794 0.859328 0.007782
C12   C     C_1   0.171461 0.170236 0.727707 -0.029438
C13   C     C_1   0.150199 0.182255 0.798953 -0.029155
C14   C     C_1   0.195214 0.160866 0.667351 0.006394
C15   C     C_1   0.679239 0.190953 0.860786 0.006587
C16   C     C_1   0.658451 0.167238 0.729032 -0.029474
C17   C     C_1   0.666074 0.180664 0.800356 -0.029007
C18   C     C_1   0.652589 0.149821 0.668631 0.006311
C19   C     C_R   0.672721 0.641125 0.198226 0.074947
C20   C     C_R   0.579771 0.623898 0.235247 0.008148
C21   C     C_R   0.572243 0.635254 0.304767 -0.033874
C22   C     C_R   0.770181 0.654997 0.305021 -0.155038
C23   C     C_R   0.772907 0.650038 0.233598 -0.146824
C24   C     C_3   0.432483 0.689708 0.226260 0.088477
C25   C     C_3   0.422100 0.704640 0.303347 -0.242049
C26   C     C_R   0.660551 0.663140 0.340203 0.030132
H1    H     H_    0.845024 0.666419 0.332128 0.112847
H2    H     H_    0.848085 0.659516 0.205837 0.114765
H3    H     H_    0.398584 0.621925 0.205280 0.120775
C27   C     C_R   0.104855 0.216208 0.200014 0.052913
C28   C     C_R   0.089587 0.321258 0.241161 -0.027833
C29   C     C_R   0.115753 0.304843 0.309870 0.006904
C30   C     C_R   0.144944 0.083557 0.303104 -0.143084
C31   C     C_R   0.117061 0.102143 0.232851 -0.091034
C32   C     C_3   0.134421 0.420354 0.231730 -0.223740
C33   C     C_3   0.159833 0.407983 0.308025 0.104318
C34   C     C_R   0.160326 0.179380 0.340531 0.029175
H4    H     H_    0.054785 0.520301 0.216870 0.095019
H5    H     H_    0.225418 0.380515 0.199101 0.183991
H6    H     H_    0.092891 0.500636 0.337525 0.095399
C35   C     C_R   0.673256 0.189470 0.194866 0.025860
C36   C     C_R   0.730876 0.059501 0.220269 0.049673
C37   C     C_R   0.730093 0.038472 0.289438 0.071287
C38   C     C_R   0.612754 0.275931 0.311452 -0.088662
C39   C     C_R   0.609753 0.297903 0.240988 -0.118856
C40   C     C_3   0.870084 0.944214 0.212151 -0.268472
C41   C     C_3   0.870306 0.924991 0.288296 -0.282140
C42   C     C_R   0.672805 0.145005 0.335928 0.035593
H7    H     H_    0.568462 0.360206 0.346511 0.158010
H8    H     H_    0.873286 0.860732 0.181889 0.144311
H9    H     H_    0.878464 0.828797 0.302073 0.143687
H10   H     H_    0.939815 0.948685 0.316152 0.129648
O14   O     O_R   0.821590 0.119350 0.952850 -0.501559
O15   O     O_R   0.037230 0.162540 0.957390 -0.484469
C43   C     C_R   0.081829 0.231152 0.928637 0.556759
O16   O     O_R   0.056530 0.344750 0.951370 -0.502306
O17   O     O_R   0.798000 0.560370 0.957490 -0.494972
C44   C     C_R   0.684209 0.604159 0.929516 0.553809
O18   O     O_R   0.596230 0.579400 0.952760 -0.491651
O19   O     O_R   0.639160 0.321170 0.958690 -0.493047
C45   C     C_R   0.708840 0.206656 0.930116 0.547655
O20   O     O_R   0.821370 0.124220 0.104400 -0.525187
O21   O     O_R   0.037020 0.167050 0.097880 -0.491258
C46   C     C_R   0.074854 0.240157 0.127725 0.571371
O22   O     O_R   0.056310 0.349620 0.102920 -0.520499
O23   O     O_R   0.797790 0.564880 0.097980 -0.520474
C47   C     C_R   0.684333 0.608336 0.126659 0.569631
O24   O     O_R   0.596000 0.584270 0.104310 -0.488165
O25   O     O_R   0.638950 0.325690 0.099180 -0.508115
C48   C     C_R   0.709017 0.211947 0.127282 0.537376
Cr4   Cr    Cr6+3 0.926290 0.152010 0.028150 1.059864
Cr5   Cr    Cr6+3 0.921440 0.451830 0.027490 1.034160
Cr6   Cr    Cr6+3 0.626370 0.446880 0.028730 1.059351
O26   O     O_3   0.824700 0.350240 0.028120 -0.276440
N1    N     N_R   0.300049 0.355534 0.322214 0.095648
O27   O     O_R   0.389219 0.241100 0.296249 -0.334303
O28   O     O_R   0.334801 0.420654 0.364061 -0.385564
H11   H     H_    0.566468 0.399003 0.223023 0.120320
H12   H     H_    0.944414 0.972831 0.196629 0.160109
N2    N     N_R   0.378121 0.816755 0.189954 0.070167
O29   O     O_R   0.411553 0.905350 0.207034 -0.331714
O30   O     O_R   0.308487 0.834498 0.134912 -0.348432
H13   H     H_    0.373138 0.810169 0.320935 0.192412
H14   H     H_    0.383485 0.643729 0.327510 0.135541
H15   H     H_    0.164877 0.990660 0.326237 0.112785
H16   H     H_    0.112617 0.024467 0.203927 0.170769

loop_
_geom_bond_atom_site_label_1
_geom_bond_atom_site_label_2
_geom_bond_distance
_ccdc_geom_bond_type
O20   Cr4   2.047274 S    
C36   C40   1.499983 S    
O11   Cr3   2.055298 S    
C11   C13   1.202680 T    
O17   C44   1.278127 A    
O14   C45   1.270370 A    
C19   C20   1.391223 A    
O21   Cr4   1.938486 S    
O4    Cr2   1.925438 S    
C2    C10   1.426545 S    
O25   C48   1.277867 A    
O8    Cr1   1.933056 S    
C37   C42   1.394328 A    
C12   C13   1.407487 S    
C8    C10   1.201362 T    
C22   C26   1.403980 A    
C30   H15   1.080760 S    
O4    C2    1.276694 A    
C4    C42   1.447395 S    
O23   Cr5   1.937083 S    
C5    O11   1.262377 A    
C35   C48   1.447287 S    
O12   C6    1.286752 A    
C21   C26   1.399063 A    
C30   C31   1.404635 A    
C6    C34   1.460032 S    
C27   C28   1.385123 A    
C47   O24   1.264240 A    
O6    C3    1.275293 A    
N2    O30   1.300622 A    
C25   H13   1.107531 S    
O15   C43   1.274361 A    
O14   Cr4   2.057503 S    
O19   Cr6   1.937887 S    
O20   C48   1.262774 A    
Cr3   O13   1.985909 S    
C24   H3    1.112036 S    
C24   N2    1.464968 S    
O15   Cr4   1.931677 S    
O16   Cr5   2.054970 S    
C15   C45   1.430662 S    
C29   C34   1.410925 A    
C41   H9    1.101815 S    
O1    Cr1   2.052272 S    
C44   O18   1.271885 A    
C40   H8    1.111350 S    
C32   C33   1.514561 S    
O10   Cr2   1.937822 S    
C20   C24   1.492695 S    
Cr1   O13   1.982614 S    
O1    C3    1.269042 A    
C8    C9    1.405392 S    
N1    O27   1.301897 A    
C19   C47   1.434779 S    
C39   H11   1.076643 S    
C28   C32   1.485772 S    
C1    C18   1.430764 S    
C36   C37   1.376286 A    
O5    Cr3   2.045877 S    
O12   Cr3   1.928243 S    
C38   C39   1.399755 A    
C16   C18   1.203822 T    
C19   C23   1.398667 A    
O17   Cr5   1.931646 S    
C40   C41   1.506316 S    
N1    O28   1.299858 A    
C28   C29   1.370968 A    
O7    Cr1   2.055029 S    
N2    O29   1.302837 A    
C15   C17   1.203792 T    
O6    Cr3   1.937679 S    
C25   H14   1.111562 S    
O19   C45   1.277665 A    
C2    O5    1.271539 A    
C3    C14   1.428773 S    
C24   C25   1.513026 S    
Cr2   O13   1.990949 S    
C38   H7    1.081330 S    
C31   H16   1.079043 S    
O24   Cr6   2.055705 S    
C7    C44   1.426521 S    
C1    O3    1.271737 A    
C11   C43   1.428844 S    
C41   H10   1.112891 S    
C20   C21   1.362637 A    
O25   Cr6   1.923749 S    
O9    Cr2   2.042112 S    
O2    Cr1   1.938220 S    
C5    C26   1.436798 S    
Cr5   O26   1.985491 S    
C46   O22   1.271302 A    
O8    C4    1.284631 A    
C35   C39   1.407631 A    
C23   H2    1.076594 S    
C27   C31   1.411588 A    
C37   C41   1.493267 S    
C38   C42   1.399717 A    
C32   H4    1.099951 S    
C16   C17   1.409328 S    
C12   C14   1.202661 T    
O2    C1    1.276995 A    
C22   H1    1.079025 S    
C27   C46   1.451067 S    
C35   C36   1.398360 A    
C22   C23   1.396450 A    
O7    C6    1.257648 A    
C30   C34   1.405235 A    
C32   H5    1.112918 S    
C7    C9    1.201355 T    
C21   C25   1.508994 S    
O22   Cr5   2.049734 S    
O18   Cr6   2.042072 S    
O21   C46   1.267564 A    
O3    Cr2   2.056533 S    
C29   C33   1.512039 S    
C43   O16   1.268593 A    
C4    O9    1.264403 A    
O23   C47   1.275964 A    
Cr4   O26   1.982858 S    
O10   C5    1.279292 A    
C33   N1    1.450554 S    
Cr6   O26   1.990958 S    
C40   H12   1.107660 S    
C33   H6    1.112889 S    
