data_mof_unit_49778.cif
_audit_creation_date              2012-12-10T18:41:19-0500
_audit_creation_method            fapswitch 2.2
_symmetry_space_group_name_H-M    P1
_symmetry_Int_Tables_number       1
_space_group_crystal_system       triclinic
_cell_length_a                    15.108494
_cell_length_b                    13.837045
_cell_length_c                    10.820364
_cell_angle_alpha                 89.871346
_cell_angle_beta                  90.125986
_cell_angle_gamma                 89.915934
_cell_volume                      2262.05825512

loop_
_atom_site_label
_atom_site_type_symbol
_atom_type_description
_atom_site_fract_x
_atom_site_fract_y
_atom_site_fract_z
_atom_type_partial_charge
C1    C     C_R   0.329489 0.500191 0.501085 0.842848
C2    C     C_R   0.669743 0.499920 0.500882 0.881432
C3    C     C_R   0.186601 0.413048 0.486705 -0.372064
C4    C     C_R   0.810563 0.461194 0.400259 -0.384068
C5    C     C_R   0.094369 0.410703 0.488587 0.523336
C6    C     C_R   0.902811 0.462759 0.396940 0.534763
C7    C     C_R   0.046820 0.497442 0.501487 -0.014456
C8    C     C_R   0.949947 0.498124 0.499608 -0.015502
C9    C     C_R   0.471546 0.107017 0.603998 -0.286135
C10   C     C_R   0.527723 0.107015 0.396339 -0.284129
C11   C     C_R   0.471219 0.208838 0.601466 0.076318
C12   C     C_R   0.528591 0.208818 0.398677 0.086933
C13   C     C_R   0.499489 0.054296 0.500210 0.130080
C14   C     C_R   0.461880 0.892925 0.402223 -0.286325
C15   C     C_R   0.536861 0.892547 0.598541 -0.289988
C16   C     C_R   0.461768 0.791130 0.404686 0.108826
C17   C     C_R   0.537471 0.790794 0.595809 0.039938
C18   C     C_R   0.499388 0.945450 0.500342 0.130753
C19   C     C_R   0.501631 0.500077 0.262112 0.794371
C20   C     C_R   0.501569 0.499911 0.737840 0.814483
C21   C     C_R   0.509294 0.586873 0.063104 0.137105
C22   C     C_R   0.508849 0.586565 0.936021 0.117614
C23   C     C_R   0.510526 0.500116 0.129102 -0.096084
C24   C     C_R   0.510323 0.499787 0.870800 -0.081875
C25   C     C_R   0.524473 0.413230 0.064720 -0.219707
C26   C     C_R   0.524436 0.413077 0.935865 -0.205994
C27   C     C_3   0.445394 0.669175 0.928592 -0.483627
C28   C     C_3   0.445973 0.669802 0.068908 -0.477406
C29   C     C_R   0.091739 0.584551 0.519324 -0.366810
C30   C     C_R   0.904501 0.535804 0.601426 -0.361721
C31   C     C_R   0.184000 0.586621 0.523267 0.451077
C32   C     C_R   0.812080 0.539393 0.601713 0.439762
C33   C     C_R   0.232220 0.500464 0.503237 -0.203392
C34   C     C_R   0.765554 0.499838 0.501523 -0.168505
Cu1   Cu    Cu3+1 0.500000 0.596430 0.500000 0.952911
Cu2   Cu    Cu3+1 0.500000 0.403570 0.500000 0.941854
H1    H     H_    0.531165 0.345044 0.113162 0.155173
H2    H     H_    0.531165 0.344839 0.887919 0.158348
H3    H     H_    0.431375 0.930349 0.325107 0.132894
H4    H     H_    0.566909 0.929630 0.675986 0.133972
H5    H     H_    0.430580 0.752119 0.330042 0.123508
H6    H     H_    0.567693 0.751569 0.671187 0.129895
H7    H     H_    0.476014 0.734664 0.887225 0.193869
H8    H     H_    0.381266 0.649620 0.110368 0.196501
H9    H     H_    0.380456 0.648151 0.888361 0.195827
H10   H     H_    0.477189 0.735685 0.108085 0.191580
H11   H     H_    0.055026 0.651365 0.529982 0.165692
H12   H     H_    0.940947 0.561063 0.681431 0.161500
H13   H     H_    0.222213 0.345970 0.472656 0.194081
H14   H     H_    0.774080 0.431676 0.322692 0.167003
H15   H     H_    0.448540 0.069715 0.685915 0.131222
H16   H     H_    0.550594 0.069705 0.314517 0.130919
H17   H     H_    0.447548 0.247548 0.681470 0.118675
H18   H     H_    0.552554 0.247473 0.318675 0.116212
N1    N     N_R   0.500000 0.258690 0.500000 -0.169066
N2    N     N_R   0.500000 0.741330 0.500000 -0.172540
O1    O     O_R   0.371460 0.581430 0.500010 -0.532771
O2    O     O_R   0.628540 0.581430 0.499990 -0.583952
O3    O     O_R   0.371470 0.418560 0.500010 -0.591356
O4    O     O_R   0.628530 0.418560 0.499990 -0.575521
O5    O     O_R   0.499990 0.581450 0.319660 -0.594444
O6    O     O_R   0.500010 0.581450 0.680340 -0.592630
O7    O     O_R   0.500010 0.418580 0.319660 -0.600469
O8    O     O_R   0.499990 0.418580 0.680340 -0.601935
O9    O     O_3   0.226634 0.673902 0.540792 -0.556521
C35   C     C_3   0.225648 0.696095 0.668129 0.078483
H19   H     H_    0.251390 0.634707 0.724866 0.116861
H20   H     H_    0.157312 0.714375 0.698565 0.131076
C36   C     C_3   0.284719 0.783100 0.691427 -0.768931
H21   H     H_    0.261895 0.845687 0.635306 0.248514
H22   H     H_    0.282567 0.802880 0.790776 0.187759
H23   H     H_    0.354008 0.765435 0.666315 0.261898
O10   O     O_3   0.767003 0.570082 0.705721 -0.577625
C37   C     C_3   0.773946 0.671525 0.715252 0.071945
H24   H     H_    0.741459 0.707270 0.634679 0.149621
H25   H     H_    0.844226 0.695296 0.720910 0.130676
C38   C     C_3   0.727617 0.704406 0.832531 -0.802989
H26   H     H_    0.761195 0.673033 0.914789 0.248101
H27   H     H_    0.729481 0.784462 0.838892 0.191675
H28   H     H_    0.657640 0.680395 0.831620 0.249205
O11   O     O_3   0.050925 0.323822 0.472640 -0.539760
C39   C     C_3   0.039230 0.280541 0.589666 0.049259
H29   H     H_    0.003231 0.329670 0.653918 0.141325
H30   H     H_    0.104363 0.260544 0.630958 0.134090
C40   C     C_3   0.984561 0.189118 0.574845 -0.748271
H31   H     H_    0.019083 0.137709 0.512645 0.247557
H32   H     H_    0.974987 0.154214 0.666347 0.190641
H33   H     H_    0.918755 0.207197 0.534962 0.256082
O12   O     O_3   0.946723 0.426302 0.295286 -0.538819
C41   C     C_3   0.954671 0.500716 0.206608 0.053279
H34   H     H_    0.990119 0.564386 0.245671 0.137422
H35   H     H_    0.888260 0.523745 0.172462 0.137407
C42   C     C_3   0.007724 0.463518 0.097277 -0.757618
H36   H     H_    0.973657 0.400622 0.055001 0.250785
H37   H     H_    0.014295 0.521430 0.026674 0.187208
H38   H     H_    0.074827 0.441101 0.128330 0.250863

loop_
_geom_bond_atom_site_label_1
_geom_bond_atom_site_label_2
_ccdc_geom_bond_type
C15   C18   A    
C35   H20   S    
C42   H36   S    
C7    C29   A    
O10   C37   S    
C14   C18   A    
Cu1   Cu2   S    
C9    H15   S    
Cu2   O3    S    
C10   H16   S    
O11   C39   S    
C3    H13   S    
C1    C33   S    
C7    C8    S    
C38   H26   S    
C28   H10   S    
C37   H25   S    
C13   C18   S    
C29   H11   S    
Cu1   O2    S    
C30   H12   S    
C24   C26   A    
C1    O3    A    
C2    O4    A    
C38   H28   S    
C35   C36   S    
C3    C33   A    
C15   C17   A    
C36   H22   S    
C9    C13   A    
C17   H6    S    
C25   H1    S    
C14   H3    S    
C20   C24   S    
C19   O7    A    
C37   C38   S    
C31   C33   A    
Cu2   O7    S    
C11   H17   S    
C27   H9    S    
C38   H27   S    
C35   H19   S    
C42   H37   S    
C21   C22   A    
C40   H32   S    
C4    C34   A    
C37   H24   S    
C4    C6    A    
C32   O10   S    
C5    C7    A    
C26   H2    S    
C6    C8    A    
Cu2   O4    S    
C25   C26   A    
C40   H31   S    
C28   H8    S    
C4    H14   S    
C32   C34   A    
C20   O8    A    
C36   H23   S    
C19   C23   S    
C16   N2    A    
C1    O1    A    
C5    O11   S    
C41   H35   S    
Cu1   O5    S    
C9    C11   A    
C17   N2    A    
C10   C12   A    
C21   C28   S    
C39   H29   S    
C42   H38   S    
C39   H30   S    
C22   C27   S    
C21   C23   A    
C14   C16   A    
C39   C40   S    
C11   N1    A    
C41   C42   S    
C40   H33   S    
C31   O9    S    
Cu1   N2    S    
C3    C5    A    
C10   C13   A    
C2    O2    A    
C6    O12   S    
Cu1   O1    S    
C8    C30   A    
C29   C31   A    
Cu2   N1    S    
C30   C32   A    
C2    C34   S    
C41   H34   S    
C19   O5    A    
Cu1   O6    S    
C22   C24   A    
C23   C25   A    
C20   O6    A    
C36   H21   S    
C15   H4    S    
C12   N1    A    
C27   H7    S    
O9    C35   S    
C27   C28   S    
O12   C41   S    
Cu2   O8    S    
C16   H5    S    
C12   H18   S    
