data_mof_unit_12792.cif
_audit_creation_date              2012-12-11T14:21:06-0500
_audit_creation_method            fapswitch 2.2
_symmetry_space_group_name_H-M    P1
_symmetry_Int_Tables_number       1
_space_group_crystal_system       triclinic
_cell_length_a                    21.958665
_cell_length_b                    7.206421
_cell_length_c                    14.917139
_cell_angle_alpha                 90.000493
_cell_angle_beta                  107.011001
_cell_angle_gamma                 89.999864
_cell_volume                      2257.2617012

loop_
_atom_site_label
_atom_site_type_symbol
_atom_type_description
_atom_site_fract_x
_atom_site_fract_y
_atom_site_fract_z
_atom_type_partial_charge
O1    O     O_R   0.584770 0.505770 0.002090 -0.541847
O2    O     O_R   0.415230 0.005770 0.997910 -0.541846
O3    O     O_R   0.467060 0.173340 0.861950 -0.537080
O4    O     O_R   0.532940 0.673340 0.138050 -0.537081
C1    C     C_R   0.455221 0.344069 0.825911 0.677800
C2    C     C_R   0.544779 0.844070 0.174089 0.677800
O5    O     O_R   0.587510 0.175890 0.993210 -0.541154
O6    O     O_R   0.412490 0.675890 0.006790 -0.541154
O7    O     O_R   0.536540 0.008150 0.130100 -0.533966
O8    O     O_R   0.463460 0.508150 0.869900 -0.533965
C3    C     C_R   0.612984 0.344920 0.997515 0.740159
C4    C     C_R   0.387016 0.844920 0.002485 0.740162
O9    O     O_3   0.483140 0.340040 0.044760 -0.379203
O10   O     O_3   0.516860 0.840040 0.955240 -0.379203
V1    V     V_3+5 0.503130 0.064190 0.991700 1.444344
V2    V     V_3+5 0.496870 0.564190 0.008300 1.444342
C5    C     C_2   0.213916 0.727573 0.002938 -0.115682
C6    C     C_2   0.786084 0.227573 0.997060 -0.115683
C7    C     C_2   0.180362 0.886799 0.996435 -0.273433
C8    C     C_2   0.819638 0.386798 0.003565 -0.273426
H1    H     H_    0.190710 0.596638 0.008152 0.137039
H2    H     H_    0.809289 0.096638 0.991846 0.137039
H3    H     H_    0.202039 0.019187 0.990124 0.128293
H4    H     H_    0.797961 0.519187 0.009876 0.128295
C9    C     C_2   0.281786 0.714599 0.002672 -0.111600
C10   C     C_2   0.718213 0.214599 0.997327 -0.111603
C11   C     C_2   0.319924 0.861426 0.003426 -0.274029
C12   C     C_2   0.680075 0.361426 0.996574 -0.274030
H5    H     H_    0.300857 0.575605 0.002486 0.135351
H6    H     H_    0.699143 0.075605 0.997511 0.135351
C13   C     C_R   0.927266 0.889407 0.723781 -0.032145
C14   C     C_R   0.072732 0.389412 0.276220 -0.032154
C15   C     C_R   0.572841 0.849181 0.275738 -0.030110
C16   C     C_R   0.427158 0.349177 0.724262 -0.030109
C17   C     C_R   0.934959 0.962064 0.569764 -0.155953
C18   C     C_R   0.065041 0.462126 0.430233 -0.155950
C19   C     C_R   0.964068 0.935910 0.665114 -0.173072
C20   C     C_R   0.035932 0.435959 0.334884 -0.173067
C21   C     C_R   0.861794 0.860127 0.686182 -0.181591
C22   C     C_R   0.138202 0.360105 0.313822 -0.181586
C23   C     C_R   0.831674 0.872136 0.588537 0.076829
C24   C     C_R   0.168322 0.372134 0.411467 0.076829
C25   C     C_R   0.868872 0.938426 0.532037 0.128293
C26   C     C_R   0.131126 0.438461 0.467963 0.128291
C27   C     C_R   0.765054 0.836960 0.546662 0.003819
C28   C     C_R   0.234941 0.336945 0.453344 0.003821
C29   C     C_R   0.735204 0.900769 0.452615 0.003581
C30   C     C_R   0.264793 0.400767 0.547390 0.003580
C31   C     C_R   0.773346 0.997829 0.405045 -0.045648
C32   C     C_R   0.226653 0.497849 0.594958 -0.045646
C33   C     C_R   0.839363 0.999295 0.441332 -0.229746
C34   C     C_R   0.160636 0.499338 0.558667 -0.229743
C35   C     C_R   0.726949 0.739691 0.594196 -0.044996
C36   C     C_R   0.273044 0.239655 0.405812 -0.044998
C37   C     C_R   0.660930 0.738422 0.558022 -0.229334
C38   C     C_R   0.339063 0.238386 0.441983 -0.229332
C39   C     C_R   0.631381 0.799649 0.467396 0.128424
C40   C     C_R   0.368614 0.299628 0.532606 0.128425
C41   C     C_R   0.668551 0.865834 0.410824 0.076271
C42   C     C_R   0.331446 0.365825 0.589179 0.076268
C43   C     C_R   0.565267 0.776416 0.429797 -0.156148
C44   C     C_R   0.434728 0.276395 0.570203 -0.156148
C45   C     C_R   0.536083 0.802868 0.334491 -0.172459
C46   C     C_R   0.463914 0.302857 0.665507 -0.172461
C47   C     C_R   0.638346 0.878031 0.313211 -0.181642
C48   C     C_R   0.361653 0.378028 0.686791 -0.181643
H7    H     H_    0.665322 0.892421 0.263761 0.116428
H8    H     H_    0.334677 0.392421 0.736243 0.116429
H9    H     H_    0.485468 0.777387 0.305768 0.110063
H10   H     H_    0.514530 0.277376 0.694229 0.110065
H11   H     H_    0.963669 0.009643 0.526274 0.119298
H12   H     H_    0.036332 0.509737 0.473720 0.119298
H13   H     H_    0.014659 0.961695 0.693928 0.109812
H14   H     H_    0.985343 0.461770 0.306068 0.109815
H15   H     H_    0.834752 0.845504 0.735540 0.116402
H16   H     H_    0.165243 0.345450 0.264465 0.116402
H17   H     H_    0.536586 0.728925 0.473348 0.119313
H18   H     H_    0.463408 0.228898 0.526651 0.119313
O11   O     O_R   0.036450 0.233070 0.130130 -0.535305
O12   O     O_R   0.963550 0.733070 0.869870 -0.535304
O13   O     O_R   0.912470 0.560570 0.006790 -0.544179
O14   O     O_R   0.087530 0.060570 0.993210 -0.544180
C49   C     C_R   0.886969 0.391925 0.002520 0.740025
C50   C     C_R   0.113031 0.891925 0.997480 0.740026
O15   O     O_R   0.032920 0.562940 0.138050 -0.537854
O16   O     O_R   0.967080 0.062940 0.861950 -0.537856
O17   O     O_R   0.084790 0.730500 0.002090 -0.539016
O18   O     O_R   0.915210 0.230500 0.997910 -0.539017
C51   C     C_R   0.044749 0.394636 0.174550 0.685153
C52   C     C_R   0.955250 0.894635 0.825451 0.685154
O19   O     O_3   0.016820 0.396170 0.955260 -0.379743
O20   O     O_3   0.983180 0.896170 0.044740 -0.379743
V3    V     V_3+5 0.996880 0.672090 0.008300 1.442554
V4    V     V_3+5 0.003120 0.172090 0.991700 1.442548
C53   C     C_1   0.747507 0.120329 0.326202 0.291584
N1    N     N_1   0.727203 0.219240 0.263377 -0.362003
C54   C     C_1   0.252495 0.620344 0.673804 0.291584
N2    N     N_1   0.272800 0.719248 0.736632 -0.362005
C55   C     C_1   0.752850 0.616698 0.672811 0.290565
N3    N     N_1   0.773211 0.517382 0.735445 -0.363988
C56   C     C_1   0.247141 0.116640 0.327205 0.290565
N4    N     N_1   0.226780 0.017308 0.264578 -0.363983
H19   H     H_    0.302096 0.001254 0.004395 0.128875
H20   H     H_    0.697904 0.501254 0.995606 0.128878
H21   H     H_    0.867741 0.065629 0.401774 0.126473
H22   H     H_    0.132260 0.565692 0.598223 0.126471
H23   H     H_    0.632577 0.671990 0.597588 0.126173
H24   H     H_    0.367415 0.171944 0.402418 0.126172

loop_
_geom_bond_atom_site_label_1
_geom_bond_atom_site_label_2
_ccdc_geom_bond_type
C40   C44   A    
C48   H8    S    
C56   N4    T    
O14   V4    S    
C36   C56   S    
C53   N1    T    
C6    C10   S    
C50   O17   A    
O2    C4    A    
C16   C48   A    
C2    O7    A    
C54   N2    T    
C15   C47   A    
C21   H15   S    
C29   C31   A    
C35   C55   S    
O5    C3    A    
C17   C19   A    
C45   H9    S    
C39   C41   A    
C40   C42   A    
C24   C28   A    
C11   H19   S    
C43   C45   A    
C38   H24   S    
C44   C46   A    
O16   V4    S    
O15   V3    S    
C14   C51   S    
C43   H17   S    
C31   C33   A    
O1    C3    A    
C32   C34   A    
C46   H10   S    
C17   C25   A    
O6    C4    A    
C26   C34   A    
C30   C32   A    
C49   O18   A    
C42   C48   A    
O6    V2    S    
C23   C25   A    
C24   C26   A    
O13   C49   A    
C30   C42   A    
C28   C30   A    
C27   C29   A    
C9    H5    S    
C36   C38   A    
C4    C11   S    
C34   H22   S    
C8    H4    S    
O11   V4    S    
C21   C23   A    
O16   C52   A    
O15   C51   A    
C47   H7    S    
C27   C35   A    
C5    H1    S    
C22   H16   S    
C37   H23   S    
O4    V2    S    
C7    H3    S    
O13   V3    S    
C12   H20   S    
C55   N3    T    
C15   C45   A    
C13   C52   S    
C1    C16   S    
C28   C36   A    
C16   C46   A    
O1    V2    S    
C31   C53   S    
O2    V1    S    
O4    C2    A    
C10   H6    S    
C14   C20   A    
C37   C39   A    
C18   C26   A    
C35   C37   A    
C7    C50   S    
O3    V1    S    
C20   H14   S    
C19   H13   S    
C32   C54   S    
C6    H2    S    
C10   C12   D    
C44   H18   S    
C22   C24   A    
O3    C1    A    
C8    C49   S    
C39   C43   A    
C9    C11   D    
O14   C50   A    
C2    C15   S    
C5    C9    S    
C18   C20   A    
O7    V1    S    
C1    O8    A    
C17   H11   S    
O8    V2    S    
C41   C47   A    
O19   V4    S    
C25   C33   A    
C3    C12   S    
O17   V3    S    
O5    V1    S    
O20   V3    S    
C5    C7    D    
C38   C40   A    
C6    C8    D    
C14   C22   A    
O12   C52   A    
C33   H21   S    
O11   C51   A    
C29   C41   A    
C13   C19   A    
O9    V2    S    
C13   C21   A    
O18   V4    S    
C23   C27   A    
O10   V1    S    
O12   V3    S    
C18   H12   S    
