data_mof_unit_24065.cif
_audit_creation_date              2012-12-11T17:22:45-0500
_audit_creation_method            fapswitch 2.2
_symmetry_space_group_name_H-M    P1
_symmetry_Int_Tables_number       1
_space_group_crystal_system       triclinic
_cell_length_a                    8.318718
_cell_length_b                    16.544944
_cell_length_c                    26.900977
_cell_angle_alpha                 96.007677
_cell_angle_beta                  92.256397
_cell_angle_gamma                 86.482317
_cell_volume                      3673.15764135

loop_
_atom_site_label
_atom_site_type_symbol
_atom_type_description
_atom_site_fract_x
_atom_site_fract_y
_atom_site_fract_z
_atom_type_partial_charge
Ba1   Ba    Ba6+2 0.851940 0.461560 0.523510 1.796546
Ba2   Ba    Ba6+2 0.337880 0.538370 0.476480 1.762860
C1    C     C_3   0.590273 0.202031 0.705407 0.365030
C2    C     C_3   0.581398 0.266126 0.668121 0.848136
C3    C     C_3   0.514217 0.668322 0.628109 0.392770
C4    C     C_3   0.546175 0.687660 0.684135 0.285859
C5    C     C_3   0.103039 0.720463 0.337479 0.599409
C6    C     C_3   0.166319 0.742883 0.288113 0.733825
C7    C     C_3   0.538457 0.748456 0.368694 0.324963
C8    C     C_3   0.549268 0.833917 0.353065 -0.309998
C9    C     C_R   0.029263 0.441979 0.180921 0.657409
C10   C     C_R   0.915844 0.578563 0.179802 0.747668
C11   C     C_2   0.745654 0.524005 0.269642 0.404992
C12   C     C_3   0.109109 0.165337 0.645530 0.696166
C13   C     C_3   0.700332 0.519330 0.323638 0.047591
C14   C     C_1   0.982567 0.487932 0.343735 0.054429
C15   C     C_2   0.025901 0.490559 0.296875 -0.145467
C16   C     C_2   0.902612 0.509972 0.256698 0.187147
C17   C     C_R   0.034711 0.508983 0.104045 -0.199174
C18   C     C_R   0.074025 0.440226 0.130311 -0.057158
C19   C     C_R   0.154765 0.371043 0.104968 0.468003
C20   C     C_R   0.951933 0.578175 0.128647 -0.108455
C21   C     C_2   0.845382 0.523819 0.359084 -0.204443
C22   C     C_2   0.353042 0.486655 0.641646 -0.227784
C23   C     C_3   0.005034 0.093636 0.628847 0.198428
C24   C     C_R   0.174598 0.434418 0.974661 0.068368
C25   C     C_R   0.098286 0.580690 0.977889 -0.063958
C26   C     C_R   0.151701 0.506811 0.950364 0.015706
C27   C     C_R   0.220078 0.361243 0.945360 -0.097912
C28   C     C_R   0.248265 0.359835 0.894588 -0.043580
C29   C     C_R   0.233346 0.431332 0.870648 -0.024730
C30   C     C_R   0.185268 0.505387 0.898492 -0.143437
C31   C     C_R   0.170963 0.577698 0.874527 -0.136631
C32   C     C_R   0.205792 0.574026 0.822849 0.600873
C33   C     C_R   0.265832 0.430011 0.819378 0.629147
C34   C     C_3   0.163431 0.292995 0.425875 0.435906
C35   C     C_2   0.451292 0.483170 0.730622 -0.025205
C36   C     C_3   0.497840 0.490491 0.677284 -0.072367
C37   C     C_1   0.212933 0.518569 0.657332 0.037857
C38   C     C_2   0.171515 0.519127 0.704626 -0.032170
C39   C     C_2   0.296308 0.499432 0.744107 0.237624
C40   C     C_R   0.149224 0.437174 0.027114 -0.018135
C41   C     C_R   0.076771 0.508347 0.052875 0.052888
C42   C     C_R   0.043189 0.578509 0.027421 0.028060
C43   C     C_R   0.193244 0.370833 0.054690 -0.149723
C44   C     C_R   0.904300 0.644561 0.101176 0.420058
C45   C     C_3   0.143518 0.200329 0.421886 0.572988
C46   C     C_R   0.106204 0.654002 0.955044 0.285959
C47   C     C_R   0.129580 0.652120 0.903367 0.424593
C48   C     C_R   0.944238 0.642052 0.050877 -0.093763
C49   C     C_R   0.390552 0.268383 0.525000 -0.187863
C50   C     C_R   0.528185 0.242490 0.497993 0.078570
C51   C     C_R   0.578044 0.159269 0.492594 -0.005967
C52   C     C_R   0.488606 0.101473 0.513332 0.343102
C53   C     C_R   0.344676 0.128744 0.537547 -0.117833
C54   C     C_R   0.295070 0.212073 0.543649 -0.058262
C55   C     C_R   0.618860 0.853263 0.507238 -0.165467
C56   C     C_3   0.011319 0.708693 0.580768 0.295353
C57   C     C_R   0.667551 0.770313 0.503442 -0.016430
C58   C     C_R   0.712032 0.909644 0.486576 0.203034
C59   C     C_R   0.806038 0.742100 0.478610 -0.376512
C60   C     C_R   0.904278 0.795878 0.459905 0.014844
C61   C     C_R   0.857062 0.879986 0.462804 0.324380
C62   C     C_3   0.015376 0.800741 0.591905 0.275279
C63   C     C_3   0.607477 0.335056 0.362720 0.698720
C64   C     C_3   0.500739 0.302302 0.316164 0.567635
H1    H     H_    0.136458 0.181373 0.459682 -0.021469
H2    H     H_    0.885720 0.692240 0.573384 -0.049486
H3    H     H_    0.083326 0.688968 0.547276 0.054102
H4    H     H_    0.950175 0.831823 0.562042 -0.021313
H5    H     H_    0.956580 0.821076 0.627800 0.124300
H6    H     H_    0.544133 0.391220 0.379874 0.006509
H7    H     H_    0.717164 0.176842 0.708536 0.043325
H8    H     H_    0.567214 0.251180 0.294210 -0.021060
H9    H     H_    0.511968 0.151879 0.690869 0.041071
H10   H     H_    0.382307 0.670068 0.620391 -0.012503
H11   H     H_    0.567672 0.606335 0.616426 -0.023696
H12   H     H_    0.515920 0.753585 0.694694 0.096839
H13   H     H_    0.465728 0.651951 0.704381 -0.063509
H14   H     H_    0.165821 0.663017 0.346559 0.018464
H15   H     H_    0.291613 0.760125 0.295397 -0.047714
H16   H     H_    0.644805 0.736010 0.393227 0.039351
H17   H     H_    0.428324 0.747171 0.390307 0.056353
H18   H     H_    0.647649 0.835107 0.326529 0.193915
H19   H     H_    0.573878 0.876857 0.386606 0.057060
H20   H     H_    0.434576 0.855685 0.335334 0.145743
H21   H     H_    0.149873 0.476460 0.286885 0.201539
H22   H     H_    0.544729 0.471398 0.758708 0.078685
H23   H     H_    0.282542 0.301893 0.874032 0.121102
H24   H     H_    0.230427 0.303185 0.960402 0.068850
H25   H     H_    0.262282 0.318004 0.038475 0.086859
H26   H     H_    0.234399 0.151632 0.633193 -0.009145
H27   H     H_    0.049092 0.536785 0.715415 0.100187
H28   H     H_    0.889065 0.688819 0.029607 0.134563
H29   H     H_    0.836708 0.555072 0.396538 0.065277
H30   H     H_    0.365501 0.459393 0.603367 0.078287
H31   H     H_    0.511853 0.873557 0.527701 0.178084
H32   H     H_    0.270002 0.084592 0.550630 0.092096
H33   H     H_    0.683595 0.139878 0.471198 0.136893
H34   H     H_    0.351166 0.332178 0.528193 0.050783
H35   H     H_    0.881959 0.105947 0.643038 0.111873
H36   H     H_    0.843022 0.678004 0.476689 0.080414
H37   H     H_    0.997112 0.082849 0.587449 0.051552
H38   H     H_    0.290846 0.305704 0.434221 -0.117570
H39   H     H_    0.091017 0.320276 0.457692 -0.004342
N1    N     N_R   0.950626 0.510351 0.204941 -0.427232
N2    N     N_R   0.253368 0.500939 0.796206 -0.444626
N3    N     N_2   0.534137 0.015922 0.509211 -0.198491
N4    N     N_2   0.668093 0.995555 0.490484 -0.196998
O1    O     O_2   0.915540 0.542930 0.617950 -0.434349
O2    O     O_3   0.624049 0.276595 0.397380 -0.586429
O3    O     O_3   0.039839 0.237976 0.628929 -0.523374
O4    O     O_2   0.274150 0.457040 0.382020 -0.466414
O5    O     O_3   0.042160 0.457070 0.442220 -0.501134
O6    O     O_3   0.525310 0.603770 0.411640 -0.517736
O7    O     O_3   0.113739 0.325828 0.381196 -0.568249
O8    O     O_3   0.637620 0.597020 0.524620 -0.491408
O9    O     O_3   0.118810 0.645070 0.435950 -0.509381
O10   O     O_2   0.235647 0.789571 0.468303 -0.432867
O11   O     O_3   0.131333 0.783212 0.375736 -0.637955
O12   O     O_3   0.147530 0.542870 0.557780 -0.513790
O13   O     O_3   0.552080 0.402920 0.475380 -0.522534
O14   O     O_2   0.387280 0.697260 0.523450 -0.431440
O15   O     O_3   0.583060 0.727126 0.603188 -0.611743
O16   O     O_2   0.370047 0.561924 0.326516 -0.443341
O17   O     O_3   0.536605 0.690350 0.326447 -0.565053
O18   O     O_2   0.057827 0.382077 0.203460 -0.560823
O19   O     O_2   0.304852 0.365558 0.795244 -0.489729
O20   O     O_2   0.854662 0.640070 0.202301 -0.437404
O21   O     O_2   0.196424 0.636020 0.801660 -0.561660
O22   O     O_3   0.664390 0.396160 0.588360 -0.440276
O23   O     O_2   0.822937 0.451892 0.671466 -0.438883
O24   O     O_3   0.072590 0.672931 0.622857 -0.614937
O25   O     O_3   0.684072 0.327574 0.686376 -0.547095
O26   O     O_2   0.802410 0.302720 0.476520 -0.427500
O27   O     O_3   0.070880 0.354870 0.564040 -0.441999
O28   O     O_2   0.955790 0.212636 0.534086 -0.468070
P1    P     P_3+3 0.086060 0.566890 0.610430 1.019918
P2    P     P_3+3 0.625290 0.314770 0.461990 1.076904
P3    P     P_3+3 0.093493 0.249624 0.567654 1.040017
P4    P     P_3+3 0.103630 0.433040 0.389570 1.073329
P5    P     P_3+3 0.097913 0.752215 0.434962 1.018993
P6    P     P_3+3 0.661632 0.415423 0.654456 1.127458
P7    P     P_3+3 0.570640 0.699238 0.538715 1.006992
P8    P     P_3+3 0.533888 0.592823 0.346621 1.052888
Cl1   Cl    Cl    0.651854 0.217751 0.610489 -0.764378
Cl2   Cl    Cl    0.961679 0.171009 0.390103 -0.665530
Cl3   Cl    Cl    0.309899 0.141425 0.394577 -0.682570
Cl4   Cl    Cl    0.218420 0.829916 0.595716 -0.583042
O29   O     O_3   0.763812 0.356425 0.350615 -0.712595
C65   C     C_3   0.831210 0.309709 0.308348 0.112598
H40   H     H_    0.957829 0.323926 0.305029 0.105291
H41   H     H_    0.829435 0.243375 0.310983 0.123091
H42   H     H_    0.771779 0.326923 0.273054 0.075146
Cl5   Cl    Cl    0.453478 0.381790 0.276944 -0.681533
O30   O     O_3   0.356512 0.273768 0.331272 -0.615889
C66   C     C_3   0.281343 0.225755 0.291199 0.294802
H43   H     H_    0.357068 0.169701 0.279636 0.058440
H44   H     H_    0.251058 0.260612 0.258633 0.099060
H45   H     H_    0.166246 0.206012 0.303877 0.119652
Cl6   Cl    Cl    0.375873 0.302508 0.661854 -0.696455
O31   O     O_3   0.710306 0.668070 0.695393 -0.634472
C67   C     C_3   0.737831 0.676193 0.747616 0.197757
H46   H     H_    0.670910 0.631402 0.765536 0.018614
H47   H     H_    0.705624 0.739267 0.764258 0.041519
H48   H     H_    0.868180 0.663264 0.755556 0.097861
O32   O     O_3   0.539777 0.238180 0.752566 -0.568075
C68   C     C_3   0.543087 0.178365 0.786300 0.297770
H49   H     H_    0.505237 0.207875 0.823261 0.071404
H50   H     H_    0.666888 0.150291 0.791363 0.017013
H51   H     H_    0.457046 0.130786 0.773948 0.079008
Cl7   Cl    Cl    0.087977 0.003320 0.652758 -0.583182
Cl8   Cl    Cl    0.894827 0.704335 0.329142 -0.731967
O33   O     O_3   0.157574 0.675323 0.251423 -0.638762
C69   C     C_3   0.267707 0.680914 0.213483 0.260957
H52   H     H_    0.258800 0.626976 0.185549 0.080076
H53   H     H_    0.393789 0.680786 0.228740 0.131220
H54   H     H_    0.239543 0.736071 0.193802 0.057862
Cl9   Cl    Cl    0.054060 0.830070 0.267447 -0.643320
Cl10  Cl    Cl    0.119699 0.180393 0.712338 -0.539655
O34   O     O_3   0.206765 0.304876 0.130099 -0.586701
C70   C     C_3   0.104821 0.240708 0.116057 0.231651
H55   H     H_    0.976184 0.259884 0.122902 0.038721
H56   H     H_    0.138631 0.190364 0.139310 0.079500
H57   H     H_    0.119647 0.216434 0.076264 0.006216
Cl11  Cl    Cl    0.590652 0.531951 0.223276 -0.611078
O35   O     O_3   0.802433 0.707659 0.121765 -0.601038
C71   C     C_3   0.882169 0.781050 0.125959 0.299396
H58   H     H_    0.891272 0.803909 0.088842 0.047917
H59   H     H_    0.003652 0.774476 0.144435 0.057092
H60   H     H_    0.810247 0.827725 0.149637 0.110519
Cl12  Cl    Cl    0.124783 0.749556 0.990723 -0.676118
O36   O     O_3   0.126209 0.724866 0.882091 -0.558549
C72   C     C_3   0.963968 0.749236 0.871513 0.325244
H61   H     H_    0.897981 0.767235 0.906473 0.054754
H62   H     H_    0.900784 0.700642 0.848089 -0.052603
H63   H     H_    0.961244 0.803129 0.850130 0.081678
O37   O     O_3   0.959285 0.933550 0.446319 -0.611092
C73   C     C_3   0.905841 0.951671 0.398134 0.271822
H64   H     H_    0.890424 0.895654 0.372081 0.073754
H65   H     H_    0.998523 0.986323 0.382525 0.165716
H66   H     H_    0.791759 0.990387 0.399638 0.069879

loop_
_geom_bond_atom_site_label_1
_geom_bond_atom_site_label_2
_ccdc_geom_bond_type
C25   C46   A    
C72   H62   S    
C53   C54   A    
C8    H19   S    
C66   H43   S    
C36   P6    S    
O3    P3    S    
C35   H22   S    
C9    O18   D    
C17   C18   A    
C38   H27   S    
O27   P3    S    
C50   P2    S    
Ba2   O9    S    
C1    O32   S    
C5    C6    S    
C69   H53   S    
Ba2   O14   S    
C51   H33   S    
C19   O34   S    
C3    O15   S    
C35   C36   S    
C11   C16   D    
C71   H60   S    
C32   N2    Am   
O30   C66   S    
C67   H47   S    
O13   P2    S    
Ba1   Ba2   S    
C33   N2    Am   
C22   H30   S    
C3    C4    S    
C54   P3    S    
Ba2   O4    S    
C6    O33   S    
C4    H12   S    
C72   H63   S    
C31   C47   A    
C52   C53   A    
C64   H8    S    
C10   C20   A    
C22   C37   D    
N3    N4    D    
C34   C45   S    
C71   H59   S    
C49   C54   A    
C65   H42   S    
C8    H18   S    
C63   O29   S    
C70   H55   S    
C63   O2    S    
C58   N4    S    
O25   P6    S    
Ba1   O13   S    
C25   C42   A    
Ba2   O8    S    
C68   H51   S    
C4    O31   S    
C21   H29   S    
C14   C15   D    
O14   P7    D    
C73   H66   S    
C22   C36   S    
C65   H40   S    
O37   C73   S    
C62   H4    S    
C44   O35   S    
Ba1   O27   S    
C1    H9    S    
C7    C8    S    
Ba1   P2    S    
C7    H16   S    
O23   P6    D    
C13   C21   S    
C72   H61   S    
C12   O3    S    
C37   P1    S    
C55   H31   S    
O24   P1    S    
C66   H44   S    
C33   O19   D    
C60   P5    S    
C28   H23   S    
C1    H7    S    
C45   H1    S    
C27   H24   S    
O17   P8    S    
C17   C41   A    
C31   C32   A    
C69   H54   S    
C19   C43   A    
Ba2   O13   S    
C56   O24   S    
C56   C62   S    
O28   P3    D    
C45   Cl2   S    
C9    C18   A    
C57   C59   A    
C10   O20   D    
C62   H5    S    
C49   C50   A    
O5    P4    S    
C68   H49   S    
O1    P1    D    
C67   H48   S    
O11   P5    S    
C37   C38   D    
C13   P8    S    
C48   H28   S    
C55   C58   A    
Ba1   O22   S    
O34   C70   S    
C6    H15   S    
C71   H58   S    
C70   H57   S    
O12   P1    S    
O26   P2    D    
C41   C42   A    
C16   N1    S    
C60   C61   A    
Ba1   O1    S    
Ba2   O6    S    
C29   C30   A    
C26   C30   A    
C28   C29   A    
C2    Cl1   S    
C17   C20   A    
C9    N1    Am   
C15   C16   S    
Ba1   O8    S    
O2    P2    S    
C12   H26   S    
C7    H17   S    
C23   Cl7   S    
C56   H2    S    
C38   C39   S    
C20   C44   A    
C2    Cl6   S    
C57   P7    S    
O36   C72   S    
C14   C21   D    
C11   C13   S    
C58   C61   A    
C40   C41   A    
C3    H11   S    
C1    C2    S    
C34   O7    S    
O32   C68   S    
O22   P6    S    
C50   C51   A    
C24   C40   A    
C2    O25   S    
O31   C67   S    
Ba2   O12   S    
C42   C48   A    
C49   H34   S    
Ba2   P4    S    
C44   C48   A    
C45   Cl3   S    
C8    H20   S    
C11   Cl11  S    
C39   N2    S    
Ba1   O12   S    
C34   H39   S    
C15   H21   S    
C5    O11   S    
C23   H37   S    
O9    P5    S    
C56   H3    S    
C51   C52   A    
C66   H45   S    
C63   H6    S    
O6    P8    S    
C24   C26   A    
C7    O17   S    
C61   O37   S    
C52   N3    S    
C62   Cl4   S    
C34   H38   S    
C30   C31   A    
C3    H10   S    
C14   P4    S    
O35   C71   S    
C69   H52   S    
O16   P8    D    
C10   N1    Am   
Ba2   O5    S    
C6    Cl9   S    
C23   H35   S    
C4    H13   S    
C64   Cl5   S    
C47   O36   S    
C46   C47   A    
C5    Cl8   S    
C53   H32   S    
C68   H50   S    
O4    P4    D    
C59   H36   S    
C29   C33   A    
C65   H41   S    
C12   C23   S    
C35   C39   D    
C59   C60   A    
C43   H25   S    
C70   H56   S    
C46   Cl12  S    
C67   H46   S    
C55   C57   A    
C27   C28   A    
O7    P4    S    
C73   H64   S    
C18   C19   A    
C32   O21   D    
C24   C27   A    
O8    P7    S    
C63   C64   S    
Ba1   O5    S    
C25   C26   A    
C73   H65   S    
O10   P5    D    
O29   C65   S    
O15   P7    S    
C64   O30   S    
Ba1   O26   S    
C40   C43   A    
C12   Cl10  S    
Ba1   P1    S    
C5    H14   S    
O33   C69   S    
