data_mof_unit_29743.cif
_audit_creation_date              2012-12-10T18:46:18-0500
_audit_creation_method            fapswitch 2.2
_symmetry_space_group_name_H-M    P1
_symmetry_Int_Tables_number       1
_space_group_crystal_system       triclinic
_cell_length_a                    9.857506
_cell_length_b                    10.678755
_cell_length_c                    13.109674
_cell_angle_alpha                 90.461493
_cell_angle_beta                  69.536787
_cell_angle_gamma                 90.362908
_cell_volume                      1292.86802065

loop_
_atom_site_label
_atom_site_type_symbol
_atom_type_description
_atom_site_fract_x
_atom_site_fract_y
_atom_site_fract_z
_atom_type_partial_charge
C1    C     C_R   0.501909 0.739971 0.497090 0.902446
C2    C     C_R   0.431454 0.518004 0.986109 0.081846
C3    C     C_R   0.456189 0.554629 0.878331 0.059060
C4    C     C_R   0.543378 0.535573 0.028910 0.091295
C5    C     C_R   0.667126 0.608493 0.972158 0.176336
C6    C     C_R   0.679393 0.660575 0.872254 -0.251276
C7    C     C_R   0.574836 0.634688 0.826161 -0.180689
C8    C     C_R   0.535225 0.481780 0.127051 -0.239052
C9    C     C_R   0.754238 0.588047 0.122806 -0.176392
C10   C     C_R   0.362254 0.509807 0.825330 -0.161028
C11   C     C_R   0.632831 0.937959 0.438096 0.389834
C12   C     C_R   0.418305 0.503758 0.705243 0.845528
C13   C     C_R   0.630307 0.066575 0.441076 -0.214736
C14   C     C_R   0.500646 0.127978 0.496286 -0.078424
C15   C     C_R   0.372088 0.063227 0.547739 -0.146507
C16   C     C_R   0.374074 0.934993 0.547154 -0.228701
C17   C     C_R   0.504098 0.872574 0.493603 -0.117912
C18   C     C_R   0.955194 0.415520 0.438596 -0.121731
C19   C     C_R   0.098727 0.415240 0.438266 0.444149
C20   C     C_R   0.044037 0.584676 0.561514 -0.158746
C21   C     C_R   0.900485 0.584947 0.561119 -0.023373
C22   C     C_R   0.499869 0.260133 0.499361 0.896013
C23   C     C_R   0.580845 0.500464 0.295420 0.906043
C24   C     C_R   0.774021 0.631347 0.018316 -0.209292
C25   C     C_R   0.631237 0.516631 0.178233 -0.078430
C26   C     C_R   0.224448 0.458577 0.888876 0.156628
C27   C     C_R   0.191749 0.443378 0.000684 -0.163534
C28   C     C_R   0.294629 0.468220 0.048031 -0.203266
H1    H     H_    0.829987 0.615677 0.162077 0.189403
H2    H     H_    0.728519 0.118612 0.398797 0.182989
H3    H     H_    0.271496 0.111567 0.589911 0.166190
H4    H     H_    0.274722 0.884658 0.589741 0.164367
H5    H     H_    0.922237 0.348250 0.389520 0.160853
H6    H     H_    0.075989 0.652370 0.610762 0.136597
H7    H     H_    0.824428 0.653510 0.609449 0.137462
H8    H     H_    0.770264 0.720500 0.829301 0.139728
H9    H     H_    0.868510 0.687762 0.976125 0.146223
H10   H     H_    0.449841 0.416905 0.168614 0.193056
H11   H     H_    0.261896 0.452166 0.134461 0.178980
H12   H     H_    0.087552 0.406401 0.051444 0.154116
H13   H     H_    0.586197 0.680033 0.750134 0.156445
N1    N     N_R   0.142790 0.500030 0.500030 -0.105468
N2    N     N_R   0.857180 0.499940 0.500010 -0.095734
O1    O     O_R   0.385370 0.683250 0.500010 -0.624140
O2    O     O_R   0.614700 0.683220 0.500010 -0.579873
O3    O     O_R   0.328400 0.499990 0.653620 -0.619678
O4    O     O_R   0.557730 0.499960 0.653620 -0.609766
O5    O     O_R   0.385300 0.316780 0.499990 -0.566841
O6    O     O_R   0.614630 0.316750 0.499990 -0.629078
O7    O     O_R   0.442270 0.500040 0.346380 -0.567797
O8    O     O_R   0.671600 0.500010 0.346380 -0.610517
Zn1   Zn    Zn3+2 0.346870 0.500020 0.500000 0.991094
Zn2   Zn    Zn3+2 0.653130 0.499980 0.500000 0.979512
Cl1   Cl    Cl    0.217852 0.303411 0.356334 -0.633996
C29   C     C_3   0.109684 0.416750 0.843041 -0.387007
C30   C     C_3   0.141592 0.286138 0.792129 -0.801064
H14   H     H_    0.251485 0.281276 0.729554 0.255111
H15   H     H_    0.133989 0.215992 0.856029 0.251058
H16   H     H_    0.061094 0.261738 0.753365 0.244935
H17   H     H_    0.001644 0.412772 0.908847 0.199241
H18   H     H_    0.095853 0.486025 0.784982 0.218916
Cl2   Cl    Cl    0.796573 0.864574 0.359649 -0.611406

loop_
_geom_bond_atom_site_label_1
_geom_bond_atom_site_label_2
_ccdc_geom_bond_type
O1    Zn1   S    
C20   N1    A    
C29   C30   S    
C30   H16   S    
C9    C24   A    
C15   H3    S    
C6    C7    A    
C21   H7    S    
C13   C14   A    
C16   H4    S    
C1    O1    A    
O7    Zn1   S    
C19   N1    A    
C9    H1    S    
C27   H12   S    
C4    C8    A    
C11   Cl2   S    
C29   H17   S    
C26   C29   S    
C10   C26   A    
C23   C25   S    
C24   H9    S    
O2    Zn2   S    
C3    C10   A    
C18   N2    A    
C20   C21   A    
C8    C25   A    
C11   C13   A    
C1    O2    A    
C26   C27   A    
C5    C6    A    
C5    C24   A    
C10   C12   S    
C8    H10   S    
C12   O4    A    
O6    Zn2   S    
O4    Zn2   S    
C29   H18   S    
C19   Cl1   S    
C30   H15   S    
C22   O5    A    
C2    C3    A    
C3    C7    A    
C7    H13   S    
C14   C22   S    
C18   H5    S    
C1    C17   S    
C9    C25   A    
C15   C16   A    
C2    C4    A    
O3    Zn1   S    
C13   H2    S    
O5    Zn1   S    
C30   H14   S    
C12   O3    A    
C18   C19   A    
C20   H6    S    
C22   O6    A    
C27   C28   A    
C14   C15   A    
C11   C17   A    
C23   O7    A    
C2    C28   A    
C28   H11   S    
C21   N2    A    
C4    C5    A    
C23   O8    A    
N2    Zn2   S    
C6    H8    S    
C16   C17   A    
O8    Zn2   S    
N1    Zn1   S    
