data_mof_unit_23319.cif
_audit_creation_date              2012-12-11T17:14:53-0500
_audit_creation_method            fapswitch 2.2
_symmetry_space_group_name_H-M    P1
_symmetry_Int_Tables_number       1
_space_group_crystal_system       triclinic
_cell_length_a                    7.220229
_cell_length_b                    12.140584
_cell_length_c                    21.38773
_cell_angle_alpha                 90.00076
_cell_angle_beta                  90.16381
_cell_angle_gamma                 90.000457
_cell_volume                      1874.7936251

loop_
_atom_site_label
_atom_site_type_symbol
_atom_type_description
_atom_site_fract_x
_atom_site_fract_y
_atom_site_fract_z
_atom_type_partial_charge
O1    O     O_R   0.354460 0.152320 0.595720 -0.537072
O2    O     O_R   0.645540 0.847680 0.404280 -0.537071
O3    O     O_R   0.145540 0.652320 0.404280 -0.537056
O4    O     O_R   0.854460 0.347680 0.595720 -0.537056
O5    O     O_R   0.683670 0.140090 0.727290 -0.520246
O6    O     O_R   0.316330 0.859910 0.272710 -0.520245
O7    O     O_R   0.816330 0.640090 0.272710 -0.520215
O8    O     O_R   0.183670 0.359910 0.727290 -0.520214
O9    O     O_R   0.854010 0.349340 0.727750 -0.517858
O10   O     O_R   0.145990 0.650660 0.272250 -0.517859
O11   O     O_R   0.645990 0.849340 0.272250 -0.517887
O12   O     O_R   0.354010 0.150660 0.727750 -0.517888
C1    C     C_R   0.515910 0.112814 0.747252 0.833856
C2    C     C_R   0.484090 0.887186 0.252748 0.833854
C3    C     C_R   0.984093 0.612809 0.252749 0.833791
C4    C     C_R   0.015907 0.387191 0.747251 0.833790
O13   O     O_R   0.684170 0.139420 0.596190 -0.542602
O14   O     O_R   0.315830 0.860580 0.403810 -0.542602
O15   O     O_R   0.815830 0.639420 0.403810 -0.542602
O16   O     O_R   0.184170 0.360580 0.596190 -0.542602
C5    C     C_R   0.515379 0.113079 0.574433 0.717989
C6    C     C_R   0.484621 0.886921 0.425567 0.717989
C7    C     C_R   0.984621 0.613079 0.425567 0.717973
C8    C     C_R   0.015379 0.386921 0.574433 0.717974
O17   O     O_3   0.520730 0.319480 0.661730 -0.375271
O18   O     O_3   0.479270 0.680520 0.338270 -0.375273
O19   O     O_3   0.979270 0.819480 0.338270 -0.375322
O20   O     O_3   0.020730 0.180520 0.661730 -0.375324
V1    V     V_3+5 0.795560 0.238090 0.661730 1.595788
V2    V     V_3+5 0.204440 0.761910 0.338270 1.595789
V3    V     V_3+5 0.704440 0.738090 0.338270 1.595808
V4    V     V_3+5 0.295560 0.261910 0.661730 1.595808
C9    C     C_R   0.006503 0.465802 0.798985 -0.141751
C10   C     C_R   0.993496 0.534199 0.201015 -0.141753
C11   C     C_R   0.493461 0.965785 0.201011 -0.141822
C12   C     C_R   0.506539 0.034216 0.798989 -0.141821
C13   C     C_R   0.921185 0.645031 0.838609 -0.165729
C14   C     C_R   0.078803 0.354969 0.161390 -0.165730
C15   C     C_R   0.578408 0.145084 0.161400 -0.165771
C16   C     C_R   0.421603 0.854916 0.838600 -0.165776
C17   C     C_R   0.934574 0.571782 0.788848 0.225309
C18   C     C_R   0.065419 0.428217 0.211151 0.225308
C19   C     C_R   0.565153 0.071820 0.211158 0.225257
C20   C     C_R   0.434856 0.928179 0.788842 0.225253
C21   C     C_R   0.057746 0.432104 0.859611 0.188388
C22   C     C_R   0.942249 0.567897 0.140389 0.188389
C23   C     C_R   0.442311 0.932053 0.140381 0.188414
C24   C     C_R   0.557681 0.067950 0.859619 0.188417
C25   C     C_R   0.008550 0.498662 0.911735 0.040524
C26   C     C_R   0.991443 0.501340 0.088265 0.040524
C27   C     C_R   0.491401 0.998650 0.088264 0.040461
C28   C     C_R   0.508594 0.001352 0.911737 0.040461
C29   C     C_R   0.958496 0.609704 0.899623 0.028286
C30   C     C_R   0.041494 0.390297 0.100376 0.028286
C31   C     C_R   0.541208 0.109731 0.100382 0.028230
C32   C     C_R   0.458794 0.890270 0.899618 0.028230
C33   C     C_R   0.009425 0.461180 0.975152 0.078519
C34   C     C_R   0.990568 0.538823 0.024848 0.078519
C35   C     C_R   0.490637 0.961171 0.024846 0.078505
C36   C     C_R   0.509355 0.038831 0.975155 0.078503
C37   C     C_R   0.982469 0.651501 0.009398 -0.114252
C38   C     C_R   0.017523 0.348502 0.990601 -0.114250
C39   C     C_R   0.517213 0.151515 0.990609 -0.114326
C40   C     C_R   0.482780 0.848487 0.009392 -0.114325
C41   C     C_R   0.953390 0.685650 0.948339 -0.175221
C42   C     C_R   0.046599 0.314352 0.051660 -0.175222
C43   C     C_R   0.546174 0.185684 0.051670 -0.175235
C44   C     C_R   0.453826 0.814317 0.948330 -0.175236
C45   C     C_1   0.995022 0.533091 0.478093 -0.107910
C46   C     C_1   0.004978 0.466909 0.521907 -0.107910
C47   C     C_1   0.504978 0.033091 0.521907 -0.107910
C48   C     C_1   0.495022 0.966909 0.478093 -0.107910
H1    H     H_    0.932668 0.772588 0.939003 0.151663
H2    H     H_    0.067319 0.227414 0.060996 0.151664
H3    H     H_    0.566695 0.272639 0.061010 0.151703
H4    H     H_    0.433308 0.727363 0.938990 0.151702
Br1   Br    Br    0.765910 0.687809 0.133878 -0.556846
Br2   Br    Br    0.234085 0.312192 0.866123 -0.556846
Br3   Br    Br    0.733802 0.187981 0.866147 -0.556788
Br4   Br    Br    0.266180 0.812027 0.133853 -0.556786
Br5   Br    Br    0.132511 0.377217 0.293120 -0.489005
Br6   Br    Br    0.867479 0.622780 0.706879 -0.489004
Br7   Br    Br    0.367942 0.877133 0.706865 -0.489056
Br8   Br    Br    0.632076 0.122864 0.293134 -0.489054
H5    H     H_    0.877581 0.729079 0.829749 0.170276
H6    H     H_    0.122402 0.270919 0.170250 0.170277
H7    H     H_    0.621811 0.229168 0.170267 0.170328
H8    H     H_    0.378204 0.770831 0.829733 0.170329
H9    H     H_    0.999944 0.715143 0.043827 0.213306
H10   H     H_    0.000046 0.284860 0.956172 0.213305
H11   H     H_    0.499644 0.215146 0.956181 0.213384
H12   H     H_    0.500344 0.784856 0.043820 0.213382

loop_
_geom_bond_atom_site_label_1
_geom_bond_atom_site_label_2
_ccdc_geom_bond_type
O1    C5    A    
C9    C21   A    
C7    C45   S    
O3    C7    A    
C10   C18   A    
C15   H7    S    
C20   Br7   S    
O15   V3    S    
C8    C46   S    
C33   C38   A    
C16   C20   A    
C35   C40   A    
C26   C30   A    
C5    C47   S    
C36   C39   A    
C40   C44   A    
C24   Br3   S    
C13   H5    S    
O20   V1    S    
O9    C4    A    
C14   C18   A    
O10   C3    A    
O4    C8    A    
O11   C2    A    
C42   H2    S    
O13   V1    S    
C28   C36   A    
C15   C31   A    
O16   C8    A    
C16   C32   A    
O2    C6    A    
C21   Br2   S    
C10   C22   A    
C11   C19   A    
C3    C10   S    
O5    C1    A    
O4    V1    S    
O9    V1    S    
C13   C29   A    
C34   C37   A    
O7    C3    A    
C11   C23   A    
C35   C36   A    
O8    C4    A    
O12   V4    S    
O19   V2    S    
C19   Br8   S    
C18   Br5   S    
C23   Br4   S    
C6    C48   S    
C37   H9    S    
O5    V1    S    
C15   C19   A    
C39   C43   A    
O7    V3    S    
C38   C42   A    
C26   C34   A    
C1    C12   S    
C41   H1    S    
C2    C11   S    
C23   C27   A    
C32   C44   A    
O1    V4    S    
O13   C5    A    
O2    V3    S    
O8    V4    S    
O3    V2    S    
O15   C7    A    
C4    C9    S    
O6    C2    A    
O10   V2    S    
C14   C30   A    
C21   C25   A    
O14   V2    S    
O6    V2    S    
C14   H6    S    
C12   C20   A    
C27   C35   A    
C40   H12   S    
C29   C41   A    
O16   V4    S    
O14   C6    A    
O18   V3    S    
C22   Br1   S    
C31   C43   A    
C30   C42   A    
C44   H4    S    
C22   C26   A    
C9    C17   A    
C16   H8    S    
C47   C48   T    
C33   C34   A    
C25   C33   A    
O17   V4    S    
C25   C29   A    
C17   Br6   S    
C38   H10   S    
C12   C24   A    
C27   C31   A    
C13   C17   A    
C45   C46   T    
O11   V3    S    
C37   C41   A    
C24   C28   A    
C43   H3    S    
O12   C1    A    
C39   H11   S    
C28   C32   A    
