data_mof_unit_52369.cif
_audit_creation_date              2012-12-10T16:43:23-0500
_audit_creation_method            fapswitch 2.2
_symmetry_space_group_name_H-M    P1
_symmetry_Int_Tables_number       1
_space_group_crystal_system       triclinic
_cell_length_a                    10.703461
_cell_length_b                    8.715745
_cell_length_c                    7.624466
_cell_angle_alpha                 103.561973
_cell_angle_beta                  95.342628
_cell_angle_gamma                 94.192378
_cell_volume                      685.119674699

loop_
_atom_site_label
_atom_site_type_symbol
_atom_type_description
_atom_site_fract_x
_atom_site_fract_y
_atom_site_fract_z
_atom_type_partial_charge
C1    C     C_R   0.496378 0.200084 0.452945 0.847829
C2    C     C_R   0.078214 0.650891 0.569321 0.080747
C3    C     C_R   0.129533 0.506704 0.502453 -0.034544
C4    C     C_R   0.052273 0.365423 0.432620 -0.153919
C5    C     C_R   0.923116 0.364625 0.431605 -0.184476
C6    C     C_R   0.870599 0.505496 0.498374 -0.025624
C7    C     C_2   0.494505 0.031305 0.427875 -0.301801
C8    C     C_2   0.506373 0.968755 0.572162 -0.329972
C9    C     C_R   0.263230 0.500523 0.500497 0.772666
C10   C     C_R   0.504236 0.799956 0.547050 0.818902
C11   C     C_R   0.736454 0.498211 0.499077 0.755464
C12   C     C_R   0.154631 0.795301 0.638776 -0.137588
C13   C     C_R   0.100317 0.936052 0.698493 -0.113565
C14   C     C_R   0.970060 0.936744 0.687775 -0.171398
C15   C     C_R   0.893065 0.795462 0.620138 -0.106453
C16   C     C_R   0.946134 0.650653 0.563562 0.109652
Cu1   Cu    Cu3+1 0.513920 0.517380 0.684380 1.138494
Cu2   Cu    Cu3+1 0.486080 0.482620 0.315620 1.140972
H1    H     H_    0.092409 0.255257 0.381188 0.151510
H2    H     H_    0.256203 0.800829 0.647306 0.130493
H3    H     H_    0.159291 0.045114 0.752415 0.211876
H4    H     H_    0.928626 0.046992 0.732173 0.161158
H5    H     H_    0.792120 0.800825 0.612050 0.163737
H6    H     H_    0.863866 0.253809 0.380053 0.145097
H7    H     H_    0.483228 0.958222 0.289608 0.206446
H8    H     H_    0.517568 0.041806 0.710437 0.205646
N1    N     N_2   0.465100 0.456430 0.038520 0.089667
N2    N     N_2   0.534900 0.543570 0.961480 0.087830
O1    O     O_R   0.509050 0.286130 0.619770 -0.554109
O2    O     O_R   0.485540 0.256780 0.308360 -0.556854
O3    O     O_R   0.331410 0.514680 0.655740 -0.521022
O4    O     O_R   0.307900 0.485330 0.344330 -0.537584
O5    O     O_R   0.514460 0.743220 0.691640 -0.563881
O6    O     O_R   0.490950 0.713870 0.380230 -0.550520
O7    O     O_R   0.692100 0.514670 0.655670 -0.535583
O8    O     O_R   0.668590 0.485320 0.344260 -0.522591
S1    S     S_3+6 0.683298 0.637201 0.056941 0.135748
O9    O     O_2   0.686301 0.740740 0.244227 -0.320977
O10   O     O_2   0.775537 0.514897 0.055464 -0.284154
O11   O     O_3   0.732073 0.758807 0.930455 -0.521211
H9    H     H_    0.818929 0.801405 0.985410 0.354731
S2    S     S_3+6 0.316360 0.364967 0.944074 0.120820
O12   O     O_2   0.225547 0.489007 0.945740 -0.290557
O13   O     O_2   0.313688 0.262630 0.756415 -0.329594
O14   O     O_3   0.266624 0.243476 0.070760 -0.523548
H10   H     H_    0.173343 0.237372 0.053346 0.342041

loop_
_geom_bond_atom_site_label_1
_geom_bond_atom_site_label_2
_ccdc_geom_bond_type
C4    H1    S    
S1    O9    D    
C3    C9    S    
C13   C14   A    
S1    O11   S    
C2    C16   A    
C7    H7    S    
C2    C12   A    
C12   H2    S    
C1    O1    A    
C2    C3    A    
C13   H3    S    
C7    C8    D    
S1    O10   D    
O14   H10   S    
C1    O2    A    
Cu1   O5    S    
Cu2   O6    S    
N1    S2    S    
C14   H4    S    
C5    H6    S    
S2    O13   D    
N2    S1    S    
C8    H8    S    
Cu2   O2    S    
C15   H5    S    
O11   H9    S    
Cu1   Cu2   S    
C10   O5    A    
C5    C6    A    
Cu1   O3    S    
Cu2   O4    S    
S2    O12   D    
C9    O3    A    
C6    C16   A    
C3    C4    A    
C10   O6    A    
C6    C11   S    
Cu1   O1    S    
C12   C13   A    
C8    C10   S    
N1    N2    D    
C14   C15   A    
C11   O8    A    
Cu1   O7    S    
C9    O4    A    
C1    C7    S    
Cu1   N2    S    
Cu2   O8    S    
C11   O7    A    
Cu2   N1    S    
C15   C16   A    
C4    C5    A    
S2    O14   S    
