data_mof_unit_63463.cif
_audit_creation_date              2012-10-26T17:21:03-0400
_audit_creation_method            fapswitch 2.2
_symmetry_space_group_name_H-M    P1
_symmetry_Int_Tables_number       1
_space_group_crystal_system       triclinic
_cell_length_a                    18.762182
_cell_length_b                    18.761501
_cell_length_c                    18.805247
_cell_angle_alpha                 109.445851
_cell_angle_beta                  109.352306
_cell_angle_gamma                 109.374358
_cell_volume                      5110.85586251

loop_
_atom_site_label
_atom_site_type_symbol
_atom_type_description
_atom_site_fract_x
_atom_site_fract_y
_atom_site_fract_z
_atom_type_partial_charge
C1    C     C_R   0.118932 0.118867 0.499960 0.546289
C2    C     C_R   0.322816 0.319731 0.578856 -0.124699
C3    C     C_R   0.257948 0.256389 0.578869 -0.128361
C4    C     C_R   0.121182 0.002186 0.618581 0.535394
C5    C     C_R   0.185943 0.185614 0.499951 0.033969
C6    C     C_R   0.734757 0.925944 0.257096 -0.144069
C7    C     C_R   0.669884 0.925679 0.193788 -0.134547
C8    C     C_R   0.686383 0.000769 0.186678 0.007601
C9    C     C_R   0.767975 0.076492 0.243915 -0.131901
C10   C     C_R   0.832680 0.077709 0.308715 -0.026086
C11   C     C_R   0.815753 0.001780 0.314989 0.017591
C12   C     C_R   0.263561 0.004157 0.675914 0.025895
C13   C     C_R   0.809136 0.732239 0.477047 -0.133253
C14   C     C_R   0.745513 0.667436 0.477014 -0.026496
C15   C     C_R   0.685498 0.684073 0.498553 0.018053
C16   C     C_R   0.881040 0.880980 0.500066 0.549152
C17   C     C_R   0.689734 0.764831 0.520103 -0.145607
C18   C     C_R   0.754520 0.829842 0.521869 -0.136926
C19   C     C_R   0.814135 0.813616 0.499981 0.007236
C20   C     C_R   0.499963 0.881202 0.881005 0.539304
C21   C     C_R   0.381341 0.997662 0.878764 0.537469
C22   C     C_R   0.499960 0.118997 0.119146 0.554211
C23   C     C_R   0.191415 0.004491 0.684532 0.003664
C24   C     C_R   0.619046 0.000166 0.119206 0.552471
C25   C     C_R   0.499934 0.619058 0.618877 0.540224
C26   C     C_R   0.381140 0.381037 0.500035 0.551983
C27   C     C_R   0.499920 0.381169 0.381506 0.557071
C28   C     C_R   0.881480 0.000364 0.381372 0.551504
C29   C     C_R   0.618684 0.618496 0.499714 0.546389
C30   C     C_R   0.578955 0.821579 0.821082 -0.131253
C31   C     C_R   0.578922 0.756731 0.757706 -0.132533
C32   C     C_R   0.499869 0.686205 0.685518 0.025497
C33   C     C_R   0.420822 0.680036 0.677444 -0.129486
C34   C     C_R   0.182987 0.001647 0.754755 -0.148887
C35   C     C_R   0.420819 0.743376 0.742312 -0.132770
C36   C     C_R   0.499901 0.814490 0.813881 0.023683
C37   C     C_R   0.525035 0.268414 0.194454 -0.128312
C38   C     C_R   0.523676 0.331605 0.257910 -0.126026
C39   C     C_R   0.499215 0.313335 0.315139 0.025103
C40   C     C_R   0.277543 0.013361 0.609242 -0.099005
C41   C     C_R   0.474541 0.230771 0.308181 -0.026048
C42   C     C_R   0.474306 0.167061 0.243249 -0.132887
C43   C     C_R   0.499946 0.185816 0.186604 0.007012
C44   C     C_R   0.346212 0.007822 0.599238 -0.115942
C45   C     C_R   0.244378 0.997155 0.816148 -0.149215
C46   C     C_R   0.402094 0.993133 0.655082 -0.118602
C47   C     C_R   0.391560 0.987051 0.723192 -0.099630
C48   C     C_R   0.324340 0.995752 0.736679 0.026560
C49   C     C_1   0.916461 0.156310 0.366241 0.202962
C50   C     C_1   0.741457 0.583949 0.452568 0.198301
C51   C     C_1   0.447050 0.209543 0.365198 0.199688
C52   C     C_R   0.315219 0.994970 0.808336 0.003291
C53   C     C_R   0.178239 0.178893 0.421041 -0.111514
C54   C     C_R   0.241675 0.243737 0.421089 -0.111255
C55   C     C_R   0.314334 0.313914 0.499989 0.036815
Cu1   Cu    Cu3+1 0.999980 0.061790 0.561790 0.960857
Cu2   Cu    Cu3+1 0.000020 0.938210 0.438210 0.939549
Cu3   Cu    Cu3+1 0.438200 0.938230 0.000040 0.941316
Cu4   Cu    Cu3+1 0.561800 0.061850 0.000040 0.936494
Cu5   Cu    Cu3+1 0.438190 0.500100 0.438300 0.946732
Cu6   Cu    Cu3+1 0.561810 0.500080 0.561880 0.983248
H1    H     H_    0.127840 0.001763 0.761495 0.133790
H2    H     H_    0.236683 0.026086 0.564996 0.139168
H3    H     H_    0.640349 0.762172 0.764201 0.124236
H4    H     H_    0.359394 0.625522 0.621921 0.128942
H5    H     H_    0.359415 0.737734 0.736115 0.126169
H6    H     H_    0.544468 0.283642 0.150812 0.137201
H7    H     H_    0.542733 0.395168 0.263179 0.128687
H8    H     H_    0.454988 0.103213 0.237407 0.135547
H9    H     H_    0.355685 0.014303 0.547503 0.126913
H10   H     H_    0.454263 0.987064 0.646006 0.119181
H11   H     H_    0.435828 0.974292 0.764003 0.138435
H12   H     H_    0.264501 0.261743 0.640148 0.122863
H13   H     H_    0.237201 0.996634 0.870869 0.133985
H14   H     H_    0.122515 0.124433 0.359751 0.127305
H15   H     H_    0.234882 0.238541 0.359795 0.127451
H16   H     H_    0.378698 0.373964 0.640170 0.125096
H17   H     H_    0.721530 0.867357 0.261735 0.121132
H18   H     H_    0.607380 0.866554 0.149638 0.135215
H19   H     H_    0.780907 0.134751 0.238605 0.137756
H20   H     H_    0.855314 0.719619 0.460136 0.136458
H21   H     H_    0.643631 0.777823 0.536772 0.119841
H22   H     H_    0.757305 0.892230 0.539070 0.133992
H23   H     H_    0.640382 0.876316 0.876406 0.125188
N1    N     N_1   0.983622 0.219171 0.412303 -0.285473
N2    N     N_1   0.738112 0.517052 0.432954 -0.288592
N3    N     N_1   0.424970 0.192619 0.410852 -0.295453
O1    O     O_R   0.090150 0.142360 0.552170 -0.497393
O2    O     O_R   0.552200 0.590240 0.642450 -0.514705
O3    O     O_R   0.357640 0.409920 0.447920 -0.513530
O4    O     O_R   0.090180 0.037990 0.447810 -0.521461
O5    O     O_R   0.462030 0.409900 0.552280 -0.501945
O6    O     O_R   0.447800 0.409940 0.357730 -0.515811
O7    O     O_R   0.552190 0.409920 0.462090 -0.485667
O8    O     O_R   0.537970 0.590270 0.447900 -0.512026
O9    O     O_R   0.642360 0.590260 0.552260 -0.500983
O10   O     O_R   0.090170 0.052200 0.642360 -0.511893
O11   O     O_R   0.090200 0.947840 0.538010 -0.514313
O12   O     O_R   0.552230 0.962090 0.909900 -0.519249
O13   O     O_R   0.909820 0.962010 0.552190 -0.512830
O14   O     O_R   0.909850 0.857640 0.447830 -0.511203
O15   O     O_R   0.909800 0.052160 0.461990 -0.497315
O16   O     O_R   0.909830 0.947800 0.357640 -0.509246
O17   O     O_R   0.447850 0.857690 0.909890 -0.507728
O18   O     O_R   0.357630 0.947820 0.909860 -0.508555
O19   O     O_R   0.462000 0.052220 0.909860 -0.514471
O20   O     O_R   0.447770 0.037990 0.090190 -0.511913
O21   O     O_R   0.552150 0.142390 0.090190 -0.506828
O22   O     O_R   0.538000 0.947860 0.090220 -0.510323
O23   O     O_R   0.642370 0.052260 0.090230 -0.510845
O24   O     O_R   0.447810 0.590260 0.538090 -0.512064

loop_
_geom_bond_atom_site_label_1
_geom_bond_atom_site_label_2
_ccdc_geom_bond_type
C37   C43   A    
C4    O11   A    
Cu3   O22   S    
Cu4   O12   S    
C41   C42   A    
C35   C36   A    
C12   C48   A    
C26   C55   S    
Cu6   O9    S    
C33   H4    S    
C7    C8    A    
C39   C41   A    
C14   C50   S    
C53   C54   A    
C12   C23   A    
C18   H22   S    
C40   H2    S    
C1    C5    S    
C5    C53   A    
Cu3   O20   S    
C2    C55   A    
C30   C31   A    
Cu1   O1    S    
C26   O5    A    
C22   O20   A    
C13   H20   S    
C34   H1    S    
Cu4   O23   S    
Cu1   Cu2   S    
C18   C19   A    
C8    C24   S    
C54   C55   A    
C22   C43   S    
C27   C39   S    
C8    C9    A    
C44   H9    S    
C9    C10   A    
C21   O19   A    
Cu6   O5    S    
Cu5   O6    S    
C1    O1    A    
C1    O4    A    
C4    O10   A    
C53   H14   S    
Cu1   O10   S    
Cu6   O2    S    
C15   C29   S    
Cu2   O16   S    
Cu4   O19   S    
C13   C19   A    
C47   C48   A    
C49   N1    T    
C24   O23   A    
C51   N3    T    
C6    C11   A    
C29   O8    A    
C4    C23   S    
C50   N2    T    
Cu6   O7    S    
C16   O13   A    
C44   C46   A    
C45   C52   A    
Cu3   Cu4   S    
C42   H8    S    
C45   H13   S    
C9    H19   S    
C12   C40   A    
C37   C38   A    
C31   C32   A    
C40   C44   A    
C17   H21   S    
C23   C34   A    
C17   C18   A    
C34   C45   A    
C46   H10   S    
C54   H15   S    
C38   H7    S    
C27   O6    A    
Cu3   O17   S    
C42   C43   A    
Cu1   O13   S    
C7    H18   S    
C15   C17   A    
C46   C47   A    
Cu2   O4    S    
C31   H3    S    
C24   O22   A    
C3    C5    A    
C29   O9    A    
C6    C7    A    
C20   O17   A    
Cu5   O3    S    
C26   O3    A    
Cu2   O14   S    
C25   O2    A    
Cu4   O21   S    
C35   H5    S    
C30   C36   A    
Cu3   O18   S    
C32   C33   A    
C2    C3    A    
Cu1   O15   S    
C2    H16   S    
C28   O16   A    
C38   C39   A    
C20   O12   A    
C11   C28   S    
C25   C32   S    
C16   C19   S    
C22   O21   A    
Cu2   O11   S    
C37   H6    S    
C33   C35   A    
C30   H23   S    
C3    H12   S    
C47   H11   S    
C6    H17   S    
C10   C11   A    
C25   O24   A    
C20   C36   S    
Cu5   O8    S    
C28   O15   A    
C16   O14   A    
C48   C52   A    
Cu5   O24   S    
C14   C15   A    
Cu5   Cu6   S    
C27   O7    A    
C13   C14   A    
C10   C49   S    
C41   C51   S    
C21   C52   S    
C21   O18   A    
