data_mof_unit_38183.cif
_audit_creation_date              2012-12-10T20:43:27-0500
_audit_creation_method            fapswitch 2.2
_symmetry_space_group_name_H-M    P1
_symmetry_Int_Tables_number       1
_space_group_crystal_system       triclinic
_cell_length_a                    18.636567
_cell_length_b                    18.739167
_cell_length_c                    18.808713
_cell_angle_alpha                 109.656549
_cell_angle_beta                  109.39116
_cell_angle_gamma                 109.320345
_cell_volume                      5059.34707623

loop_
_atom_site_label
_atom_site_type_symbol
_atom_type_description
_atom_site_fract_x
_atom_site_fract_y
_atom_site_fract_z
_atom_type_partial_charge
C1    C     C_R   0.381634 0.501904 0.380342 0.880310
C2    C     C_R   0.797130 0.804176 0.832443 -0.112603
C3    C     C_R   0.954017 0.733463 0.957719 -0.146617
C4    C     C_R   0.944513 0.718564 0.022819 -0.118588
C5    C     C_R   0.008311 0.778348 0.110722 0.094523
C6    C     C_R   0.285519 0.545797 0.966694 -0.148794
C7    C     C_R   0.203076 0.476189 0.897786 -0.088243
C8    C     C_R   0.170643 0.394578 0.893095 0.108079
C9    C     C_R   0.224413 0.382062 0.954805 -0.197600
C10   C     C_R   0.306656 0.451859 0.023814 -0.120685
C11   C     C_R   0.336882 0.533860 0.030150 -0.109202
C12   C     C_R   0.078340 0.253526 0.756491 -0.250192
C13   C     C_R   0.825384 0.818998 0.576623 -0.258371
C14   C     C_R   0.997168 0.183860 0.685878 -0.078097
C15   C     C_R   0.917831 0.179281 0.678874 -0.003053
C16   C     C_R   0.922227 0.244590 0.745760 -0.278655
C17   C     C_R   0.003356 0.314667 0.815908 -0.088444
C18   C     C_R   0.082695 0.320867 0.821066 -0.014724
C19   C     C_R   0.772129 0.129758 0.556811 -0.153816
C20   C     C_R   0.689899 0.063685 0.484711 -0.142604
C21   C     C_R   0.665022 0.976070 0.458172 -0.115839
C22   C     C_R   0.722002 0.954549 0.504269 -0.112995
C23   C     C_R   0.803651 0.020342 0.577381 -0.114670
C24   C     C_R   0.812937 0.810517 0.496181 -0.076788
C25   C     C_R   0.830102 0.108581 0.603291 0.129266
C26   C     C_R   0.736182 0.741038 0.417659 -0.008197
C27   C     C_R   0.676129 0.677586 0.421972 -0.265848
C28   C     C_R   0.688996 0.685942 0.502418 -0.078698
C29   C     C_R   0.762675 0.758393 0.581037 -0.010851
C30   C     C_R   0.635691 0.725803 0.279259 -0.165762
C31   C     C_R   0.614939 0.717322 0.197181 -0.143937
C32   C     C_R   0.672901 0.715411 0.165752 -0.121282
C33   C     C_R   0.621732 0.620104 0.501611 0.864089
C34   C     C_R   0.751911 0.722437 0.216567 -0.117919
C35   C     C_R   0.772996 0.731377 0.298820 -0.099707
C36   C     C_R   0.715221 0.733183 0.330992 0.133553
C37   C     C_R   0.442551 0.798975 0.534542 -0.152888
C38   C     C_R   0.375965 0.719544 0.459276 -0.114987
C39   C     C_R   0.396356 0.669433 0.403167 0.144464
C40   C     C_R   0.484063 0.699894 0.423272 -0.143283
C41   C     C_R   0.550536 0.778713 0.499396 -0.105757
C42   C     C_R   0.529881 0.828390 0.554773 -0.105950
C43   C     C_R   0.261441 0.583045 0.256888 -0.071273
C44   C     C_R   0.618185 0.497906 0.619934 0.864456
C45   C     C_R   0.187630 0.501429 0.187126 -0.118773
C46   C     C_R   0.178773 0.421866 0.182784 -0.013704
C47   C     C_R   0.246229 0.424898 0.245676 -0.270828
C48   C     C_R   0.317664 0.504615 0.315218 -0.088789
C49   C     C_R   0.324994 0.584558 0.323710 -0.065651
C50   C     C_R   0.056343 0.277924 0.137136 -0.156885
C51   C     C_R   0.985686 0.194181 0.072987 -0.136501
C52   C     C_R   0.959771 0.165642 0.985173 -0.123669
C53   C     C_R   0.004358 0.220880 0.961410 -0.121086
C54   C     C_R   0.074817 0.304723 0.025426 -0.103667
C55   C     C_R   0.378114 0.379980 0.498267 0.869886
C56   C     C_R   0.101471 0.334174 0.113838 0.139894
C57   C     C_R   0.204489 0.515729 0.563768 -0.143871
C58   C     C_R   0.219472 0.447767 0.565320 -0.147168
C59   C     C_R   0.223428 0.392912 0.496011 0.137989
C60   C     C_R   0.211107 0.406310 0.424730 -0.132588
C61   C     C_R   0.195517 0.474020 0.423197 -0.123666
C62   C     C_R   0.192624 0.528905 0.492800 -0.109497
C63   C     C_R   0.175743 0.254220 0.497356 -0.252779
C64   C     C_R   0.186975 0.184455 0.498558 -0.076632
C65   C     C_R   0.261314 0.179308 0.500346 -0.003152
C66   C     C_R   0.796465 0.866922 0.808390 -0.141725
C67   C     C_R   0.322143 0.244098 0.498139 -0.262469
C68   C     C_R   0.310788 0.313694 0.496872 -0.075506
C69   C     C_R   0.237757 0.320037 0.497292 -0.007473
C70   C     C_R   0.355870 0.128099 0.572184 -0.155005
C71   C     C_R   0.371630 0.061293 0.576476 -0.136865
C72   C     C_R   0.309468 0.974111 0.513221 -0.128566
C73   C     C_R   0.231850 0.953773 0.445318 -0.132243
C74   C     C_R   0.216212 0.020319 0.440082 -0.101763
C75   C     C_R   0.277581 0.108030 0.504288 0.130234
C76   C     C_R   0.546817 0.567140 0.855265 -0.141348
C77   C     C_R   0.785472 0.851947 0.726506 -0.158454
C78   C     C_R   0.616654 0.567616 0.842397 -0.148354
C79   C     C_R   0.601908 0.496460 0.770722 0.139017
C80   C     C_R   0.516724 0.424496 0.712767 -0.132163
C81   C     C_R   0.447167 0.424033 0.726260 -0.121915
C82   C     C_R   0.462123 0.495425 0.797197 -0.109234
C83   C     C_R   0.741887 0.496300 0.820256 -0.263061
C84   C     C_R   0.813005 0.496256 0.810657 -0.084289
C85   C     C_R   0.820128 0.496687 0.738556 -0.008799
C86   C     C_R   0.753852 0.495580 0.675862 -0.263369
C87   C     C_R   0.682710 0.495583 0.685423 -0.083695
C88   C     C_R   0.775319 0.773963 0.668094 0.132124
C89   C     C_R   0.676274 0.496554 0.758213 -0.006625
C90   C     C_R   0.950444 0.568076 0.725027 -0.150641
C91   C     C_R   0.019583 0.567733 0.711168 -0.143550
C92   C     C_R   0.032793 0.496158 0.697408 -0.126738
C93   C     C_R   0.976851 0.424805 0.697434 -0.130383
C94   C     C_R   0.908005 0.425150 0.711942 -0.124138
C95   C     C_R   0.894505 0.496937 0.725977 0.139867
C96   C     C_R   0.998192 0.877680 0.380237 0.863516
C97   C     C_R   0.879575 0.877924 0.497773 0.859855
C98   C     C_R   0.998411 0.118767 0.619863 0.866022
C99   C     C_R   0.777598 0.711923 0.693374 -0.115888
C100  C     C_R   0.120439 0.119193 0.499270 0.867599
C101  C     C_R   0.002299 0.380097 0.881817 0.869644
C102  C     C_R   0.120432 0.500031 0.120046 0.868317
C103  C     C_R   0.998510 0.620117 0.118674 0.866154
C104  C     C_R   0.879723 0.498228 0.878240 0.865793
C105  C     C_R   0.074768 0.754790 0.541572 -0.151321
C106  C     C_R   0.074684 0.769620 0.473481 -0.091518
C107  C     C_R   0.997343 0.722552 0.392464 0.108944
C108  C     C_R   0.921651 0.657022 0.379160 -0.195242
C109  C     C_R   0.921806 0.642661 0.447497 -0.117126
C110  C     C_R   0.787446 0.726757 0.774883 -0.120993
C111  C     C_R   0.998207 0.691808 0.528793 -0.105181
C112  C     C_R   0.993967 0.673925 0.252152 -0.258897
C113  C     C_R   0.996758 0.685901 0.183559 -0.085631
C114  C     C_R   0.001427 0.761273 0.180320 0.003053
C115  C     C_R   0.000733 0.822712 0.245953 -0.275436
C116  C     C_R   0.998628 0.811103 0.314876 -0.093370
C117  C     C_R   0.997145 0.737130 0.319696 -0.014993
C118  C     C_R   0.080169 0.854537 0.132608 -0.166750
C119  C     C_R   0.089310 0.870227 0.067446 0.166576
C120  C     C_R   0.025713 0.808991 0.979608 -0.156057
H1    H     H_    0.804969 0.815408 0.895563 0.126340
H2    H     H_    0.656683 0.708683 0.102145 0.118017
H3    H     H_    0.796958 0.721231 0.192368 0.140683
H4    H     H_    0.834597 0.737855 0.337869 0.105094
H5    H     H_    0.581600 0.889441 0.613524 0.122787
H6    H     H_    0.426496 0.837381 0.577473 0.119082
H7    H     H_    0.308575 0.696807 0.444787 0.111410
H8    H     H_    0.500718 0.662123 0.380550 0.094380
H9    H     H_    0.618189 0.800855 0.516173 0.128627
H10   H     H_    0.241696 0.364383 0.242083 0.157189
H11   H     H_    0.803888 0.926895 0.852944 0.120366
H12   H     H_    0.075814 0.299031 0.204960 0.124870
H13   H     H_    0.951185 0.151326 0.091395 0.130303
H14   H     H_    0.905204 0.100768 0.935579 0.118050
H15   H     H_    0.984322 0.198716 0.893397 0.141657
H16   H     H_    0.108195 0.347073 0.006333 0.107113
H17   H     H_    0.180761 0.581363 0.491530 0.120581
H18   H     H_    0.201798 0.558002 0.617463 0.118869
H19   H     H_    0.228417 0.438101 0.620612 0.116772
H20   H     H_    0.212785 0.363896 0.370254 0.100690
H21   H     H_    0.185241 0.483834 0.367955 0.138363
H22   H     H_    0.783982 0.900669 0.708237 0.117604
H23   H     H_    0.118629 0.257616 0.497063 0.155577
H24   H     H_    0.379541 0.241120 0.498844 0.153169
H25   H     H_    0.404274 0.195389 0.622115 0.123489
H26   H     H_    0.431843 0.077107 0.629079 0.128402
H27   H     H_    0.321344 0.922320 0.516835 0.121843
H28   H     H_    0.183497 0.886360 0.397158 0.127250
H29   H     H_    0.156228 0.003614 0.386485 0.097392
H30   H     H_    0.408160 0.494990 0.807382 0.122333
H31   H     H_    0.558404 0.622240 0.910408 0.119596
H32   H     H_    0.682068 0.623456 0.887908 0.116700
H33   H     H_    0.771067 0.652011 0.649763 0.095582
H34   H     H_    0.504533 0.368686 0.657851 0.101108
H35   H     H_    0.381700 0.368251 0.682028 0.140734
H36   H     H_    0.738010 0.496986 0.876777 0.154188
H37   H     H_    0.758241 0.495865 0.619833 0.153978
H38   H     H_    0.940596 0.623750 0.735294 0.116463
H39   H     H_    0.062694 0.622795 0.710736 0.118288
H40   H     H_    0.086123 0.495802 0.686344 0.116011
H41   H     H_    0.986716 0.369132 0.685804 0.142788
H42   H     H_    0.864723 0.369343 0.711341 0.101179
H43   H     H_    0.998316 0.680481 0.581590 0.118311
H44   H     H_    0.786842 0.677956 0.793221 0.130483
H45   H     H_    0.134266 0.791964 0.604176 0.115449
H46   H     H_    0.134702 0.817864 0.483949 0.125363
H47   H     H_    0.862398 0.617589 0.316092 0.135079
H48   H     H_    0.862815 0.593158 0.437306 0.135627
H49   H     H_    0.992379 0.616372 0.254537 0.158050
H50   H     H_    0.003123 0.880668 0.244043 0.156686
H51   H     H_    0.129830 0.901134 0.200316 0.127808
H52   H     H_    0.031769 0.819395 0.928146 0.124096
H53   H     H_    0.906339 0.685854 0.890114 0.138241
H54   H     H_    0.883292 0.874584 0.636521 0.154841
H55   H     H_    0.888286 0.659872 0.004761 0.101610
H56   H     H_    0.400369 0.587880 0.083780 0.112785
H57   H     H_    0.309547 0.608996 0.970934 0.114407
H58   H     H_    0.164094 0.486088 0.848717 0.130413
H59   H     H_    0.201960 0.318648 0.950253 0.135738
H60   H     H_    0.346953 0.442367 0.072353 0.135331
H61   H     H_    0.138704 0.256723 0.759869 0.158229
H62   H     H_    0.861995 0.241646 0.742505 0.155434
H63   H     H_    0.791032 0.197386 0.575847 0.124842
H64   H     H_    0.645758 0.080419 0.449009 0.130164
H65   H     H_    0.617479 0.622530 0.362349 0.151443
H66   H     H_    0.601731 0.924853 0.401822 0.124587
H67   H     H_    0.703156 0.886820 0.482737 0.128971
H68   H     H_    0.846591 0.002598 0.613131 0.093403
H69   H     H_    0.590171 0.727373 0.302815 0.113225
H70   H     H_    0.553991 0.712386 0.157994 0.116307
O1    O     O_R   0.408360 0.551710 0.460090 -0.604900
O2    O     O_R   0.948280 0.908380 0.356650 -0.622244
O3    O     O_R   0.960110 0.908350 0.551690 -0.617972
O4    O     O_R   0.856660 0.908370 0.448270 -0.611233
O5    O     O_R   0.051720 0.091580 0.643310 -0.628465
O6    O     O_R   0.948270 0.091600 0.539890 -0.610052
O7    O     O_R   0.143340 0.091590 0.551680 -0.612753
O8    O     O_R   0.039890 0.091610 0.448270 -0.624621
O9    O     O_R   0.051730 0.460050 0.908360 -0.618332
O10   O     O_R   0.948290 0.356630 0.908390 -0.622282
O11   O     O_R   0.143340 0.551690 0.091580 -0.603996
O12   O     O_R   0.408400 0.448280 0.356670 -0.629459
O13   O     O_R   0.039900 0.448270 0.091610 -0.617942
O14   O     O_R   0.051710 0.643320 0.091560 -0.604837
O15   O     O_R   0.948270 0.539900 0.091590 -0.628326
O16   O     O_R   0.960100 0.551680 0.908340 -0.609168
O17   O     O_R   0.856660 0.448270 0.908370 -0.626135
O18   O     O_R   0.591600 0.643340 0.551710 -0.605165
O19   O     O_R   0.591630 0.539900 0.448290 -0.628095
O20   O     O_R   0.591600 0.551720 0.643330 -0.607509
O21   O     O_R   0.591640 0.448290 0.539910 -0.627294
O22   O     O_R   0.408370 0.460100 0.551710 -0.605604
O23   O     O_R   0.408400 0.356660 0.448290 -0.627004
O24   O     O_R   0.051730 0.908360 0.460060 -0.618574
Zn1   Zn    Zn3+2 0.499980 0.569060 0.569060 0.993651
Zn2   Zn    Zn3+2 0.500020 0.430940 0.430940 0.941993
Zn3   Zn    Zn3+2 0.069070 0.999960 0.569030 0.954724
Zn4   Zn    Zn3+2 0.930930 0.999990 0.430930 0.968077
Zn5   Zn    Zn3+2 0.069070 0.569030 0.999960 0.978383
Zn6   Zn    Zn3+2 0.930930 0.430930 0.000000 0.953348
C121  C     C_R   0.274266 0.667106 0.260221 0.153554
C122  C     C_R   0.218462 0.699009 0.272497 -0.141702
C123  C     C_R   0.230154 0.776962 0.273254 -0.099617
C124  C     C_R   0.298335 0.824325 0.263591 -0.108499
C125  C     C_R   0.354912 0.793586 0.252656 -0.162360
C126  C     C_R   0.342816 0.715077 0.250606 -0.110005
H71   H     H_    0.165479 0.662946 0.280230 0.097666
H72   H     H_    0.185680 0.800123 0.280097 0.127195
H73   H     H_    0.307052 0.884628 0.264225 0.121560
H74   H     H_    0.407765 0.830261 0.245177 0.119622
H75   H     H_    0.386482 0.691356 0.241135 0.111380
N1    N     N_3   0.163486 0.948403 0.091644 -0.465978
H76   H     H_    0.219582 0.944345 0.120081 0.171902
H77   H     H_    0.160081 0.951415 0.036177 0.174604

loop_
_geom_bond_atom_site_label_1
_geom_bond_atom_site_label_2
_ccdc_geom_bond_type
C58   H19   S    
C33   O18   A    
C93   C94   A    
C5    C114  S    
C52   H14   S    
C73   C74   A    
C35   C36   A    
C53   H15   S    
O2    Zn4   S    
C124  C125  A    
C114  C115  A    
C66   H11   S    
C101  O10   A    
C78   H32   S    
C7    C8    A    
O15   Zn6   S    
C112  H49   S    
C45   C46   A    
C116  C117  A    
O3    Zn3   S    
C31   H70   S    
C11   H56   S    
C34   H3    S    
O13   Zn6   S    
C106  H46   S    
C13   C29   A    
C28   C29   A    
C43   C121  S    
C102  O11   A    
C76   C78   A    
C113  C114  A    
C109  C111  A    
C27   H65   S    
C112  C117  A    
C16   H62   S    
C30   H69   S    
C106  C107  A    
C67   H24   S    
C15   C16   A    
C40   H8    S    
C99   H33   S    
C37   C42   A    
C96   O24   A    
C108  C109  A    
C17   C18   A    
C34   C35   A    
C41   C42   A    
C104  O17   A    
C97   O3    A    
C22   H67   S    
C17   C101  S    
C77   H22   S    
C92   C93   A    
C29   C88   S    
C42   H5    S    
O1    Zn1   S    
C55   O22   A    
C118  C119  A    
C33   O19   A    
C3    H53   S    
C2    C110  A    
C63   C69   A    
C77   C88   A    
C16   C17   A    
C65   C67   A    
C4    H55   S    
C98   O5    A    
C48   C49   A    
C107  C108  A    
C74   H29   S    
C70   C71   A    
C104  O16   A    
C44   C87   S    
C50   C56   A    
C9    C10   A    
C94   H42   S    
C91   H39   S    
C61   C62   A    
C9    H59   S    
C20   H64   S    
C100  O7    A    
O21   Zn2   S    
C105  C111  A    
C59   C60   A    
C12   H61   S    
C21   C22   A    
C118  H51   S    
O8    Zn4   S    
C115  H50   S    
O7    Zn3   S    
C1    O12   A    
C112  C113  A    
C53   C54   A    
C14   C98   S    
C57   C58   A    
C13   H54   S    
C83   C89   A    
C54   C56   A    
O19   Zn2   S    
C74   C75   A    
C47   H10   S    
C67   C68   A    
C123  H72   S    
C47   C48   A    
C32   H2    S    
C57   C62   A    
O9    Zn5   S    
C84   C85   A    
O11   Zn5   S    
C123  C124  A    
O4    Zn4   S    
C3    C120  A    
C19   H63   S    
C6    C11   A    
C55   C68   S    
C78   C79   A    
C8    C9    A    
C83   H36   S    
C73   H28   S    
C76   H31   S    
C58   C59   A    
C85   C86   A    
C99   C110  A    
C121  C126  A    
C81   C82   A    
C24   C97   S    
C13   C24   A    
C60   C61   A    
C32   C34   A    
C97   O4    A    
C90   H38   S    
C102  O13   A    
C37   C38   A    
C109  H48   S    
C120  H52   S    
C2    H1    S    
C121  C122  A    
C83   C84   A    
C14   C15   A    
O22   Zn1   S    
C93   H41   S    
C103  O14   A    
C54   H16   S    
N1    H77   S    
C50   C51   A    
O17   Zn6   S    
C98   O6    A    
C70   H25   S    
C85   C95   S    
C43   C45   A    
C82   H30   S    
C50   H12   S    
C119  N1    S    
C59   C69   S    
C23   H68   S    
C1    O1    A    
C61   H21   S    
C40   C41   A    
C39   C49   S    
C108  H47   S    
C60   H20   S    
C28   C33   S    
O18   Zn1   S    
C10   C11   A    
C87   C89   A    
C6    H57   S    
C26   C27   A    
O10   Zn6   S    
C79   C80   A    
C76   C82   A    
C3    C4    A    
O5    Zn3   S    
O14   Zn5   S    
C52   C53   A    
C115  C116  A    
C37   H6    S    
O23   Zn2   S    
C26   C36   S    
C66   C77   A    
C46   C47   A    
C35   H4    S    
C110  H44   S    
C103  C113  S    
C86   C87   A    
C68   C69   A    
C31   C32   A    
C43   C49   A    
C103  O15   A    
C24   C26   A    
C80   C81   A    
C2    C66   A    
O24   Zn3   S    
C90   C95   A    
C55   O23   A    
O6    Zn4   S    
C119  C120  A    
C101  O9    A    
C1    C48   S    
C80   H34   S    
C6    C7    A    
O16   Zn5   S    
C72   H27   S    
C21   H66   S    
C105  C106  A    
C46   C56   S    
C125  H74   S    
C81   H35   S    
C30   C36   A    
C5    C118  A    
C92   H40   S    
C44   O21   A    
C10   H60   S    
C64   C65   A    
C96   O2    A    
C19   C20   A    
C12   C14   A    
C64   C100  S    
C51   C52   A    
C111  H43   S    
C124  H73   S    
C41   H9    S    
C51   H13   S    
C84   C104  S    
C90   C91   A    
C30   C31   A    
C122  H71   S    
C72   C73   A    
C38   H7    S    
C38   C39   A    
N1    H76   S    
C105  H45   S    
C57   H18   S    
C44   O20   A    
C23   C25   A    
C62   H17   S    
C94   C95   A    
C19   C25   A    
C86   H37   S    
C8    C18   S    
C79   C89   S    
C88   C99   A    
C15   C25   S    
C45   C102  S    
C63   C64   A    
C39   C40   A    
C4    C5    A    
C71   H26   S    
C71   C72   A    
C20   C21   A    
C7    H58   S    
C12   C18   A    
C27   C28   A    
C63   H23   S    
C22   C23   A    
C96   C116  S    
C70   C75   A    
O12   Zn2   S    
O20   Zn1   S    
C91   C92   A    
C122  C123  A    
C107  C117  S    
C65   C75   S    
C126  H75   S    
C125  C126  A    
C100  O8    A    
