data_mof_unit_11138.cif
_audit_creation_date              2012-12-10T17:48:48-0500
_audit_creation_method            fapswitch 2.2
_symmetry_space_group_name_H-M    P1
_symmetry_Int_Tables_number       1
_space_group_crystal_system       triclinic
_cell_length_a                    10.772526
_cell_length_b                    14.690689
_cell_length_c                    14.842467
_cell_angle_alpha                 64.6658
_cell_angle_beta                  103.244954
_cell_angle_gamma                 103.785951
_cell_volume                      2040.10292264

loop_
_atom_site_label
_atom_site_type_symbol
_atom_type_description
_atom_site_fract_x
_atom_site_fract_y
_atom_site_fract_z
_atom_type_partial_charge
C1    C     C_R   0.476849 0.120755 0.312158 0.810504
C2    C     C_3   0.878136 0.999729 0.499877 0.020870
C3    C     C_3   0.956036 0.984702 0.605259 -0.383967
C4    C     C_3   0.936017 0.102797 0.420165 0.090137
C5    C     C_R   0.451683 0.189780 0.204637 -0.097251
C6    C     C_R   0.509249 0.810517 0.793060 -0.088648
C7    C     C_R   0.382750 0.210736 0.030152 -0.207921
C8    C     C_R   0.406741 0.147889 0.131717 -0.254364
C9    C     C_R   0.468020 0.297051 0.174312 0.172808
C10   C     C_R   0.422873 0.358679 0.073465 0.045281
C11   C     C_R   0.393556 0.316046 0.000249 0.124640
C12   C     C_R   0.259883 0.000316 0.499041 0.793635
C13   C     C_R   0.415899 0.463403 0.041324 0.058650
C14   C     C_R   0.426778 0.528969 0.940019 0.077021
C15   C     C_R   0.400215 0.485252 0.868089 -0.171821
C16   C     C_R   0.378294 0.379774 0.897917 -0.228953
C17   C     C_R   0.392424 0.503726 0.105497 -0.212179
C18   C     C_R   0.399110 0.608293 0.074570 -0.221575
C19   C     C_R   0.434462 0.675174 0.980488 0.116313
C20   C     C_R   0.454534 0.635994 0.913568 0.041485
C21   C     C_R   0.449914 0.780646 0.952553 -0.214568
C22   C     C_R   0.482971 0.847647 0.858266 -0.253274
C23   C     C_R   0.519828 0.879546 0.687486 0.792682
C24   C     C_R   0.506841 0.704611 0.825072 0.193975
C25   C     C_R   0.714097 0.290026 0.664838 -0.354338
C26   C     C_R   0.681525 0.205283 0.639137 0.470695
C27   C     C_R   0.520367 0.285739 0.507442 -0.069574
C28   C     C_R   0.550952 0.374211 0.530337 -0.025904
C29   C     C_R   0.650696 0.373969 0.610886 0.115675
C30   C     C_R   0.485388 0.461348 0.478733 0.096432
C31   C     C_R   0.521601 0.545412 0.509853 0.073696
C32   C     C_R   0.622668 0.540332 0.590377 -0.236166
C33   C     C_R   0.685601 0.456472 0.639487 -0.178714
C34   C     C_R   0.740133 0.999682 0.500290 0.800534
C35   C     C_R   0.384491 0.467156 0.397915 -0.246886
C36   C     C_R   0.317581 0.549633 0.351664 -0.213841
C37   C     C_R   0.350142 0.630745 0.382646 0.171698
C38   C     C_R   0.454113 0.631120 0.460583 -0.020959
C39   C     C_R   0.279930 0.712218 0.335741 -0.327275
C40   C     C_R   0.313299 0.793780 0.365764 0.073266
C41   C     C_R   0.485422 0.718024 0.485506 -0.010422
C42   C     C_3   0.035298 0.903646 0.485389 -0.427815
C43   C     C_3   0.892041 0.909868 0.475278 -0.453695
C44   C     C_3   0.102408 0.995650 0.603570 0.102714
C45   C     C_3   0.073621 0.094966 0.409891 0.029315
C46   C     C_3   0.121915 0.999108 0.500289 -0.004847
Cu1   Cu    Cu3+1 0.465900 0.918260 0.475680 0.921382
Cu2   Cu    Cu3+1 0.534100 0.081740 0.524320 0.956523
H1    H     H_    0.059450 0.832615 0.550284 0.210138
H2    H     H_    0.152305 0.069119 0.609161 0.124688
H3    H     H_    0.941138 0.041394 0.630382 0.171474
H4    H     H_    0.354873 0.348324 0.840884 0.143769
H5    H     H_    0.485265 0.928524 0.835554 0.160176
H6    H     H_    0.355670 0.176911 0.974893 0.138282
H7    H     H_    0.394238 0.066348 0.152736 0.167010
H8    H     H_    0.051612 0.898458 0.416427 0.173005
H9    H     H_    0.387754 0.531403 0.788223 0.152008
H10   H     H_    0.363393 0.454740 0.178117 0.139531
H11   H     H_    0.432110 0.811244 0.002323 0.141243
H12   H     H_    0.762076 0.455872 0.701571 0.139829
H13   H     H_    0.566746 0.727377 0.539960 0.122630
H14   H     H_    0.259470 0.856835 0.329345 0.120011
H15   H     H_    0.786629 0.290000 0.728742 0.149516
H16   H     H_    0.443646 0.278640 0.448980 0.146716
H17   H     H_    0.844223 0.921030 0.397190 0.176288
H18   H     H_    0.655081 0.599585 0.618627 0.131117
H19   H     H_    0.199819 0.712895 0.276123 0.133618
H20   H     H_    0.844053 0.835966 0.527354 0.195822
H21   H     H_    0.064418 0.080210 0.340665 0.122207
N1    N     N_R   0.585360 0.204570 0.560800 -0.195272
N2    N     N_R   0.414550 0.795430 0.439160 -0.175747
O1    O     O_R   0.455060 0.022100 0.338110 -0.593449
O2    O     O_R   0.512640 0.160150 0.379180 -0.563468
O3    O     O_R   0.288900 0.930980 0.479450 -0.598047
O4    O     O_R   0.346480 0.069030 0.520520 -0.583739
O5    O     O_R   0.487360 0.839850 0.620820 -0.589603
O6    O     O_R   0.544940 0.977900 0.661890 -0.583363
O7    O     O_R   0.653520 0.930970 0.479480 -0.600989
O8    O     O_R   0.711100 0.069020 0.520550 -0.525572
N3    N     N_2   0.937272 0.186617 0.448813 -0.396977
H22   H     H_    0.010088 0.201210 0.501795 0.246196
C47   C     C_3   0.871800 0.270091 0.377904 -0.639584
H23   H     H_    0.867218 0.320387 0.415123 0.220149
H24   H     H_    0.771707 0.240113 0.352288 0.258974
H25   H     H_    0.923947 0.315017 0.312113 0.214536
N4    N     N_2   0.573631 0.667675 0.778132 -0.437673
H26   H     H_    0.531488 0.671370 0.707373 0.257908
C48   C     C_3   0.712401 0.697896 0.788620 -0.682558
H27   H     H_    0.755847 0.655690 0.760306 0.217090
H28   H     H_    0.753164 0.679394 0.869195 0.238546
H29   H     H_    0.738167 0.780903 0.744363 0.206200
H30   H     H_    0.380254 0.636992 0.125523 0.148740
N5    N     N_2   0.547084 0.342131 0.240764 -0.416125
H31   H     H_    0.500497 0.359310 0.283315 0.245689
C49   C     C_3   0.663977 0.411122 0.207832 -0.683297
H32   H     H_    0.724561 0.427533 0.272057 0.222438
H33   H     H_    0.642599 0.485007 0.147671 0.239644
H34   H     H_    0.719383 0.376204 0.179840 0.226209
H35   H     H_    0.239453 0.549926 0.290744 0.134268
N6    N     N_2   0.739687 0.116653 0.700205 -0.371637
H36   H     H_    0.690193 0.068722 0.759604 0.244106
C50   C     C_3   0.877580 0.131938 0.733500 -0.765144
H37   H     H_    0.900291 0.163780 0.792093 0.212807
H38   H     H_    0.929867 0.183244 0.668745 0.238759
H39   H     H_    0.911947 0.057158 0.768913 0.221351
H40   H     H_    0.354716 0.408540 0.368848 0.130286
N7    N     N_2   0.155653 0.911884 0.690145 -0.414246
H41   H     H_    0.235863 0.891197 0.681790 0.251015
C51   C     C_3   0.170160 0.918025 0.786948 -0.722222
H42   H     H_    0.196332 0.845568 0.847796 0.242036
H43   H     H_    0.078554 0.929614 0.799709 0.228154
H44   H     H_    0.247830 0.981830 0.791097 0.216585
H45   H     H_    0.919277 0.908229 0.660482 0.181792
N8    N     N_2   0.165062 0.189022 0.397077 -0.409259
H46   H     H_    0.198978 0.209903 0.457431 0.252169
C52   C     C_3   0.162655 0.270428 0.297571 -0.710148
H47   H     H_    0.149440 0.341578 0.300715 0.217884
H48   H     H_    0.083095 0.251858 0.242518 0.225043
H49   H     H_    0.255739 0.283654 0.270733 0.219195
H50   H     H_    0.874068 0.114552 0.345880 0.096297

loop_
_geom_bond_atom_site_label_1
_geom_bond_atom_site_label_2
_ccdc_geom_bond_type
N5    H31   S    
C40   N2    A    
C12   O3    A    
C49   H32   S    
C15   H9    S    
C19   C20   A    
C41   H13   S    
C23   O5    A    
N8    H46   S    
C49   H34   S    
C7    C8    A    
C45   C46   S    
C7    C11   A    
C30   C35   A    
C1    C5    S    
Cu2   O8    S    
C28   C29   A    
C19   C21   A    
Cu1   O5    S    
C21   H11   S    
C51   H43   S    
C42   C46   S    
C30   C31   A    
N4    C48   S    
C15   C16   A    
C6    C22   A    
C29   C33   A    
C40   H14   S    
C52   H47   S    
C50   H39   S    
C18   C19   A    
C25   H15   S    
C20   C24   A    
C42   H8    S    
C45   N8    S    
Cu1   Cu2   S    
C43   H20   S    
N7    H41   S    
C9    C10   A    
C17   H10   S    
C41   N2    A    
C2    C34   S    
N5    C49   S    
C21   C22   A    
N7    C51   S    
Cu2   O4    S    
C8    H7    S    
C44   C46   S    
C22   H5    S    
C4    C45   S    
C25   C29   A    
C3    C44   S    
C1    O1    A    
C45   H21   S    
C52   H49   S    
C14   C20   A    
C38   C41   A    
N3    C47   S    
C3    H45   S    
C51   H44   S    
C39   C40   A    
C3    H3    S    
N4    H26   S    
C25   C26   A    
C35   C36   A    
Cu2   O6    S    
C2    C4    S    
C5    C9    A    
C37   C38   A    
C34   O8    A    
C11   C16   A    
C31   C32   A    
C48   H29   S    
C2    C43   S    
C43   H17   S    
C6    C24   A    
N6    C50   S    
C17   C18   A    
C23   O6    A    
C50   H38   S    
Cu1   N2    S    
C27   N1    A    
C12   C46   S    
C48   H28   S    
C33   H12   S    
C47   H24   S    
C10   C11   A    
C26   N1    A    
C42   C43   S    
C9    N5    S    
C32   H18   S    
C44   N7    S    
C44   H2    S    
C36   C37   A    
C39   H19   S    
Cu2   O2    S    
C16   H4    S    
Cu1   O3    S    
Cu2   N1    S    
N3    H22   S    
C10   C13   A    
C5    C8    A    
N8    C52   S    
C49   H33   S    
C4    N3    S    
C47   H25   S    
Cu1   O7    S    
C31   C38   A    
C13   C17   A    
C18   H30   S    
C32   C33   A    
C28   C30   A    
C2    C3    S    
C1    O2    A    
C37   C39   A    
C35   H40   S    
C51   H42   S    
C34   O7    A    
C6    C23   S    
N6    H36   S    
C52   H48   S    
C36   H35   S    
C50   H37   S    
Cu1   O1    S    
C27   H16   S    
C42   H1    S    
C48   H27   S    
C47   H23   S    
C12   O4    A    
C27   C28   A    
C14   C15   A    
C4    H50   S    
C7    H6    S    
C13   C14   A    
C24   N4    S    
C26   N6    S    
