data_mof_unit_14387.cif
_audit_creation_date              2012-12-10T17:23:10-0500
_audit_creation_method            fapswitch 2.2
_symmetry_space_group_name_H-M    P1
_symmetry_Int_Tables_number       1
_space_group_crystal_system       triclinic
_cell_length_a                    15.837304
_cell_length_b                    10.787936
_cell_length_c                    9.647028
_cell_angle_alpha                 90.083318
_cell_angle_beta                  89.363263
_cell_angle_gamma                 93.333445
_cell_volume                      1645.32146451

loop_
_atom_site_label
_atom_site_type_symbol
_atom_type_description
_atom_site_fract_x
_atom_site_fract_y
_atom_site_fract_z
_atom_type_partial_charge
C1    C     C_R   0.496550 0.262760 0.500115 0.774758
C2    C     C_3   0.082527 0.495762 0.502105 0.190612
C3    C     C_3   0.973656 0.582309 0.587912 -0.155795
C4    C     C_3   0.917035 0.493164 0.500386 0.189776
C5    C     C_3   0.031940 0.606449 0.459697 -0.156019
C6    C     C_3   0.973794 0.517312 0.372166 -0.149506
C7    C     C_1   0.174388 0.497286 0.502510 -0.077251
C8    C     C_1   0.825214 0.492617 0.499531 -0.067050
C9    C     C_R   0.360462 0.117509 0.644382 -0.191942
C10   C     C_R   0.297014 0.047028 0.714535 -0.143928
C11   C     C_R   0.297341 0.918110 0.714732 -0.134461
C12   C     C_R   0.340002 0.499312 0.500646 0.798258
C13   C     C_R   0.361150 0.858798 0.644868 -0.168246
C14   C     C_R   0.426954 0.928300 0.574804 0.097943
C15   C     C_R   0.426563 0.059537 0.574556 0.097882
C16   C     C_R   0.490951 0.128614 0.500429 -0.091341
C17   C     C_R   0.552344 0.069254 0.425112 -0.205126
C18   C     C_R   0.552999 0.941604 0.426167 -0.209409
C19   C     C_R   0.491877 0.870681 0.501153 -0.092131
C20   C     C_R   0.586538 0.704940 0.133572 0.029475
C21   C     C_R   0.601344 0.812842 0.054615 -0.225381
C22   C     C_R   0.609912 0.802315 0.913000 -0.224219
C23   C     C_R   0.497683 0.737094 0.500259 0.776989
C24   C     C_R   0.591374 0.688583 0.851281 -0.125904
C25   C     C_R   0.544906 0.593506 0.923403 0.195683
C26   C     C_R   0.544328 0.596505 0.072571 0.146210
C27   C     C_R   0.457703 0.409780 0.074433 -0.053265
C28   C     C_R   0.457249 0.410326 0.926977 -0.054949
C29   C     C_R   0.659777 0.496386 0.499686 0.839286
C30   C     C_3   0.967602 0.382468 0.542812 -0.163275
C31   C     C_3   0.025914 0.406623 0.414572 -0.160888
C32   C     C_1   0.250111 0.498382 0.502082 -0.180537
C33   C     C_1   0.749569 0.493508 0.499233 -0.145847
C34   C     C_3   0.025781 0.471631 0.630345 -0.160678
Cu1   Cu    Cu3+1 0.499990 0.499990 0.640660 0.930310
Cu2   Cu    Cu3+1 0.500010 0.500010 0.359340 0.953430
H1    H     H_    0.048762 0.334529 0.343433 0.129692
H2    H     H_    0.247363 0.863702 0.767900 0.134001
H3    H     H_    0.357313 0.758500 0.644689 0.152234
H4    H     H_    0.603037 0.898597 0.370862 0.151647
H5    H     H_    0.422647 0.335867 0.129541 0.138500
H6    H     H_    0.626174 0.898556 0.102041 0.147968
H7    H     H_    0.637862 0.879153 0.852832 0.161276
H8    H     H_    0.614214 0.678863 0.747655 0.197109
H9    H     H_    0.421765 0.336824 0.872928 0.135240
H10   H     H_    0.939818 0.290520 0.576858 0.129649
H11   H     H_    0.951067 0.535999 0.266195 0.133860
H12   H     H_    0.059723 0.698411 0.425682 0.131358
H13   H     H_    0.950815 0.654411 0.659050 0.130103
H14   H     H_    0.048505 0.452975 0.736322 0.128631
H15   H     H_    0.601448 0.122332 0.368001 0.149037
H16   H     H_    0.356139 0.217148 0.643598 0.137373
H17   H     H_    0.246792 0.092616 0.767559 0.131003
N1    N     N_R   0.500800 0.501210 0.147910 -0.196456
N2    N     N_R   0.500830 0.501290 0.852040 -0.194559
O1    O     O_R   0.499990 0.319640 0.618810 -0.582902
O2    O     O_R   0.500000 0.319660 0.381240 -0.583020
O3    O     O_R   0.379070 0.499980 0.618770 -0.585399
O4    O     O_R   0.379080 0.500000 0.381190 -0.567537
O5    O     O_R   0.500000 0.680340 0.618760 -0.599623
O6    O     O_R   0.500010 0.680360 0.381190 -0.575766
O7    O     O_R   0.620920 0.500000 0.618810 -0.598924
O8    O     O_R   0.620930 0.500020 0.381230 -0.565794
C35   C     C_1   0.651151 0.702387 0.236589 0.285628
N3    N     N_1   0.706161 0.708936 0.314777 -0.337795

loop_
_geom_bond_atom_site_label_1
_geom_bond_atom_site_label_2
_ccdc_geom_bond_type
C20   C35   S    
C11   H2    S    
C19   C23   S    
C24   C25   A    
C29   O8    A    
Cu1   O1    S    
C1    O2    A    
Cu2   O8    S    
C9    C10   A    
C27   H5    S    
C2    C7    S    
C30   C31   S    
C4    C8    S    
Cu2   O4    S    
C12   O3    A    
C35   N3    T    
C17   H15   S    
C17   C18   A    
C3    H13   S    
C27   N1    A    
C1    C16   S    
C13   C14   A    
C12   C32   S    
C11   C13   A    
C2    C34   S    
C5    C6    S    
C9    H16   S    
C20   C26   A    
Cu1   O3    S    
C15   C16   A    
C26   N1    A    
C1    O1    A    
C28   N2    A    
C6    C31   S    
Cu1   O7    S    
C8    C33   T    
C9    C15   A    
C23   O5    A    
C24   H8    S    
C5    H12   S    
C22   C24   A    
C28   H9    S    
C34   H14   S    
C2    C5    S    
C13   H3    S    
C10   C11   A    
C30   C34   S    
Cu1   N2    S    
Cu2   O6    S    
Cu1   O5    S    
C16   C17   A    
C25   N2    A    
C23   O6    A    
Cu2   N1    S    
C20   C21   A    
C29   O7    A    
C4    C6    S    
Cu2   O2    S    
C6    H11   S    
C27   C28   A    
C10   H17   S    
C18   H4    S    
C14   C15   A    
C18   C19   A    
C7    C32   T    
C3    C34   S    
C25   C26   A    
C21   C22   A    
C12   O4    A    
C14   C19   A    
C30   H10   S    
C21   H6    S    
C4    C30   S    
C3    C4    S    
C22   H7    S    
C29   C33   S    
C31   H1    S    
C2    C31   S    
C3    C5    S    
Cu1   Cu2   S    
