data_mof_unit_6098.cif
_audit_creation_date              2012-12-10T19:10:26-0500
_audit_creation_method            fapswitch 2.2
_symmetry_space_group_name_H-M    P1
_symmetry_Int_Tables_number       1
_space_group_crystal_system       triclinic
_cell_length_a                    10.755181
_cell_length_b                    9.913908
_cell_length_c                    15.691992
_cell_angle_alpha                 90.812951
_cell_angle_beta                  94.690927
_cell_angle_gamma                 90.928413
_cell_volume                      1667.14686608

loop_
_atom_site_label
_atom_site_type_symbol
_atom_type_description
_atom_site_fract_x
_atom_site_fract_y
_atom_site_fract_z
_atom_type_partial_charge
C1    C     C_R   0.258012 0.498743 0.495984 0.903718
C2    C     C_3   0.627417 0.548235 0.958475 -0.358530
C3    C     C_3   0.630250 0.535803 0.056350 -0.369967
C4    C     C_1   0.497564 0.505526 0.825559 -0.035916
C5    C     C_1   0.499109 0.496414 0.174524 0.015922
C6    C     C_1   0.499756 0.496854 0.249940 -0.142432
C7    C     C_3   0.084282 0.569811 0.576184 0.237975
C8    C     C_3   0.066338 0.349082 0.493540 0.276892
C9    C     C_3   0.943020 0.553869 0.582318 -0.430107
C10   C     C_3   0.924226 0.356776 0.482292 -0.465262
C11   C     C_3   0.062904 0.570434 0.409079 0.996347
C12   C     C_3   0.120685 0.497607 0.492344 -0.095929
C13   C     C_3   0.879283 0.501127 0.496394 -0.088289
C14   C     C_R   0.499749 0.499063 0.338754 0.860945
C15   C     C_3   0.919700 0.588006 0.421605 -0.529271
C16   C     C_3   0.371429 0.078367 0.489165 -0.553555
C17   C     C_3   0.371083 0.917724 0.492882 -0.523153
C18   C     C_3   0.562326 0.079594 0.424756 0.415105
C19   C     C_3   0.557323 0.918314 0.422548 0.422606
C20   C     C_3   0.557968 0.083363 0.582657 0.328720
C21   C     C_3   0.563601 0.921060 0.581090 0.317271
C22   C     C_R   0.742247 0.500742 0.498723 0.972825
C23   C     C_R   0.498093 0.500972 0.661171 0.942819
C24   C     C_3   0.401022 0.604070 0.045827 0.258712
C25   C     C_3   0.454940 0.357795 0.043189 0.221532
C26   C     C_3   0.467277 0.359484 0.945529 -0.425741
C27   C     C_3   0.398969 0.602940 0.946788 -0.491426
C28   C     C_1   0.497703 0.503722 0.750126 -0.124538
C29   C     C_3   0.497884 0.498658 0.082928 0.063889
C30   C     C_3   0.497415 0.504358 0.917098 0.187870
H1    H     H_    0.304446 0.571198 0.918634 0.152525
H2    H     H_    0.378706 0.321141 0.911204 0.157850
H3    H     H_    0.905706 0.650991 0.600607 0.274485
H4    H     H_    0.889852 0.323401 0.417269 0.211769
H5    H     H_    0.903382 0.695449 0.437648 0.263610
H6    H     H_    0.856389 0.566504 0.363770 0.107283
H7    H     H_    0.323271 0.110380 0.427716 0.240603
H8    H     H_    0.315697 0.875395 0.435690 0.251222
H9    H     H_    0.316807 0.119463 0.540404 0.216119
H10   H     H_    0.321268 0.884495 0.548381 0.239400
H11   H     H_    0.505572 0.112574 0.365941 0.040101
H12   H     H_    0.493908 0.887129 0.365264 0.069845
H13   H     H_    0.489097 0.105613 0.630183 0.048877
H14   H     H_    0.505463 0.888545 0.632985 0.050624
H15   H     H_    0.306644 0.571722 0.062825 0.082176
H16   H     H_    0.353936 0.343883 0.052261 0.092609
H17   H     H_    0.542983 0.292439 0.927302 0.245735
H18   H     H_    0.417881 0.705379 0.922282 0.213615
H19   H     H_    0.666540 0.630779 0.088060 0.218005
H20   H     H_    0.698772 0.458501 0.077354 0.220671
H21   H     H_    0.648648 0.654443 0.941769 0.222954
H22   H     H_    0.701131 0.484112 0.933931 0.193836
H23   H     H_    0.132817 0.516585 0.631648 0.042862
H24   H     H_    0.094904 0.306917 0.557782 0.069963
H25   H     H_    0.924561 0.482603 0.634210 0.177201
H26   H     H_    0.886578 0.287538 0.527844 0.266506
N1    N     N_3   0.499750 0.138610 0.498180 -0.156286
N2    N     N_3   0.499750 0.861390 0.498180 -0.163296
O1    O     O_R   0.314910 0.616040 0.499980 -0.563994
O2    O     O_R   0.314910 0.383960 0.499980 -0.618965
O3    O     O_R   0.500120 0.616090 0.377110 -0.603620
O4    O     O_R   0.500120 0.383910 0.377110 -0.637013
O5    O     O_R   0.685320 0.616040 0.499960 -0.515099
O6    O     O_R   0.685320 0.383960 0.499960 -0.543878
O7    O     O_R   0.500110 0.615990 0.622830 -0.594792
O8    O     O_R   0.500110 0.384010 0.622830 -0.583287
Zn1   Zn    Zn3+2 0.500150 0.654960 0.499960 1.050421
Zn2   Zn    Zn3+2 0.500150 0.345040 0.499960 1.022627
O9    O     O_3   0.120778 0.700673 0.405864 -0.598834
C31   C     C_3   0.101449 0.760590 0.324872 -0.245195
H27   H     H_    0.000764 0.771891 0.305363 0.127032
H28   H     H_    0.149867 0.704788 0.275765 0.221960
H29   H     H_    0.143907 0.862948 0.328527 0.169837
O10   O     O_3   0.095612 0.488199 0.338081 -0.603065
C32   C     C_3   0.003364 0.467323 0.269478 -0.291237
H30   H     H_    0.931365 0.393433 0.286342 0.172162
H31   H     H_    0.048794 0.422416 0.215091 0.209570
H32   H     H_    0.960499 0.562144 0.246060 0.127714
S1    S     S_3+6 0.695684 0.168341 0.642287 0.098585
O11   O     O_2   0.710808 0.317943 0.645035 -0.299775
O12   O     O_2   0.685574 0.133789 0.734526 -0.275827
O13   O     O_3   0.830687 0.111385 0.610660 -0.526684
H33   H     H_    0.894701 0.137560 0.657246 0.359858
S2    S     S_3+6 0.715599 0.847497 0.621313 0.106993
O14   O     O_2   0.766681 0.910677 0.704378 -0.251877
O15   O     O_2   0.706917 0.703026 0.645166 -0.309385
O16   O     O_3   0.823247 0.865231 0.549991 -0.471149
H34   H     H_    0.904455 0.878157 0.583916 0.378274
O17   O     O_3   0.687132 0.128558 0.425136 -0.530668
C33   C     C_3   0.716005 0.165039 0.341620 -0.224415
H35   H     H_    0.701773 0.274539 0.332463 0.170104
H36   H     H_    0.661762 0.109033 0.288815 0.177470
H37   H     H_    0.814832 0.142992 0.333650 0.162286
O18   O     O_3   0.677352 0.864221 0.416129 -0.502043
C34   C     C_3   0.702110 0.833068 0.330785 -0.201487
H38   H     H_    0.641622 0.884030 0.280660 0.172009
H39   H     H_    0.693536 0.722724 0.319453 0.162979
H40   H     H_    0.799681 0.863822 0.322109 0.157379
S3    S     S_3+6 0.527736 0.211412 0.092678 0.038792
O19   O     O_2   0.538732 0.102567 0.026316 -0.200378
O20   O     O_2   0.655526 0.243245 0.134778 -0.361529
O21   O     O_3   0.436889 0.151665 0.166428 -0.491031
H41   H     H_    0.451121 0.214239 0.216086 0.338338
S4    S     S_3+6 0.422788 0.774000 0.088828 0.047318
O22   O     O_2   0.418038 0.775419 0.184254 -0.292826
O23   O     O_2   0.545734 0.833131 0.067582 -0.260652
O24   O     O_3   0.306689 0.870276 0.046525 -0.492844
H42   H     H_    0.335813 0.904708 0.992529 0.371506
O25   O     O_3   0.117684 0.709174 0.576336 -0.541787
C35   C     C_3   0.151929 0.756657 0.660358 -0.317733
H43   H     H_    0.242464 0.713454 0.684942 0.161690
H44   H     H_    0.078482 0.733621 0.704264 0.179426
H45   H     H_    0.163975 0.867927 0.659150 0.176670
O26   O     O_3   0.109656 0.264842 0.428584 -0.540836
C36   C     C_3   0.074989 0.128300 0.441106 -0.245833
H46   H     H_    0.972790 0.111306 0.433769 0.202597
H47   H     H_    0.110470 0.091719 0.504913 0.157895
H48   H     H_    0.114022 0.065502 0.391450 0.176356

loop_
_geom_bond_atom_site_label_1
_geom_bond_atom_site_label_2
_ccdc_geom_bond_type
C27   H18   S    
O8    Zn2   S    
O16   H34   S    
C26   H2    S    
C34   H38   S    
C24   C27   S    
S4    O23   D    
O26   C36   S    
C3    H19   S    
C34   H40   S    
C24   H15   S    
O6    Zn2   S    
C23   O8    A    
S2    O15   D    
C1    O1    A    
C5    C6    T    
C36   H46   S    
C14   O4    A    
C18   C19   S    
C3    C29   S    
C9    C13   S    
C24   C29   S    
O1    Zn1   S    
C22   O5    A    
C35   H43   S    
C11   C15   S    
C25   S3    S    
C16   C17   S    
C36   H47   S    
O24   H42   S    
S2    O16   S    
C31   H27   S    
C9    H25   S    
C10   H26   S    
C19   H12   S    
C8    O26   S    
C17   N2    S    
C17   H8    S    
C27   C30   S    
C9    H3    S    
O9    C31   S    
C1    C12   S    
C15   H5    S    
S4    O22   D    
C4    C28   T    
C3    H20   S    
C5    C29   S    
C19   N2    S    
C25   C29   S    
C7    C12   S    
O5    Zn1   S    
O10   C32   S    
C27   H1    S    
O21   H41   S    
S2    O14   D    
C18   H11   S    
C8    H24   S    
S1    O12   D    
O7    Zn1   S    
C25   C26   S    
C14   O3    A    
C10   C13   S    
C7    O25   S    
C24   S4    S    
C17   H10   S    
C32   H30   S    
C6    C14   S    
C21   H14   S    
O3    Zn1   S    
C18   N1    S    
C33   H36   S    
S3    O19   D    
C21   S2    S    
C8    C12   S    
C36   H48   S    
C31   H29   S    
C11   O9    S    
C10   H4    S    
C23   C28   S    
C32   H31   S    
C35   H45   S    
C19   O18   S    
C2    H22   S    
C26   H17   S    
S3    O20   D    
C26   C30   S    
C13   C15   S    
C1    O2    A    
C7    H23   S    
N1    Zn2   S    
C15   H6    S    
C20   H13   S    
C33   H37   S    
C7    C9    S    
C20   S1    S    
C18   O17   S    
C11   O10   S    
S1    O13   S    
C11   C12   S    
C34   H39   S    
C16   H7    S    
O4    Zn2   S    
C2    C30   S    
C23   O7    A    
C2    C3    S    
O17   C33   S    
C21   N2    S    
O25   C35   S    
C33   H35   S    
C13   C22   S    
C16   N1    S    
O18   C34   S    
C32   H32   S    
C35   H44   S    
C2    H21   S    
C16   H9    S    
C22   O6    A    
S1    O11   D    
N2    Zn1   S    
S3    O21   S    
C20   C21   S    
O2    Zn2   S    
C8    C10   S    
O13   H33   S    
C31   H28   S    
C20   N1    S    
C25   H16   S    
S4    O24   S    
C4    C30   S    
