data_mof_unit_24217.cif
_audit_creation_date              2012-12-10T17:05:22-0500
_audit_creation_method            fapswitch 2.2
_symmetry_space_group_name_H-M    P1
_symmetry_Int_Tables_number       1
_space_group_crystal_system       triclinic
_cell_length_a                    10.099111
_cell_length_b                    10.741912
_cell_length_c                    15.392847
_cell_angle_alpha                 90.729141
_cell_angle_beta                  67.903328
_cell_angle_gamma                 90.412836
_cell_volume                      1547.09195464

loop_
_atom_site_label
_atom_site_type_symbol
_atom_type_description
_atom_site_fract_x
_atom_site_fract_y
_atom_site_fract_z
_atom_type_partial_charge
C1    C     C_R   0.499259 0.737064 0.502169 0.942742
C2    C     C_R   0.741523 0.518527 0.026936 0.149238
C3    C     C_R   0.602190 0.561286 0.082087 0.132556
C4    C     C_R   0.410331 0.502344 0.676148 0.863042
C5    C     C_R   0.834734 0.480831 0.069870 -0.142227
C6    C     C_R   0.787370 0.477042 0.167324 -0.098421
C7    C     C_R   0.557310 0.556754 0.179589 -0.240792
C8    C     C_2   0.610843 0.067635 0.501296 -0.150912
C9    C     C_2   0.505639 0.130966 0.489347 -0.316632
C10   C     C_2   0.614340 0.933586 0.495868 -0.115173
C11   C     C_2   0.494748 0.868707 0.511119 -0.321480
C12   C     C_R   0.433815 0.568001 0.906453 0.039782
C13   C     C_2   0.069697 0.400657 0.507617 -0.057639
C14   C     C_2   0.933430 0.401679 0.489185 -0.065324
C15   C     C_R   0.500934 0.262837 0.497950 0.917017
C16   C     C_R   0.589859 0.501644 0.323979 0.858881
C17   C     C_R   0.357664 0.526909 0.777036 -0.057219
C18   C     C_R   0.647097 0.512047 0.222108 -0.063973
C19   C     C_R   0.199051 0.636116 0.914799 -0.130460
C20   C     C_R   0.228244 0.587835 0.824799 -0.225082
C21   C     C_R   0.453560 0.509947 0.820961 -0.173012
C22   C     C_R   0.301871 0.628799 0.956488 0.025458
C23   C     C_R   0.542043 0.563551 0.943650 0.057647
C24   C     C_R   0.506972 0.595690 0.038569 0.015800
C25   C     C_R   0.378178 0.660129 0.086796 -0.320713
C26   C     C_R   0.278126 0.680874 0.045816 0.392599
C27   C     C_R   0.684486 0.528559 0.888898 -0.173683
C28   C     C_R   0.783646 0.509360 0.929995 -0.219076
H1    H     H_    0.942175 0.449991 0.028176 0.145900
H2    H     H_    0.858756 0.443687 0.199616 0.162722
H3    H     H_    0.891104 0.480604 0.886364 0.158431
H4    H     H_    0.097386 0.681583 0.949635 0.213601
H5    H     H_    0.152385 0.602222 0.791477 0.182333
H6    H     H_    0.546255 0.452844 0.785520 0.154565
H7    H     H_    0.357043 0.700214 0.155246 0.187627
H8    H     H_    0.722617 0.517875 0.813667 0.197064
H9    H     H_    0.103245 0.765091 0.253792 0.361113
H10   H     H_    0.726154 0.756726 0.668800 0.363638
H11   H     H_    0.697568 0.114217 0.514325 0.175824
H12   H     H_    0.422978 0.087267 0.470487 0.158430
H13   H     H_    0.716817 0.888332 0.480066 0.215815
H14   H     H_    0.390063 0.911115 0.532536 0.162071
H15   H     H_    0.103983 0.313541 0.527087 0.145179
H16   H     H_    0.132215 0.568105 0.458955 0.233570
H17   H     H_    0.899693 0.314219 0.468059 0.107920
H18   H     H_    0.449080 0.580579 0.223836 0.159168
N1    N     N_2   0.148330 0.498670 0.499030 -0.138155
N2    N     N_2   0.852680 0.498640 0.499000 0.066778
O1    O     O_R   0.386950 0.680940 0.500010 -0.607433
O2    O     O_2   0.993102 0.696887 0.132720 -0.337832
O3    O     O_3   0.136596 0.832901 0.207446 -0.518996
O4    O     O_2   0.925539 0.581981 0.641769 -0.335102
O5    O     O_2   0.957337 0.724260 0.511274 -0.339444
O6    O     O_3   0.705565 0.686929 0.633057 -0.507006
O7    O     O_R   0.613110 0.680900 0.499990 -0.539991
O8    O     O_R   0.322330 0.500030 0.632270 -0.601717
O9    O     O_R   0.548480 0.499990 0.632240 -0.553023
O10   O     O_R   0.386890 0.319100 0.500010 -0.623973
O11   O     O_R   0.613050 0.319060 0.499990 -0.637897
O12   O     O_R   0.451520 0.500010 0.367760 -0.624904
O13   O     O_R   0.677670 0.499970 0.367730 -0.615678
O14   O     O_2   0.118769 0.879651 0.047516 -0.252336
S1    S     S_3+6 0.126709 0.773798 0.108262 0.019187
S2    S     S_3+6 0.865145 0.623167 0.571161 0.092731
Zn1   Zn    Zn3+2 0.349000 0.500030 0.500020 0.990797
Zn2   Zn    Zn3+2 0.651000 0.499970 0.499980 1.056080

loop_
_geom_bond_atom_site_label_1
_geom_bond_atom_site_label_2
_ccdc_geom_bond_type
C4    O9    A    
C14   N2    D    
C23   C24   A    
O14   S1    D    
C8    H11   S    
C23   C27   A    
C27   H8    S    
O10   Zn1   S    
C3    C7    A    
C19   C20   A    
C1    C11   S    
H16   N1    S    
O9    Zn2   S    
C26   S1    S    
C7    C18   A    
C19   H4    S    
C17   C20   A    
C2    C3    A    
C1    O7    A    
C13   C14   S    
C4    O8    A    
C10   H13   S    
O2    S1    D    
C12   C23   A    
C3    C24   A    
O1    Zn1   S    
C25   H7    S    
C6    C18   A    
C4    C17   S    
O13   Zn2   S    
C8    C10   S    
O5    S2    D    
N1    Zn1   S    
O12   Zn1   S    
C14   H17   S    
C5    H1    S    
C10   C11   D    
C28   H3    S    
O11   Zn2   S    
C22   C26   A    
C5    C6    A    
H9    O3    S    
C15   O10   A    
N2    S2    S    
C2    C5    A    
C16   O13   A    
C20   H5    S    
O8    Zn1   S    
C7    H18   S    
C12   C22   A    
C13   H15   S    
C19   C22   A    
O3    S1    S    
C24   C25   A    
O6    S2    S    
C11   H14   S    
C16   C18   S    
C1    O1    A    
O4    S2    D    
C27   C28   A    
C13   N1    D    
C8    C9    D    
C2    C28   A    
C21   H6    S    
N2    Zn2   S    
C25   C26   A    
C9    C15   S    
C16   O12   A    
C15   O11   A    
C12   C21   A    
C6    H2    S    
C9    H12   S    
C17   C21   A    
O7    Zn2   S    
H10   O6    S    
