data_mof_unit_56516.cif
_audit_creation_date              2012-12-10T17:58:19-0500
_audit_creation_method            fapswitch 2.2
_symmetry_space_group_name_H-M    P1
_symmetry_Int_Tables_number       1
_space_group_crystal_system       triclinic
_cell_length_a                    9.508361
_cell_length_b                    10.842062
_cell_length_c                    15.498417
_cell_angle_alpha                 89.853141
_cell_angle_beta                  74.348794
_cell_angle_gamma                 90.167028
_cell_volume                      1538.47858894

loop_
_atom_site_label
_atom_site_type_symbol
_atom_type_description
_atom_site_fract_x
_atom_site_fract_y
_atom_site_fract_z
_atom_type_partial_charge
C1    C     C_R   0.000472 0.262264 0.497735 0.784577
C2    C     C_R   0.999792 0.737828 0.501928 0.793037
C3    C     C_R   0.566315 0.594143 0.084341 -0.224936
C4    C     C_R   0.408078 0.500940 0.901478 -0.147207
C5    C     C_R   0.709832 0.619397 0.037579 -0.231871
C6    C     C_R   0.260517 0.494132 0.947097 -0.255656
C7    C     C_R   0.898213 0.061070 0.463103 0.002625
C8    C     C_R   0.104106 0.939371 0.534346 -0.002477
C9    C     C_R   0.899093 0.933246 0.467704 -0.245029
C10   C     C_R   0.102348 0.067041 0.530477 -0.246187
C11   C     C_R   0.000914 0.871770 0.502652 -0.077658
C12   C     C_R   0.000393 0.128440 0.495791 -0.076853
C13   C     C_R   0.546309 0.434973 0.563117 0.005887
C14   C     C_R   0.453818 0.564460 0.436565 0.030689
C15   C     C_R   0.397438 0.435172 0.563187 -0.035069
C16   C     C_R   0.602701 0.564261 0.436504 -0.040646
C17   C     C_R   0.917969 0.499069 0.672106 0.788628
C18   C     C_R   0.082315 0.497823 0.327579 0.827875
C19   C     C_R   0.871600 0.510801 0.769861 -0.140664
C20   C     C_R   0.128499 0.496445 0.228752 -0.083860
C21   C     C_R   0.908669 0.605893 0.902911 -0.235098
C22   C     C_R   0.067976 0.490980 0.086468 -0.210902
C23   C     C_R   0.962036 0.571818 0.813743 -0.264773
C24   C     C_R   0.024135 0.496301 0.179726 -0.296637
C25   C     C_R   0.727815 0.477605 0.817503 0.333100
C26   C     C_R   0.278258 0.492686 0.182834 0.330262
C27   C     C_R   0.666979 0.527212 0.903570 0.052442
C28   C     C_R   0.322376 0.510358 0.088892 -0.011185
C29   C     C_R   0.762112 0.584310 0.948191 0.106650
C30   C     C_R   0.216468 0.498088 0.040553 0.131914
C31   C     C_R   0.515522 0.518448 0.948091 0.097449
C32   C     C_R   0.468909 0.537969 0.041737 0.037131
Cu1   Cu    Cu3+1 0.140660 0.500020 0.500000 0.963508
Cu2   Cu    Cu3+1 0.859340 0.499980 0.500000 0.945684
H1    H     H_    0.780938 0.664408 0.072068 0.147654
H2    H     H_    0.180966 0.484188 0.909045 0.153909
H3    H     H_    0.908490 0.496319 0.213493 0.170757
H4    H     H_    0.073241 0.595161 0.778434 0.170207
H5    H     H_    0.980955 0.652498 0.935741 0.149115
H6    H     H_    0.985597 0.483560 0.050290 0.158191
H7    H     H_    0.530620 0.624827 0.153122 0.187336
H8    H     H_    0.434838 0.501595 0.829172 0.191401
H9    H     H_    0.822628 0.881488 0.441030 0.145825
H10   H     H_    0.179109 0.118762 0.556981 0.149289
H11   H     H_    0.579919 0.382088 0.613293 0.146440
H12   H     H_    0.420284 0.617002 0.386166 0.138659
H13   H     H_    0.318909 0.382832 0.613561 0.120006
H14   H     H_    0.681294 0.616332 0.385982 0.113189
N1    N     N_R   0.352080 0.500030 0.499980 -0.157703
N2    N     N_R   0.647920 0.499970 0.500020 -0.156870
O1    O     O_R   0.118740 0.319660 0.500000 -0.591078
O2    O     O_R   0.881260 0.680340 0.500000 -0.592823
O3    O     O_R   0.881170 0.319630 0.500010 -0.571742
O4    O     O_R   0.118830 0.680370 0.499990 -0.573213
O5    O     O_R   0.055570 0.500030 0.629830 -0.583543
O6    O     O_R   0.944430 0.499970 0.370170 -0.599393
O7    O     O_R   0.818000 0.500000 0.629840 -0.572175
O8    O     O_R   0.182000 0.500000 0.370160 -0.524432
O9    O     O_3   0.377473 0.460213 0.229666 -0.758071
H15   H     H_    0.456525 0.411438 0.189529 0.315665
O10   O     O_3   0.650225 0.389959 0.784393 -0.764037
H16   H     H_    0.719552 0.336650 0.741211 0.320610
C33   C     C_R   0.791771 0.120381 0.421956 0.128699
C34   C     C_R   0.641767 0.114668 0.465297 -0.166573
C35   C     C_R   0.541276 0.173230 0.427825 -0.142860
C36   C     C_R   0.589748 0.237603 0.346967 -0.099145
C37   C     C_R   0.738850 0.243116 0.303167 -0.129590
C38   C     C_R   0.839850 0.184701 0.340394 -0.103043
H17   H     H_    0.603171 0.066739 0.528705 0.135754
H18   H     H_    0.425928 0.169536 0.461771 0.138240
H19   H     H_    0.511729 0.283301 0.318404 0.160252
H20   H     H_    0.776081 0.292695 0.240414 0.125605
H21   H     H_    0.955229 0.190260 0.306221 0.108836
C39   C     C_R   0.213542 0.881332 0.573458 0.140656
C40   C     C_R   0.173045 0.836694 0.661871 -0.126852
C41   C     C_R   0.278453 0.785848 0.699283 -0.146000
C42   C     C_R   0.423780 0.777628 0.648367 -0.087148
C43   C     C_R   0.464473 0.821936 0.560382 -0.147983
C44   C     C_R   0.360034 0.874225 0.523017 -0.158172
H22   H     H_    0.060647 0.842464 0.701848 0.118733
H23   H     H_    0.247948 0.753459 0.767932 0.120133
H24   H     H_    0.504949 0.737464 0.677202 0.133423
H25   H     H_    0.577010 0.815855 0.521159 0.132816
H26   H     H_    0.392982 0.908650 0.454822 0.126291

loop_
_geom_bond_atom_site_label_1
_geom_bond_atom_site_label_2
_ccdc_geom_bond_type
Cu1   O5    S    
Cu2   O6    S    
Cu1   O8    S    
C27   C29   A    
C10   H10   S    
C15   H13   S    
C16   H14   S    
C14   H12   S    
C42   C43   A    
C20   C26   A    
C22   C24   A    
C16   N2    A    
C44   H26   S    
C14   N1    A    
Cu1   N1    S    
C35   H18   S    
C37   H20   S    
C1    O3    A    
C43   H25   S    
C18   O8    A    
C31   C32   A    
Cu2   O7    S    
C40   H22   S    
C17   O5    A    
C18   O6    A    
C36   C37   A    
O9    H15   S    
C3    C32   A    
C1    C12   S    
C2    C11   S    
C10   C12   A    
C24   H3    S    
C5    C29   A    
C21   C23   A    
C7    C12   A    
Cu2   N2    S    
C9    H9    S    
C39   C40   A    
C27   C31   A    
C37   C38   A    
C20   C24   A    
C28   C32   A    
C41   C42   A    
C4    C6    A    
C2    O4    A    
C43   C44   A    
C38   H21   S    
C21   C29   A    
C13   N2    A    
C19   C23   A    
C40   C41   A    
C9    C11   A    
C36   H19   S    
C21   H5    S    
C22   H6    S    
C8    C39   S    
Cu1   Cu2   S    
C25   O10   S    
C34   H17   S    
C1    O1    A    
C7    C33   S    
C2    O2    A    
C6    C30   A    
C39   C44   A    
C13   C15   A    
C14   C16   A    
C25   C27   A    
C26   O9    S    
Cu1   O4    S    
C7    C9    A    
C33   C38   A    
C3    H7    S    
C22   C30   A    
Cu2   O2    S    
C3    C5    A    
C41   H23   S    
Cu1   O1    S    
C23   H4    S    
C26   C28   A    
C34   C35   A    
C28   C30   A    
C13   H11   S    
C4    H8    S    
C42   H24   S    
C8    C11   A    
C5    H1    S    
C17   C19   S    
C6    H2    S    
C18   C20   S    
C15   N1    A    
O10   H16   S    
C19   C25   A    
C4    C31   A    
C33   C34   A    
Cu2   O3    S    
C8    C10   A    
C35   C36   A    
C17   O7    A    
