data_mof_unit_51934.cif
_audit_creation_date              2012-12-11T15:31:44-0500
_audit_creation_method            fapswitch 2.2
_symmetry_space_group_name_H-M    P1
_symmetry_Int_Tables_number       1
_space_group_crystal_system       triclinic
_cell_length_a                    6.943573
_cell_length_b                    14.778122
_cell_length_c                    21.317667
_cell_angle_alpha                 75.115113
_cell_angle_beta                  90.463238
_cell_angle_gamma                 90.030213
_cell_volume                      2113.99429086

loop_
_atom_site_label
_atom_site_type_symbol
_atom_type_description
_atom_site_fract_x
_atom_site_fract_y
_atom_site_fract_z
_atom_type_partial_charge
O1    O     O_R   0.648150 0.130050 0.214300 -0.541843
O2    O     O_R   0.351850 0.869950 0.785700 -0.541843
O3    O     O_R   0.320490 0.006660 0.340150 -0.535340
O4    O     O_R   0.679510 0.993340 0.659850 -0.535340
O5    O     O_R   0.146100 0.869940 0.285700 -0.531108
O6    O     O_R   0.853900 0.130060 0.714300 -0.531108
C1    C     C_R   0.489465 0.001604 0.367152 0.719449
C2    C     C_R   0.510535 0.998396 0.632848 0.719449
O7    O     O_R   0.318690 0.137980 0.218120 -0.544071
O8    O     O_R   0.681310 0.862020 0.781880 -0.544071
O9    O     O_R   0.144280 0.002190 0.162800 -0.545857
O10   O     O_R   0.855720 0.997810 0.837200 -0.545857
C3    C     C_R   0.486931 0.175513 0.205426 0.684164
C4    C     C_R   0.513069 0.824487 0.794574 0.684164
O11   O     O_R   0.649960 0.997790 0.337200 -0.528933
O12   O     O_R   0.350040 0.002210 0.662800 -0.528932
O13   O     O_3   0.479300 0.955290 0.231990 -0.376285
O14   O     O_3   0.520700 0.044710 0.768010 -0.376285
V1    V     V_3+5 0.206040 0.008290 0.253340 1.455368
V2    V     V_3+5 0.793960 0.991710 0.746660 1.455368
O15   O     O_R   0.814320 0.993320 0.159850 -0.548221
O16   O     O_R   0.185680 0.006680 0.840150 -0.548221
C5    C     C_R   0.982635 0.998367 0.132840 0.658240
C6    C     C_R   0.017364 0.001633 0.867160 0.658240
O17   O     O_R   0.816120 0.862000 0.281880 -0.535551
O18   O     O_R   0.183880 0.138000 0.718120 -0.535551
C7    C     C_R   0.985625 0.824622 0.293547 0.778885
C8    C     C_R   0.014375 0.175378 0.706453 0.778884
V3    V     V_3+5 0.705540 0.991700 0.246660 1.448288
V4    V     V_3+5 0.294460 0.008300 0.753340 1.448287
O19   O     O_3   0.982150 0.044700 0.268010 -0.366246
O20   O     O_3   0.017850 0.955300 0.731990 -0.366246
C9    C     C_R   0.998927 0.724233 0.323254 -0.074610
C10   C     C_R   0.001073 0.275767 0.676746 -0.074610
C11   C     C_R   0.122574 0.575502 0.314786 -0.150755
C12   C     C_R   0.877426 0.424498 0.685214 -0.150755
C13   C     C_R   0.066183 0.666686 0.285493 -0.232731
C14   C     C_R   0.933817 0.333314 0.714507 -0.232731
C15   C     C_R   0.975228 0.688898 0.390763 0.171808
C16   C     C_R   0.024772 0.311102 0.609236 0.171809
C17   C     C_R   0.006775 0.591586 0.419715 0.035730
C18   C     C_R   0.993225 0.408414 0.580285 0.035730
C19   C     C_R   0.100483 0.538878 0.381688 0.102917
C20   C     C_R   0.899517 0.461122 0.618312 0.102917
C21   C     C_R   0.961049 0.545351 0.485445 0.064697
C22   C     C_R   0.038951 0.454649 0.514555 0.064697
C23   C     C_R   0.167072 0.415569 0.477929 -0.127332
C24   C     C_R   0.832928 0.584431 0.522071 -0.127332
C25   C     C_R   0.184526 0.452861 0.411587 -0.184434
C26   C     C_R   0.815474 0.547139 0.588413 -0.184434
H1    H     H_    0.272958 0.416578 0.384084 0.124414
H2    H     H_    0.727042 0.583422 0.615915 0.124414
H3    H     H_    0.911035 0.305265 0.766097 0.111765
H4    H     H_    0.088965 0.694735 0.233903 0.111765
H5    H     H_    0.188808 0.534373 0.285380 0.118377
H6    H     H_    0.811192 0.465626 0.714620 0.118377
H7    H     H_    0.257491 0.356563 0.499967 0.176796
H8    H     H_    0.742508 0.643437 0.500033 0.176796
C27   C     C_3   0.820893 0.994987 0.977039 -0.116889
C28   C     C_3   0.179107 0.005013 0.022961 -0.116889
C29   C     C_3   0.916226 0.920335 0.033266 -0.146740
C30   C     C_3   0.083774 0.079665 0.966734 -0.146740
H9    H     H_    0.846946 0.854684 0.061053 0.100111
H10   H     H_    0.153054 0.145316 0.938947 0.100111
H11   H     H_    0.672763 0.990896 0.957940 0.107824
H12   H     H_    0.327237 0.009104 0.042060 0.107824
C31   C     C_3   0.991820 0.998929 0.062211 0.000272
C32   C     C_3   0.008180 0.001071 0.937789 0.000272
C33   C     C_3   0.896603 0.073598 0.006780 -0.138349
C34   C     C_3   0.103397 0.926402 0.993220 -0.138349
H13   H     H_    0.810950 0.134197 0.012792 0.098098
H14   H     H_    0.189050 0.865803 0.987208 0.098097
C35   C     C_3   0.681726 0.001717 0.478464 -0.077533
C36   C     C_3   0.318274 0.998283 0.521536 -0.077533
C37   C     C_3   0.589197 0.076993 0.507679 -0.127916
C38   C     C_3   0.410803 0.923007 0.492321 -0.127916
H15   H     H_    0.661488 0.140858 0.514362 0.168600
H16   H     H_    0.338512 0.859142 0.485638 0.168600
H17   H     H_    0.831682 0.003216 0.460523 0.148317
H18   H     H_    0.168318 0.996784 0.539476 0.148317
C39   C     C_3   0.502151 0.998934 0.562256 -0.036017
C40   C     C_3   0.497848 0.001066 0.437744 -0.036017
C41   C     C_3   0.594705 0.923653 0.533849 -0.137034
C42   C     C_3   0.405295 0.076347 0.466151 -0.137034
H19   H     H_    0.672486 0.860516 0.562171 0.133297
H20   H     H_    0.327513 0.139484 0.437829 0.133297
C43   C     C_R   0.493557 0.276823 0.177679 -0.029672
C44   C     C_R   0.506443 0.723177 0.822320 -0.029672
C45   C     C_R   0.476740 0.433778 0.191079 -0.160447
C46   C     C_R   0.523260 0.566222 0.808921 -0.160447
C47   C     C_R   0.479611 0.337441 0.217930 -0.171343
C48   C     C_R   0.520389 0.662559 0.782070 -0.171344
C49   C     C_R   0.504013 0.312536 0.110292 -0.215627
C50   C     C_R   0.495987 0.687464 0.889708 -0.215627
C51   C     C_R   0.498499 0.410348 0.081455 0.084317
C52   C     C_R   0.501501 0.589652 0.918545 0.084317
C53   C     C_R   0.484874 0.470604 0.123509 0.142466
C54   C     C_R   0.515126 0.529396 0.876491 0.142466
C55   C     C_R   0.504117 0.450180 0.012675 0.060393
C56   C     C_R   0.495883 0.549820 0.987325 0.060393
C57   C     C_R   0.482796 0.606226 0.031582 -0.192244
C58   C     C_R   0.517204 0.393774 0.968418 -0.192244
C59   C     C_R   0.477758 0.567228 0.098073 -0.205879
C60   C     C_R   0.522242 0.432772 0.901927 -0.205879
H21   H     H_    0.467177 0.613479 0.130016 0.119852
H22   H     H_    0.532823 0.386521 0.869984 0.119852
H23   H     H_    0.487049 0.738264 0.917855 0.089493
H24   H     H_    0.512951 0.261736 0.082145 0.089493
H25   H     H_    0.529871 0.689907 0.729914 0.102867
H26   H     H_    0.470129 0.310093 0.270086 0.102867
H27   H     H_    0.466291 0.479705 0.223207 0.109955
H28   H     H_    0.533709 0.520295 0.776793 0.109955
H29   H     H_    0.475662 0.681440 0.016642 0.117397
H30   H     H_    0.524338 0.318560 0.983358 0.117397
Br1   Br    Br    0.039277 0.218896 0.558693 -0.655148
Br2   Br    Br    0.960723 0.781104 0.441307 -0.655149

loop_
_geom_bond_atom_site_label_1
_geom_bond_atom_site_label_2
_ccdc_geom_bond_type
C29   C34   S    
C43   C47   A    
C57   H29   S    
C46   H28   S    
O4    C2    A    
V1    O19   S    
C60   H22   S    
C15   C17   A    
C21   C22   A    
C7    C9    S    
O9    V1    S    
C48   H25   S    
C9    C15   A    
C36   C38   S    
C58   H30   S    
C47   H26   S    
C11   C13   A    
C42   H20   S    
O3    C1    A    
C49   H24   S    
C51   C55   A    
C37   C42   S    
C16   Br1   S    
O12   V4    S    
C52   C56   A    
O13   V3    S    
C28   C30   S    
C18   C22   A    
C5    C31   S    
C33   H13   S    
O7    C3    A    
C30   H10   S    
O5    C7    A    
O7    V1    S    
O6    C8    A    
C44   C48   A    
C28   C31   S    
O8    V2    S    
C25   H1    S    
C52   C54   A    
C26   H2    S    
O3    V1    S    
O14   V4    S    
C45   C47   A    
C11   C19   A    
C2    O12   A    
C24   C26   A    
C8    C10   S    
C49   C51   A    
C36   H18   S    
C17   C19   A    
O10   V2    S    
C18   C20   A    
C38   C41   S    
C39   C41   S    
O11   V3    S    
O17   V3    S    
C44   C50   A    
C50   H23   S    
C27   C29   S    
C11   H5    S    
C2    C39   S    
C23   C25   A    
O8    C4    A    
C38   C40   S    
C37   C39   S    
C1    O11   A    
O15   V3    S    
C9    C13   A    
C30   C33   S    
C45   C53   A    
C31   C33   S    
C58   C60   A    
C12   H6    S    
C27   C32   S    
C23   H7    S    
C29   C31   S    
C46   C48   A    
C55   C56   A    
C28   C34   S    
C3    C43   S    
O1    V3    S    
C35   H17   S    
C59   H21   S    
C50   C52   A    
C37   H15   S    
C53   C59   A    
C27   C33   S    
C13   H4    S    
C41   H19   S    
O18   V4    S    
C40   C42   S    
O15   C5    A    
O16   C6    A    
C12   C20   A    
O1    C3    A    
C1    C40   S    
C35   C37   S    
C36   C39   S    
C35   C40   S    
V2    O20   S    
C21   C24   A    
C20   C26   A    
C36   C42   S    
O10   C6    A    
C22   C23   A    
O16   V4    S    
C10   C14   A    
C29   H9    S    
C19   C25   A    
C38   H16   S    
C16   C18   A    
C51   C53   A    
C24   H8    S    
O5    V1    S    
O17   C7    A    
O6    V2    S    
C45   H27   S    
O18   C8    A    
C57   C59   A    
C30   C32   S    
O2    V4    S    
C12   C14   A    
C4    C44   S    
V3    O19   S    
C27   H11   S    
V4    O20   S    
C14   H3    S    
C54   C60   A    
C43   C49   A    
O9    C5    A    
C56   C57   A    
O13   V1    S    
C46   C54   A    
O14   V2    S    
O2    C4    A    
C6    C32   S    
C28   H12   S    
O4    V2    S    
C55   C58   A    
C32   C34   S    
C15   Br2   S    
C17   C21   A    
C10   C16   A    
C34   H14   S    
C35   C41   S    
