data_mof_unit_29125.cif
_audit_creation_date              2012-12-10T18:27:54-0500
_audit_creation_method            fapswitch 2.2
_symmetry_space_group_name_H-M    P1
_symmetry_Int_Tables_number       1
_space_group_crystal_system       triclinic
_cell_length_a                    18.219174
_cell_length_b                    18.233223
_cell_length_c                    18.214535
_cell_angle_alpha                 90.387087
_cell_angle_beta                  119.656068
_cell_angle_gamma                 119.76542
_cell_volume                      4301.37817359

loop_
_atom_site_label
_atom_site_type_symbol
_atom_type_description
_atom_site_fract_x
_atom_site_fract_y
_atom_site_fract_z
_atom_type_partial_charge
C1    C     C_R   0.782029 0.640836 0.641290 0.734246
C2    C     C_3   0.058879 0.198503 0.307594 -0.183321
C3    C     C_3   0.101542 0.299546 0.306157 -0.039178
C4    C     C_R   0.217707 0.358733 0.362058 0.945349
C5    C     C_3   0.896791 0.198305 0.203334 -0.034955
C6    C     C_3   0.940155 0.228618 0.144775 -0.304460
C7    C     C_3   0.937211 0.142496 0.252969 -0.318302
C8    C     C_3   0.605143 0.317543 0.757736 -0.262327
C9    C     C_3   0.606529 0.261378 0.821730 -0.388336
C10   C     C_3   0.470309 0.324530 0.765449 -0.113485
C11   C     C_3   0.415697 0.198152 0.640264 -0.217885
C12   C     C_3   0.571123 0.768702 0.836853 -0.181627
C13   C     C_3   0.495706 0.301021 0.699380 -0.043105
C14   C     C_3   0.497292 0.198553 0.801209 0.090764
C15   C     C_3   0.465577 0.257660 0.821471 -0.312961
C16   C     C_R   0.499287 0.640630 0.358474 0.815754
C17   C     C_3   0.421525 0.139803 0.700581 -0.377180
C18   C     C_3   0.939683 0.744182 0.798221 -0.158558
C19   C     C_3   0.059524 0.807617 0.856261 -0.274993
C20   C     C_3   0.938711 0.640440 0.701988 -0.292996
C21   C     C_3   0.936976 0.775268 0.660306 -0.263338
C22   C     C_3   0.897455 0.699025 0.699515 -0.054193
C23   C     C_3   0.593849 0.793645 0.766393 -0.038324
C24   C     C_3   0.101951 0.802684 0.799141 -0.175128
C25   C     C_3   0.061362 0.699540 0.765386 -0.096995
C26   C     C_3   0.059196 0.836887 0.716208 -0.178214
C27   C     C_3   0.579356 0.360057 0.276356 -0.206040
C28   C     C_R   0.498716 0.358822 0.641147 0.818094
C29   C     C_3   0.576688 0.298791 0.215959 -0.537826
C30   C     C_3   0.518101 0.234866 0.343035 -0.324779
C31   C     C_3   0.384100 0.245187 0.203051 -0.208662
C32   C     C_3   0.496521 0.301638 0.297058 -0.050495
C33   C     C_3   0.495750 0.198039 0.195568 0.024085
C34   C     C_3   0.524796 0.827979 0.732313 -0.222830
C35   C     C_3   0.529721 0.181398 0.287988 -0.241016
C36   C     C_3   0.383078 0.178875 0.142310 -0.144281
C37   C     C_3   0.590071 0.732947 0.293870 -0.508490
C38   C     C_3   0.584053 0.783767 0.226198 -0.183382
C39   C     C_3   0.395952 0.641107 0.201116 -0.185683
C40   C     C_R   0.499327 0.359011 0.357670 0.865642
C41   C     C_3   0.512331 0.783276 0.344512 -0.259288
C42   C     C_3   0.496506 0.697535 0.300126 -0.020508
C43   C     C_3   0.495976 0.799453 0.197387 -0.180968
C44   C     C_3   0.384890 0.703986 0.143304 -0.125062
C45   C     C_3   0.430575 0.732914 0.663782 -0.087974
C46   C     C_3   0.521632 0.849790 0.288680 -0.178996
C47   C     C_R   0.499975 0.140969 0.858840 0.794964
C48   C     C_R   0.499319 0.858565 0.140765 0.726357
C49   C     C_R   0.781745 0.140860 0.142935 0.841577
C50   C     C_R   0.217759 0.860168 0.858576 0.771617
C51   C     C_R   0.498929 0.141137 0.140495 0.873080
C52   C     C_R   0.500061 0.641690 0.641451 0.876317
C53   C     C_R   0.500027 0.858405 0.858521 0.799532
C54   C     C_3   0.476796 0.673770 0.768135 -0.143667
C55   C     C_3   0.406492 0.707403 0.733869 -0.149947
C56   C     C_3   0.500806 0.699865 0.698726 0.007839
C57   C     C_3   0.500659 0.801419 0.801471 0.003310
C58   C     C_2   0.888047 0.262392 0.074615 0.433747
C59   C     C_2   0.084380 0.153331 0.261455 0.475563
C60   C     C_2   0.105369 0.193521 0.403159 0.498191
C61   C     C_2   0.893689 0.101665 0.306552 0.384469
C62   C     C_2   0.112975 0.295446 0.168107 0.456072
C63   C     C_2   0.639226 0.302521 0.701300 0.474304
C64   C     C_2   0.557487 0.420295 0.832504 0.405658
C65   C     C_2   0.304838 0.166849 0.574556 0.546243
C66   C     C_2   0.371443 0.321639 0.716408 0.482262
C67   C     C_3   0.057122 0.334486 0.342702 -0.309929
C68   C     C_2   0.366491 0.202424 0.816674 0.337988
C69   C     C_2   0.904879 0.679588 0.844977 0.456223
C70   C     C_2   0.101449 0.901758 0.905256 0.433951
C71   C     C_2   0.096654 0.667572 0.846012 0.429425
C72   C     C_2   0.884803 0.824076 0.640906 0.496025
C73   C     C_2   0.106021 0.937275 0.749310 0.683110
C74   C     C_2   0.700072 0.844855 0.786787 0.486379
C75   C     C_2   0.089108 0.828260 0.652713 0.403107
C76   C     C_2   0.888104 0.579923 0.609643 0.547991
C77   C     C_2   0.107080 0.684479 0.719982 0.490251
C78   C     C_3   0.939107 0.284931 0.272255 -0.270795
C79   C     C_2   0.689627 0.427623 0.356565 0.472309
C80   C     C_2   0.602431 0.275851 0.443386 0.419429
C81   C     C_2   0.636969 0.200501 0.338116 0.455591
C82   C     C_2   0.298367 0.191699 0.218686 0.433015
C83   C     C_2   0.357909 0.306833 0.154863 0.448789
C84   C     C_2   0.359379 0.194932 0.052339 0.252152
C85   C     C_2   0.294986 0.080793 0.116165 0.418924
C86   C     C_2   0.575706 0.737077 0.150270 0.461929
C87   C     C_2   0.352618 0.661338 0.050902 0.346861
C88   C     C_2   0.436281 0.762878 0.367875 0.488074
C89   C     C_3   0.058627 0.301647 0.207142 -0.320497
C90   C     C_2   0.632373 0.935456 0.343977 0.530720
C91   C     C_2   0.452809 0.882288 0.272599 0.505972
C92   C     C_2   0.295971 0.564064 0.185920 0.572181
C93   C     C_2   0.297457 0.713463 0.119895 0.408125
C94   C     C_2   0.107423 0.434730 0.367798 0.505464
C95   C     C_2   0.883345 0.270867 0.316557 0.443287
H1    H     H_    0.329198 0.672805 0.721427 0.181920
H2    H     H_    0.924517 0.168319 0.107362 0.159678
H3    H     H_    0.665191 0.389223 0.800267 0.125719
H4    H     H_    0.456995 0.609725 0.781951 0.193573
H5    H     H_    0.663817 0.351712 0.670441 0.051505
H6    H     H_    0.635417 0.221248 0.817826 0.231790
H7    H     H_    0.661714 0.307847 0.892235 0.171693
H8    H     H_    0.630812 0.434945 0.887544 0.077216
H9    H     H_    0.524884 0.298189 0.894101 0.109365
H10   H     H_    0.259373 0.164449 0.597516 0.131239
H11   H     H_    0.439238 0.184942 0.598554 0.223034
H12   H     H_    0.926097 0.329017 0.233138 0.173470
H13   H     H_    0.449200 0.102409 0.687046 0.206299
H14   H     H_    0.343868 0.087375 0.683908 0.244826
H15   H     H_    0.329483 0.310184 0.746187 0.103182
H16   H     H_    0.629111 0.784187 0.908480 0.189404
H17   H     H_    0.368793 0.214211 0.876490 0.119206
H18   H     H_    0.924440 0.631804 0.857477 0.027925
H19   H     H_    0.906051 0.781988 0.793095 0.276825
H20   H     H_    0.183859 0.950487 0.951715 0.113890
H21   H     H_    0.089916 0.783856 0.912882 0.150207
H22   H     H_    0.908262 0.589960 0.731214 0.049584
H23   H     H_    0.072496 0.368550 0.208909 0.173324
H24   H     H_    0.042516 0.618167 0.858256 0.071642
H25   H     H_    0.906379 0.740178 0.591598 0.172068
H26   H     H_    0.831527 0.814753 0.571798 0.068866
H27   H     H_    0.172687 0.979493 0.817288 0.036261
H28   H     H_    0.759193 0.910675 0.837885 0.079370
H29   H     H_    0.047272 0.764213 0.603917 0.130792
H30   H     H_    0.836266 0.507830 0.591146 0.034240
H31   H     H_    0.164514 0.738884 0.714502 0.088975
H32   H     H_    0.737087 0.406677 0.399210 0.045997
H33   H     H_    0.557444 0.400703 0.237577 0.231225
H34   H     H_    0.894969 0.322970 0.094337 0.079235
H35   H     H_    0.560078 0.315540 0.153576 0.189887
H36   H     H_    0.654423 0.313011 0.246399 0.220071
H37   H     H_    0.682172 0.326460 0.469948 0.032147
H38   H     H_    0.705293 0.268081 0.365821 0.074025
H39   H     H_    0.293009 0.138918 0.247335 0.125103
H40   H     H_    0.544857 0.892101 0.718609 0.176322
H41   H     H_    0.291790 0.277757 0.085500 0.104907
H42   H     H_    0.397591 0.262430 0.050344 0.087010
H43   H     H_    0.216263 0.057793 0.064638 0.133507
H44   H     H_    0.448414 0.184085 0.339423 0.207151
H45   H     H_    0.044435 0.133697 0.189379 0.052869
H46   H     H_    0.477803 0.109554 0.276637 0.271443
H47   H     H_    0.592879 0.676642 0.274725 0.217328
H48   H     H_    0.663948 0.778380 0.360913 0.198384
H49   H     H_    0.660170 0.849699 0.261232 0.210445
H50   H     H_    0.517990 0.665743 0.114471 0.067704
H51   H     H_    0.413315 0.601794 0.173542 0.119390
H52   H     H_    0.372782 0.717540 0.592134 0.198130
H53   H     H_    0.386621 0.701635 0.018845 0.089793
H54   H     H_    0.354419 0.725103 0.316475 0.160038
H55   H     H_    0.587747 0.816419 0.411228 0.204186
H56   H     H_    0.081228 0.128280 0.411458 0.121295
H57   H     H_    0.669776 0.969103 0.311574 0.085416
H58   H     H_    0.375520 0.837527 0.255205 0.080871
H59   H     H_    0.244894 0.503987 0.128051 0.125042
H60   H     H_    0.278761 0.748629 0.073815 0.143361
H61   H     H_    0.103036 0.467239 0.317563 0.084748
H62   H     H_    0.069522 0.318387 0.404659 0.212997
H63   H     H_    0.898300 0.245336 0.371879 0.077222
H64   H     H_    0.924127 0.142105 0.371024 0.066404
H65   H     H_    0.903854 0.083038 0.199216 0.194492
H66   H     H_    0.075015 0.235726 0.114958 0.109454
O1    O     O_3   0.500000 0.500000 0.500000 -0.541866
O2    O     O_R   0.266230 0.883210 0.944500 -0.635550
O3    O     O_R   0.561150 0.178510 0.117240 -0.644549
O4    O     O_R   0.733670 0.616970 0.678220 -0.616906
O5    O     O_R   0.438720 0.882700 0.821420 -0.635531
O6    O     O_R   0.438610 0.055960 0.117240 -0.579915
O7    O     O_R   0.561250 0.882700 0.943960 -0.629704
O8    O     O_R   0.733630 0.055440 0.116700 -0.612727
O9    O     O_R   0.266260 0.883000 0.821740 -0.633487
O10   O     O_R   0.561190 0.178210 0.944500 -0.657695
O11   O     O_R   0.438650 0.883210 0.116920 -0.637040
O12   O     O_R   0.438720 0.616970 0.383270 -0.590345
O13   O     O_R   0.266300 0.444520 0.383270 -0.626627
O14   O     O_R   0.561280 0.616750 0.383040 -0.636570
O15   O     O_R   0.438750 0.321760 0.555460 -0.595034
O16   O     O_R   0.561320 0.444010 0.382720 -0.605641
O17   O     O_R   0.561210 0.617270 0.678540 -0.576946
O18   O     O_R   0.438790 0.321460 0.382720 -0.618816
O19   O     O_R   0.438680 0.617270 0.556010 -0.626056
O20   O     O_2   0.838061 0.221917 0.994931 -0.567754
O21   O     O_2   0.146492 0.135064 0.303162 -0.471408
O22   O     O_2   0.169037 0.259818 0.470394 -0.556236
O23   O     O_R   0.561250 0.444520 0.678220 -0.625086
O24   O     O_2   0.827059 0.021435 0.279537 -0.534358
O25   O     O_2   0.200081 0.358399 0.195006 -0.551298
O26   O     O_2   0.638845 0.236392 0.688818 -0.501445
O27   O     O_2   0.547355 0.481936 0.826746 -0.524125
O28   O     O_2   0.263536 0.139749 0.494043 -0.502720
O29   O     O_2   0.343516 0.341500 0.648433 -0.539003
O30   O     O_2   0.284112 0.145465 0.747170 -0.537383
O31   O     O_2   0.855708 0.682100 0.871068 -0.490733
O32   O     O_2   0.045419 0.924600 0.895558 -0.499168
O33   O     O_2   0.187605 0.696821 0.898680 -0.592748
O34   O     O_R   0.733700 0.616750 0.555460 -0.643798
O35   O     O_2   0.900447 0.873048 0.700631 -0.477396
O36   O     O_2   0.077244 0.974272 0.697348 -0.482073
O37   O     O_2   0.720755 0.813497 0.746528 -0.512826
O38   O     O_2   0.159251 0.892735 0.653826 -0.511981
O39   O     O_2   0.903231 0.609870 0.555205 -0.544591
O40   O     O_2   0.083900 0.609593 0.693170 -0.538017
O41   O     O_2   0.728803 0.507858 0.370915 -0.478446
O42   O     O_2   0.580858 0.251204 0.496309 -0.527773
O43   O     O_2   0.647912 0.139750 0.348885 -0.490831
O44   O     O_2   0.232596 0.205482 0.197943 -0.552591
O45   O     O_R   0.266330 0.321760 0.383040 -0.566354
O46   O     O_2   0.402779 0.385994 0.193434 -0.572819
O47   O     O_2   0.299618 0.133089 0.981392 -0.602490
O48   O     O_2   0.307778 0.029329 0.154447 -0.560841
O49   O     O_2   0.637325 0.778296 0.131375 -0.502801
O50   O     O_2   0.283221 0.581864 0.008637 -0.533696
O51   O     O_2   0.466919 0.789384 0.445649 -0.534113
O52   O     O_2   0.676888 0.972291 0.423594 -0.494352
O53   O     O_2   0.483085 0.960256 0.279220 -0.489731
O54   O     O_2   0.269016 0.568137 0.234305 -0.536781
O55   O     O_2   0.244308 0.680852 0.148260 -0.569282
O56   O     O_3   0.499930 0.999970 0.999970 -0.516114
O57   O     O_2   0.153046 0.480013 0.444866 -0.533521
O58   O     O_2   0.823036 0.291923 0.292448 -0.562689
O59   O     O_R   0.438680 0.055440 0.821740 -0.618955
O60   O     O_R   0.561210 0.883000 0.116700 -0.587252
O61   O     O_R   0.733610 0.178210 0.116920 -0.622645
Zn1   Zn    Zn3+2 0.412450 0.543930 0.456390 1.101923
Zn2   Zn    Zn3+2 0.587550 0.543620 0.456070 1.035398
Zn3   Zn    Zn3+2 0.412480 0.368530 0.456070 1.128379
Zn4   Zn    Zn3+2 0.587520 0.543930 0.631470 1.074690
Zn5   Zn    Zn3+2 0.587490 0.956040 0.043570 1.056783
Zn6   Zn    Zn3+2 0.587450 0.131440 0.043900 1.015914
Zn7   Zn    Zn3+2 0.412380 0.956350 0.043900 1.052472
Zn8   Zn    Zn3+2 0.412420 0.956040 0.868500 1.027650

loop_
_geom_bond_atom_site_label_1
_geom_bond_atom_site_label_2
_ccdc_geom_bond_type
C16   O12   A    
C64   H8    S    
C49   O8    A    
C21   C26   S    
C82   H39   S    
C8    C13   S    
C80   H37   S    
C49   O61   A    
C27   C29   S    
C95   H63   S    
C41   C42   S    
C6    C58   S    
C51   O6    A    
C2    C7    S    
O23   Zn4   S    
C43   C44   S    
C18   H19   S    
O7    Zn5   S    
C35   C81   S    
C23   C56   S    
C29   H36   S    
O15   Zn3   S    
C12   C23   S    
C69   H18   S    
C37   C38   S    
C31   C82   S    
C30   C35   S    
C38   C86   S    
C58   O20   D    
C25   C77   S    
C59   H45   S    
C1    O34   A    
C24   C26   S    
C91   H58   S    
C21   H25   S    
C27   C79   S    
C10   C15   S    
C61   H64   S    
O34   Zn2   S    
C72   H26   S    
C2    C60   S    
C80   O42   D    
C20   C25   S    
C58   H34   S    
C62   C89   S    
C29   C33   S    
C94   O57   D    
C33   C36   S    
C31   C83   S    
C20   C76   S    
C92   O54   D    
C18   C19   S    
C68   H17   S    
C37   C42   S    
C8    H3    S    
C7    C61   S    
C83   O46   D    
C44   C93   S    
C4    O13   A    
O56   Zn7   S    
C48   O11   A    
C85   O48   D    
C67   H62   S    
C65   O28   D    
C74   O37   D    
C45   C56   S    
C8    C9    S    
C73   O36   D    
C34   C57   S    
C95   O58   D    
C41   C46   S    
O8    Zn5   S    
C13   C28   S    
C25   C71   S    
O61   Zn6   S    
C15   H9    S    
C39   C42   S    
C44   C87   S    
C43   C48   S    
C94   H61   S    
C62   O25   D    
C30   C80   S    
O1    Zn1   S    
C79   O41   D    
C18   C69   S    
C32   C40   S    
C74   H28   S    
C50   O2    A    
C1    C22   S    
O5    Zn8   S    
C18   C22   S    
C21   C22   S    
C93   O55   D    
C76   H30   S    
C14   C17   S    
C5    C49   S    
C67   C78   S    
C87   O50   D    
O9    Zn8   S    
C11   H11   S    
C69   O31   D    
C65   H10   S    
C20   H22   S    
O1    Zn4   S    
O6    Zn7   S    
C81   O43   D    
C10   C66   S    
C24   C50   S    
C54   C56   S    
C37   H47   S    
C21   C72   S    
C75   H29   S    
C6    H2    S    
C93   H60   S    
C24   C25   S    
C50   O9    A    
C87   H53   S    
C17   H13   S    
C5    C7    S    
C53   C57   S    
C2    C59   S    
C28   O15   A    
C71   O33   D    
C7    H65   S    
C8    C63   S    
C68   O30   D    
C88   O51   D    
C34   H40   S    
C26   C73   S    
C88   H54   S    
C17   H14   S    
C78   H12   S    
C60   H56   S    
O18   Zn3   S    
C59   O21   D    
C9    C14   S    
C52   O19   A    
C63   H5    S    
O56   Zn8   S    
C67   C94   S    
C40   O18   A    
C27   H33   S    
C84   O47   D    
C53   O7    A    
C29   H35   S    
C14   C15   S    
C1    O4    A    
C78   C95   S    
O14   Zn2   S    
C23   C34   S    
O45   Zn3   S    
C61   O24   D    
C26   C75   S    
C51   O3    A    
O3    Zn6   S    
C34   C45   S    
C66   H15   S    
C4    O45   A    
C83   H41   S    
C64   O27   D    
O56   Zn5   S    
C46   C90   S    
C12   C57   S    
C16   O14   A    
C90   H57   S    
O1    Zn2   S    
C84   H42   S    
C63   O26   D    
C55   C57   S    
C76   O39   D    
C70   H20   S    
C39   C44   S    
C54   H4    S    
C33   C51   S    
C23   C74   S    
C3    C4    S    
O12   Zn1   S    
C86   H50   S    
C16   C42   S    
C39   C92   S    
O1    Zn3   S    
C41   C88   S    
C79   H32   S    
C54   C55   S    
C11   C17   S    
C9    H7    S    
C30   H44   S    
C37   H48   S    
C27   C32   S    
C45   H52   S    
C38   H49   S    
C31   C32   S    
C10   C64   S    
O13   Zn1   S    
C86   O49   D    
C20   C22   S    
C55   H1    S    
O2    Zn7   S    
C10   C13   S    
C77   O40   D    
C72   O35   D    
C47   O10   A    
O11   Zn7   S    
C81   H38   S    
C14   C47   S    
C41   H55   S    
C75   O38   D    
C36   C85   S    
C91   O53   D    
C6    C89   S    
C47   O59   A    
O60   Zn5   S    
C71   H24   S    
C3    C89   S    
C36   C84   S    
C2    C3    S    
C28   O23   A    
C38   C43   S    
C30   C32   S    
C11   C13   S    
C5    C6    S    
C3    C67   S    
C19   H21   S    
C60   O22   D    
C70   O32   D    
C15   C68   S    
C66   O29   D    
C39   H51   S    
O4    Zn4   S    
C33   C35   S    
C19   C24   S    
C12   H16   S    
O16   Zn2   S    
C43   C46   S    
C52   O17   A    
C89   H23   S    
O17   Zn4   S    
O19   Zn1   S    
O56   Zn6   S    
C40   O16   A    
C62   H66   S    
C52   C56   S    
C53   O5    A    
C35   H46   S    
O10   Zn6   S    
C45   C55   S    
C9    H6    S    
C73   H27   S    
C48   O60   A    
O59   Zn8   S    
C31   C36   S    
C19   C70   S    
C92   H59   S    
C82   O44   D    
C5    C78   S    
C85   H43   S    
C46   C91   S    
C90   O52   D    
C12   C54   S    
C77   H31   S    
C11   C65   S    
