data_mof_unit_10266.cif
_audit_creation_date              2012-12-10T19:34:58-0500
_audit_creation_method            fapswitch 2.2
_symmetry_space_group_name_H-M    P1
_symmetry_Int_Tables_number       1
_space_group_crystal_system       triclinic
_cell_length_a                    10.658054
_cell_length_b                    15.776923
_cell_length_c                    17.259458
_cell_angle_alpha                 96.05006
_cell_angle_beta                  88.88146
_cell_angle_gamma                 94.121463
_cell_volume                      2878.36326611

loop_
_atom_site_label
_atom_site_type_symbol
_atom_type_description
_atom_site_fract_x
_atom_site_fract_y
_atom_site_fract_z
_atom_type_partial_charge
C1    C     C_R   0.494250 0.490068 0.348359 0.826601
C2    C     C_R   0.505780 0.509931 0.651636 0.826651
C3    C     C_R   0.482175 0.485980 0.261939 -0.112786
C4    C     C_R   0.518004 0.514012 0.738045 -0.112689
C5    C     C_R   0.521474 0.558097 0.221962 0.083057
C6    C     C_R   0.478607 0.441934 0.778042 0.083001
C7    C     C_R   0.517403 0.551388 0.141166 -0.206612
C8    C     C_R   0.482903 0.448613 0.858828 -0.206566
C9    C     C_R   0.475838 0.475123 0.097332 0.291868
C10   C     C_R   0.524792 0.524817 0.902641 0.291863
C11   C     C_R   0.430380 0.404339 0.135480 0.159094
C12   C     C_R   0.570367 0.595556 0.864464 0.159078
C13   C     C_R   0.427892 0.410719 0.218153 0.115518
C14   C     C_R   0.572594 0.589200 0.781789 0.115489
C15   C     C_R   0.429140 0.748306 0.468805 0.014802
C16   C     C_R   0.570856 0.251694 0.531197 0.014780
C17   C     C_R   0.424335 0.837432 0.472784 0.056429
C18   C     C_R   0.575671 0.162569 0.527211 0.056426
C19   C     C_R   0.513977 0.890971 0.518718 0.313265
C20   C     C_R   0.486035 0.109030 0.481271 0.313258
C21   C     C_R   0.602286 0.851692 0.561314 -0.061135
C22   C     C_R   0.397730 0.148308 0.438672 -0.061132
C23   C     C_R   0.261305 0.499491 0.510820 0.829310
C24   C     C_R   0.738687 0.500509 0.489163 0.829292
C25   C     C_R   0.600571 0.761382 0.554947 -0.016553
C26   C     C_R   0.399441 0.238619 0.445043 -0.016549
C27   C     C_R   0.080028 0.340098 0.527422 0.175373
C28   C     C_R   0.919943 0.659898 0.472519 0.175404
C29   C     C_R   0.017690 0.265151 0.492512 -0.239220
C30   C     C_R   0.982279 0.734846 0.507427 -0.239214
C31   C     C_R   0.923970 0.268234 0.437512 0.181492
C32   C     C_R   0.075997 0.731767 0.562430 0.181467
C33   C     C_R   0.881636 0.348178 0.423870 0.194173
C34   C     C_R   0.118331 0.651824 0.576076 0.194170
C35   C     C_R   0.934606 0.423811 0.467309 -0.013910
C36   C     C_R   0.065375 0.576189 0.532633 -0.013931
C37   C     C_R   0.048424 0.420448 0.506468 0.028833
C38   C     C_R   0.951559 0.579550 0.493472 0.028835
C39   C     C_R   0.876898 0.502242 0.474515 -0.187985
C40   C     C_R   0.123084 0.497757 0.525436 -0.188003
Cu1   Cu    Cu3+1 0.493970 0.415220 0.496180 0.912337
Cu2   Cu    Cu3+1 0.506030 0.584780 0.503820 0.912329
H1    H     H_    0.666761 0.729339 0.585919 0.151851
H2    H     H_    0.333261 0.270662 0.414064 0.151842
H3    H     H_    0.043531 0.203918 0.507987 0.156999
H4    H     H_    0.956429 0.796078 0.491955 0.157001
H5    H     H_    0.452611 0.393054 0.888030 0.170635
H6    H     H_    0.547582 0.606976 0.111973 0.170608
H7    H     H_    0.638279 0.292962 0.566106 0.155380
H8    H     H_    0.361709 0.707038 0.433903 0.155357
N1    N     N_2   0.474055 0.468723 0.014602 -0.245872
N2    N     N_2   0.526650 0.531216 0.985373 -0.245868
N3    N     N_R   0.515100 0.712130 0.509560 -0.206319
N4    N     N_R   0.484900 0.287870 0.490440 -0.206330
N5    N     N_2   0.511682 0.982662 0.529756 -0.236868
N6    N     N_2   0.488331 0.017339 0.470232 -0.236870
O1    O     O_R   0.494360 0.420530 0.382500 -0.582726
O2    O     O_R   0.505640 0.579470 0.617500 -0.582720
O3    O     O_R   0.504550 0.563720 0.388950 -0.582943
O4    O     O_R   0.495450 0.436280 0.611050 -0.582940
O5    O     O_R   0.314560 0.428400 0.496770 -0.573533
O6    O     O_R   0.685440 0.571600 0.503230 -0.573556
O7    O     O_R   0.324750 0.571590 0.503220 -0.574881
O8    O     O_R   0.675250 0.428410 0.496780 -0.574885
C41   C     C_3   0.131949 0.814153 0.604282 -0.877785
H9    H     H_    0.092724 0.870791 0.583205 0.227610
H10   H     H_    0.111366 0.815742 0.667653 0.236337
H11   H     H_    0.235302 0.819631 0.594777 0.248121
C42   C     C_3   0.868006 0.185849 0.395663 -0.877769
H12   H     H_    0.907237 0.129209 0.416734 0.227611
H13   H     H_    0.764655 0.180371 0.405179 0.248111
H14   H     H_    0.888572 0.184261 0.332290 0.236327
C43   C     C_3   0.681240 0.127922 0.568209 -0.861141
H15   H     H_    0.643300 0.095916 0.618699 0.243593
H16   H     H_    0.731107 0.082650 0.527001 0.244495
H17   H     H_    0.751826 0.179433 0.590746 0.221695
C44   C     C_3   0.318769 0.872079 0.431784 -0.861166
H18   H     H_    0.356710 0.904085 0.381294 0.243601
H19   H     H_    0.248181 0.820569 0.409246 0.221695
H20   H     H_    0.268901 0.917352 0.472991 0.244497
C45   C     C_3   0.696662 0.908427 0.611969 -0.391964
C46   C     C_3   0.781153 0.862552 0.662591 -0.386913
C47   C     C_3   0.870544 0.926296 0.710826 -0.839719
H21   H     H_    0.932900 0.963000 0.672044 0.252984
H22   H     H_    0.816558 0.971343 0.749920 0.254006
H23   H     H_    0.929848 0.891434 0.747133 0.242702
H24   H     H_    0.721700 0.826307 0.702960 0.224821
H25   H     H_    0.838242 0.817936 0.625389 0.233778
H26   H     H_    0.757596 0.946177 0.573275 0.208712
H27   H     H_    0.643366 0.953258 0.651777 0.213956
C48   C     C_3   0.303365 0.091575 0.388009 -0.391969
C49   C     C_3   0.218861 0.137452 0.337398 -0.386906
C50   C     C_3   0.129480 0.073711 0.289154 -0.839714
H28   H     H_    0.183474 0.028678 0.250051 0.254003
H29   H     H_    0.067134 0.036992 0.327929 0.252979
H30   H     H_    0.070164 0.108576 0.252856 0.242711
H31   H     H_    0.161765 0.182055 0.374609 0.233764
H32   H     H_    0.278304 0.173714 0.297036 0.224829
H33   H     H_    0.356670 0.046755 0.348195 0.213948
H34   H     H_    0.242438 0.053811 0.426696 0.208720
C51   C     C_3   0.163438 0.332016 0.595201 -0.824569
H35   H     H_    0.247862 0.298422 0.575016 0.249357
H36   H     H_    0.192108 0.395284 0.626375 0.216573
H37   H     H_    0.111304 0.294394 0.637926 0.215314
C52   C     C_3   0.836494 0.667981 0.404757 -0.824593
H38   H     H_    0.807765 0.604716 0.373594 0.216621
H39   H     H_    0.752100 0.701598 0.424962 0.249301
H40   H     H_    0.888615 0.705586 0.362015 0.215306
C53   C     C_3   0.790772 0.352324 0.358061 -0.797033
H41   H     H_    0.829849 0.321476 0.302938 0.214917
H42   H     H_    0.698983 0.318483 0.370810 0.255397
H43   H     H_    0.775019 0.418776 0.347301 0.204073
C54   C     C_3   0.209168 0.647681 0.641900 -0.797017
H44   H     H_    0.170069 0.678530 0.697016 0.214909
H45   H     H_    0.224915 0.581229 0.652665 0.204070
H46   H     H_    0.300963 0.681523 0.629165 0.255406
C55   C     C_3   0.432684 0.355883 0.737733 -0.802821
H47   H     H_    0.350017 0.362910 0.702206 0.239377
H48   H     H_    0.509134 0.327721 0.701212 0.244528
H49   H     H_    0.402600 0.309078 0.779398 0.210899
C56   C     C_3   0.567008 0.644224 0.262303 -0.802671
H50   H     H_    0.649677 0.637370 0.297894 0.239443
H51   H     H_    0.596970 0.691080 0.220661 0.210854
H52   H     H_    0.490376 0.672238 0.298766 0.244437
C57   C     C_3   0.385950 0.321622 0.087810 -0.849536
H53   H     H_    0.410469 0.320497 0.025028 0.238194
H54   H     H_    0.430866 0.267193 0.109069 0.232989
H55   H     H_    0.282066 0.311392 0.092538 0.229313
C58   C     C_3   0.615179 0.678201 0.912104 -0.849523
H56   H     H_    0.590947 0.679307 0.974926 0.238217
H57   H     H_    0.719057 0.688302 0.907198 0.229310
H58   H     H_    0.570312 0.732711 0.890955 0.232991
C59   C     C_3   0.362774 0.339063 0.259292 -0.845530
H59   H     H_    0.298023 0.295798 0.221559 0.225769
H60   H     H_    0.434128 0.300118 0.281551 0.241102
H61   H     H_    0.302291 0.365720 0.307664 0.230747
C60   C     C_3   0.637734 0.660802 0.740590 -0.845586
H62   H     H_    0.702643 0.704019 0.778257 0.225789
H63   H     H_    0.698038 0.634085 0.692153 0.230787
H64   H     H_    0.566390 0.699812 0.718410 0.241059

loop_
_geom_bond_atom_site_label_1
_geom_bond_atom_site_label_2
_ccdc_geom_bond_type
N5    N6    D    
C50   H28   S    
C27   C29   A    
Cu1   Cu2   S    
C2    C4    S    
C9    N1    S    
Cu1   O5    S    
C20   N6    S    
C10   N2    S    
C25   H1    S    
C45   C46   S    
C26   H2    S    
C44   H18   S    
C34   C54   S    
C58   H57   S    
C52   H39   S    
C51   H35   S    
C15   N3    A    
C11   C57   S    
C25   N3    A    
C54   H44   S    
C37   C40   A    
C1    O3    A    
Cu2   N3    S    
C38   C39   A    
C2    O4    A    
C46   H24   S    
C5    C56   S    
C24   C39   S    
C15   C17   A    
C43   H15   S    
C15   H8    S    
C42   H13   S    
C50   H29   S    
C56   H52   S    
C53   H42   S    
C17   C19   A    
C23   O5    A    
C41   H10   S    
C57   H55   S    
C22   C48   S    
C31   C33   A    
C48   H34   S    
Cu2   O6    S    
C6    C55   S    
C18   C20   A    
C3    C13   A    
C54   H46   S    
C45   H26   S    
C23   O7    A    
C51   H36   S    
C43   H16   S    
Cu2   O2    S    
C26   N4    A    
C52   H40   S    
C49   H31   S    
C44   H19   S    
C60   H64   S    
C12   C58   S    
C49   H32   S    
N1    N2    D    
C36   C40   A    
C16   H7    S    
C4    C6    A    
C53   H43   S    
C48   C49   S    
C5    C7    A    
C6    C8    A    
C27   C51   S    
C29   H3    S    
C1    C3    S    
C32   C34   A    
C42   H14   S    
C35   C39   A    
C1    O1    A    
C59   H61   S    
C60   H63   S    
C47   H21   S    
C14   C60   S    
C28   C38   A    
C28   C52   S    
C41   H11   S    
C17   C44   S    
C9    C11   A    
C56   H50   S    
C10   C12   A    
C45   H27   S    
C8    C10   A    
C47   H22   S    
C21   C45   S    
C41   H9    S    
C18   C43   S    
C57   H53   S    
C43   H17   S    
C55   H49   S    
C33   C53   S    
C20   C22   A    
C36   C38   A    
C35   C37   A    
C57   H54   S    
C58   H56   S    
C52   H38   S    
C44   H20   S    
C19   N5    S    
C7    C9    A    
C21   C25   A    
C24   O6    A    
C19   C21   A    
C13   C59   S    
C30   H4    S    
Cu1   O4    S    
C12   C14   A    
C3    C5    A    
Cu2   O3    S    
C2    O2    A    
C50   H30   S    
C60   H62   S    
C7    H6    S    
C58   H58   S    
C55   H48   S    
C8    H5    S    
Cu1   O1    S    
C29   C31   A    
C53   H41   S    
C30   C32   A    
C11   C13   A    
C59   H59   S    
C27   C37   A    
C46   H25   S    
C28   C30   A    
C49   C50   S    
C33   C35   A    
C24   O8    A    
C34   C36   A    
C4    C14   A    
C42   H12   S    
C16   N4    A    
Cu1   N4    S    
C56   H51   S    
C31   C42   S    
C47   H23   S    
C16   C18   A    
C46   C47   S    
C22   C26   A    
C59   H60   S    
C51   H37   S    
Cu1   O8    S    
C48   H33   S    
C55   H47   S    
Cu2   O7    S    
C23   C40   S    
C32   C41   S    
C54   H45   S    
