data_mof_unit_54141.cif
_audit_creation_date              2013-03-05T15:46:22-0500
_audit_creation_method            fapswitch 2.2
_symmetry_space_group_name_H-M    P1
_symmetry_Int_Tables_number       1
_space_group_crystal_system       triclinic
_cell_length_a                    11.232162
_cell_length_b                    11.256476
_cell_length_c                    18.748084
_cell_angle_alpha                 90.290195
_cell_angle_beta                  90.273212
_cell_angle_gamma                 59.792804
_cell_volume                      2048.49918868

loop_
_atom_site_label
_atom_site_type_symbol
_atom_site_description
_atom_site_fract_x
_atom_site_fract_y
_atom_site_fract_z
_atom_type_partial_charge
O1    O     O_R   0.748800 0.497470 0.428000 -0.422772
O2    O     O_R   0.476420 0.724060 0.429470 -0.396087
C1    C     C_R   0.385255 0.715927 0.389511 0.540906
O3    O     O_R   0.264580 0.744340 0.416750 -0.500740
O4    O     O_R   0.309380 0.472470 0.418200 -0.561314
C2    C     C_R   0.387421 0.360099 0.386204 0.536210
O5    O     O_R   0.501710 0.260430 0.414300 -0.432845
O6    O     O_R   0.728090 0.305600 0.428960 -0.473072
C3    C     C_R   0.780447 0.375852 0.404855 0.572301
O7    O     O_R   0.738760 0.495930 0.588610 -0.497971
O8    O     O_R   0.467110 0.722640 0.578360 -0.495156
C4    C     C_R   0.344991 0.767550 0.604277 0.588313
O9    O     O_R   0.254530 0.742800 0.577360 -0.513531
O10   O     O_R   0.300070 0.471040 0.567100 -0.522774
C5    C     C_R   0.369146 0.350411 0.594654 0.566441
O11   O     O_R   0.491670 0.258900 0.574910 -0.470095
O12   O     O_R   0.718780 0.304180 0.577850 -0.466424
C6    C     C_R   0.707536 0.407090 0.616490 0.527745
Cr1   Cr    Cr6+3 0.601770 0.606860 0.505860 1.152271
Cr2   Cr    Cr6+3 0.291380 0.601660 0.495070 1.016330
Cr3   Cr    Cr6+3 0.606880 0.291510 0.499120 1.166588
O13   O     O_3   0.500010 0.500010 0.500020 -0.366417
C7    C     C_R   0.730208 0.896548 0.065662 0.240267
C8    C     C_R   0.753984 0.007267 0.071420 -0.086057
C9    C     C_R   0.680766 0.111369 0.121042 -0.152320
C10   C     C_R   0.588760 0.103392 0.168581 0.081010
C11   C     C_R   0.382625 0.338187 0.158230 -0.034960
C12   C     C_R   0.454162 0.235648 0.274567 0.296258
C13   C     C_R   0.480306 0.231904 0.201576 0.054053
C14   C     C_R   0.076703 0.669472 0.350889 -0.099769
C15   C     C_R   0.937862 0.769159 0.362222 0.290684
C16   C     C_R   0.567005 0.991063 0.164756 0.253769
C17   C     C_R   0.637279 0.889177 0.112376 -0.011629
C18   C     C_R   0.311038 0.467840 0.191167 -0.141499
C19   C     C_R   0.275376 0.479760 0.265643 -0.020439
C20   C     C_R   0.849183 0.812785 0.305019 0.076402
C21   C     C_R   0.898156 0.759823 0.238094 -0.037342
C22   C     C_R   0.027639 0.644741 0.229396 0.218689
C23   C     C_R   0.128412 0.599546 0.284246 0.007374
C24   C     C_R   0.359030 0.358337 0.308686 0.010632
H1    H     H_    0.618801 0.804761 0.106294 0.153977
H2    H     H_    0.822401 0.017461 0.034682 0.126077
H3    H     H_    0.684853 0.205153 0.117487 0.094037
H4    H     H_    0.131433 0.654717 0.397292 0.195922
H5    H     H_    0.257622 0.555333 0.156265 0.186398
H6    H     H_    0.740891 0.883853 0.312720 0.268863
H7    H     H_    0.830196 0.796159 0.194028 0.177045
C25   C     C_R   0.842224 0.229467 0.295874 0.190225
C26   C     C_R   0.854749 0.227621 0.221547 -0.106699
H8    H     H_    0.859774 0.144320 0.191186 0.208547
C27   C     C_R   0.867609 0.329657 0.187167 -0.073719
C28   C     C_R   0.873520 0.427520 0.228888 -0.056189
H9    H     H_    0.873693 0.510041 0.202664 0.227387
C29   C     C_R   0.887517 0.414426 0.302857 0.280053
C30   C     C_R   0.850875 0.329725 0.336365 0.081466
C31   C     C_R   0.496275 0.698954 0.268291 0.148447
C32   C     C_R   0.468957 0.716970 0.193838 -0.173022
H10   H     H_    0.551947 0.671397 0.155616 0.138883
C33   C     C_R   0.339692 0.815398 0.170410 -0.012979
C34   C     C_R   0.230421 0.862110 0.219811 0.226584
C35   C     C_R   0.257777 0.866057 0.291108 0.233536
C36   C     C_R   0.382392 0.761978 0.316384 -0.006879
C37   C     C_R   0.382618 0.196937 0.692158 0.190818
C38   C     C_R   0.373549 0.185732 0.765024 -0.110991
H11   H     H_    0.426345 0.083917 0.788157 0.189676
C39   C     C_R   0.297114 0.303036 0.807734 -0.008852
C40   C     C_R   0.219697 0.431858 0.776362 -0.150361
H12   H     H_    0.156240 0.522377 0.808381 0.141876
C41   C     C_R   0.230666 0.444845 0.703445 -0.164670
H13   H     H_    0.179038 0.547350 0.681029 0.154869
C42   C     C_R   0.318509 0.328662 0.661760 0.020446
C43   C     C_R   0.723092 0.487677 0.735987 -0.167640
H14   H     H_    0.697595 0.585159 0.712771 0.139868
C44   C     C_R   0.752795 0.469189 0.807965 -0.125763
H15   H     H_    0.748358 0.553995 0.837690 0.190186
C45   C     C_R   0.802934 0.339519 0.839190 -0.021864
C46   C     C_R   0.805670 0.233234 0.798985 -0.073451
H16   H     H_    0.842994 0.132660 0.822307 0.153350
C47   C     C_R   0.766518 0.253700 0.727182 0.223204
C48   C     C_R   0.733425 0.380409 0.693732 0.015691
C49   C     C_R   0.201156 0.840026 0.712172 -0.137194
H17   H     H_    0.115720 0.843352 0.683334 0.181099
C50   C     C_R   0.192847 0.851726 0.785467 -0.182605
H18   H     H_    0.097975 0.871432 0.810654 0.153226
C51   C     C_R   0.302392 0.844771 0.825090 0.064579
C52   C     C_R   0.423171 0.822550 0.790239 0.209813
C53   C     C_R   0.428858 0.813421 0.716107 -0.117744
H19   H     H_    0.520869 0.796220 0.689068 0.173805
C54   C     C_R   0.320298 0.818470 0.677121 0.010687
O14   O     O_R   0.186690 0.923650 0.086970 -0.446981
O15   O     O_R   0.957250 0.194250 0.084630 -0.504036
C55   C     C_R   0.913218 0.314131 0.112615 0.565471
O16   O     O_R   0.934970 0.407490 0.085330 -0.425711
O17   O     O_R   0.203780 0.365190 0.067090 -0.387586
C56   C     C_R   0.333352 0.297766 0.090310 0.599639
O18   O     O_R   0.417600 0.174890 0.067840 -0.531989
O19   O     O_R   0.375320 0.946260 0.070860 -0.489255
C57   C     C_R   0.309514 0.887282 0.100656 0.574315
O20   O     O_R   0.160600 0.919630 0.926660 -0.548567
O21   O     O_R   0.933060 0.190520 0.936020 -0.529520
C58   C     C_R   0.879660 0.311247 0.906399 0.528246
O22   O     O_R   0.908880 0.403460 0.925020 -0.505612
O23   O     O_R   0.179600 0.361450 0.918490 -0.507484
C59   C     C_R   0.291493 0.282462 0.883613 0.530926
O24   O     O_R   0.391510 0.170860 0.907530 -0.518744
O25   O     O_R   0.351130 0.942530 0.922260 -0.445979
C60   C     C_R   0.275213 0.895284 0.898181 0.561441
Cr4   Cr    Cr6+3 0.062440 0.063090 0.008210 1.053711
Cr5   Cr    Cr6+3 0.062880 0.375170 0.998920 1.151180
Cr6   Cr    Cr6+3 0.374700 0.061720 0.992470 1.088802
O26   O     O_3   0.166667 0.166667 0.999870 -0.285490
O27   O     O_3   0.520507 0.114841 0.312390 -0.585813
H20   H     H_    0.454564 0.114622 0.347501 0.384790
N1    N     N_R   0.044883 0.557956 0.170587 0.033582
O28   O     O_R   0.097311 0.427180 0.182945 -0.335475
O29   O     O_R   0.992714 0.609201 0.108475 -0.287705
N2    N     N_R   0.823735 0.127583 0.329459 0.132051
O30   O     O_R   0.750332 0.085819 0.296962 -0.335249
O31   O     O_R   0.899309 0.059235 0.383847 -0.220666
O32   O     O_3   0.928618 0.487880 0.344181 -0.623444
H21   H     H_    0.919832 0.561910 0.314513 0.338797
N3    N     N_R   0.626792 0.683756 0.288694 0.071917
O33   O     O_R   0.693292 0.703420 0.238549 -0.473150
O34   O     O_R   0.648097 0.715355 0.352137 -0.252956
N4    N     N_R   0.097819 0.881827 0.201048 0.060009
O35   O     O_R   0.003040 0.931622 0.248946 -0.339489
O36   O     O_R   0.084085 0.813062 0.148762 -0.357013
N5    N     N_R   0.183060 0.994726 0.329133 0.142411
O37   O     O_R   0.192060 0.001282 0.398108 -0.241656
O38   O     O_R   0.137275 0.108058 0.293265 -0.285162
N6    N     N_R   0.463275 0.074918 0.650546 0.077061
O39   O     O_R   0.584516 0.981303 0.672729 -0.355691
O40   O     O_R   0.416380 0.057492 0.590157 -0.282661
O41   O     O_3   0.769205 0.145780 0.691231 -0.649735
H22   H     H_    0.678200 0.182948 0.667980 0.364502
O42   O     O_3   0.885785 0.824291 0.428596 -0.600768
H23   H     H_    0.960091 0.781915 0.464805 0.328472
O43   O     O_3   0.533142 0.811656 0.829164 -0.685723
H24   H     H_    0.606089 0.802381 0.796146 0.328427
O44   O     O_3   0.791902 0.797033 0.013605 -0.654222
H25   H     H_    0.853929 0.817027 0.985118 0.325915
N7    N     N_R   0.450032 0.000306 0.200819 0.075061
O45   O     O_R   0.467369 0.947599 0.263550 -0.284304
O46   O     O_R   0.326224 0.097499 0.184382 -0.291938

loop_
_geom_bond_atom_site_label_1
_geom_bond_atom_site_label_2
_geom_bond_distance
_ccdc_geom_bond_type
C25   C30   1.400125 A    
C53   H19   1.079442 S    
C10   C16   1.404788 A    
C58   O22   1.282603 A    
C29   O32   1.367922 S    
C11   C13   1.405701 A    
C8    H2    1.082909 S    
C11   C56   1.541304 S    
C56   O18   1.291078 A    
O24   Cr6   2.082541 S    
N5    O37   1.301237 A    
C9    H3    1.081904 S    
O19   C57   1.341861 A    
O4    Cr2   1.979469 S    
C51   C52   1.412524 A    
C28   H9    1.054050 S    
O20   Cr4   2.088156 S    
O8    Cr1   1.962616 S    
O11   Cr3   2.080659 S    
C44   C45   1.403114 A    
O4    C2    1.268785 A    
C12   C13   1.396927 A    
C2    C24   1.488574 S    
N2    O31   1.301816 A    
C14   C15   1.405764 A    
C22   N1    1.417113 S    
C32   C33   1.381552 A    
O25   C60   1.289949 A    
C12   C24   1.403881 A    
C5    O11   1.290958 A    
C31   C32   1.421214 A    
C18   C19   1.441306 A    
C41   C42   1.411794 A    
Cr6   O26   2.024494 S    
O27   H20   0.994199 S    
O6    C3    1.284347 A    
C26   C27   1.389549 A    
C7    C8    1.403403 A    
C20   H6    1.077812 S    
C3    C30   1.460744 S    
C37   N6    1.435141 S    
C21   H7    1.056301 S    
C15   C20   1.373449 A    
C16   N7    1.436802 S    
C46   H16   1.083651 S    
C49   C54   1.400562 A    
C39   C40   1.392740 A    
C33   C34   1.413216 A    
Cr3   O13   2.028397 S    
C14   H4    1.027595 S    
C41   H13   1.083296 S    
C59   O24   1.273600 A    
C49   C50   1.378889 A    
C28   C29   1.395083 A    
C49   H17   1.083374 S    
C45   C46   1.398054 A    
C46   C47   1.397919 A    
C11   C18   1.404482 A    
O21   Cr4   1.975979 S    
O1    Cr1   2.081558 S    
C44   H15   1.082293 S    
C40   H12   1.083369 S    
C39   C59   1.449233 S    
C4    C54   1.451288 S    
Cr1   O13   2.036130 S    
O1    C3    1.301755 A    
C8    C9    1.393383 A    
C43   C44   1.379965 A    
O15   C55   1.290192 A    
C52   C53   1.392505 A    
C43   H14   1.078412 S    
C7    C17   1.400001 A    
C9    C10   1.404766 A    
O5    Cr3   2.106872 S    
O18   Cr6   2.108232 S    
O12   Cr3   1.984774 S    
C27   C28   1.376262 A    
N5    O38   1.299754 A    
C34   C35   1.375619 A    
C40   C41   1.388224 A    
C31   N3    1.437939 S    
C19   C23   1.557448 S    
C21   C22   1.387163 A    
O10   Cr2   1.967094 S    
C27   C55   1.469982 S    
C7    O44   1.379058 S    
C50   H18   1.083340 S    
O7    Cr1   2.096934 S    
O12   C6    1.314458 A    
O17   C56   1.330216 A    
C18   H5    1.079960 S    
O44   H25   0.991879 S    
C2    O5    1.316961 A    
C6    C48   1.477970 S    
C25   C26   1.400226 A    
C50   C51   1.402446 A    
C37   C42   1.404329 A    
C53   C54   1.395166 A    
N4    O35   1.287428 A    
C31   C36   1.429627 A    
C47   C48   1.427978 A    
N3    O34   1.295065 A    
C1    O3    1.330050 A    
O20   C60   1.291322 A    
O32   H21   0.966942 S    
O25   Cr6   1.984689 S    
C1    C36   1.462659 S    
C45   C58   1.466082 S    
C47   O41   1.373303 S    
C29   C30   1.369834 A    
C34   N4    1.433355 S    
O17   Cr5   1.988461 S    
O9    Cr2   2.096459 S    
O2    Cr1   1.976034 S    
N7    O45   1.289073 A    
O15   Cr4   1.966685 S    
Cr2   O13   2.027342 S    
C15   O42   1.381888 S    
N6    O40   1.301462 A    
O6    Cr3   1.960960 S    
N1    O29   1.300867 A    
O8    C4    1.295847 A    
N1    O28   1.302812 A    
C25   N2    1.415306 S    
C5    C42   1.454762 S    
O41   H22   0.988520 S    
Cr4   O26   2.032575 S    
O23   Cr5   1.956824 S    
C17   H1    1.075232 S    
C16   C17   1.409896 A    
Cr5   O26   2.028506 S    
C19   C24   1.453911 A    
O14   Cr4   2.095536 S    
C43   C48   1.396134 A    
N2    O30   1.286190 A    
C38   H11   1.082567 S    
O19   Cr6   1.964497 S    
C32   H10   1.080303 S    
C22   C23   1.418538 A    
O7    C6    1.325220 A    
C55   O16   1.300284 A    
O14   C57   1.251419 A    
C14   C23   1.433490 A    
O2    C1    1.305552 A    
C35   N5    1.443049 S    
N7    O46   1.301603 A    
C35   C36   1.380387 A    
O43   H24   0.991732 S    
C52   O43   1.383205 S    
C37   C38   1.381494 A    
O3    Cr2   2.087900 S    
C4    O9    1.281887 A    
C10   C13   1.477879 S    
C20   C21   1.378877 A    
C26   H8    1.071491 S    
O16   Cr5   2.076348 S    
O23   C59   1.294282 A    
N4    O36   1.301880 A    
C33   C57   1.486730 S    
O10   C5    1.286776 A    
O42   H23   0.991073 S    
O22   Cr5   2.107215 S    
O21   C58   1.303533 A    
N3    O33   1.290713 A    
C51   C60   1.454552 S    
C12   O27   1.375643 S    
N6    O39   1.301125 A    
C38   C39   1.406017 A    
