data_mof_unit_48016.cif
_audit_creation_date              2012-12-11T17:43:56-0500
_audit_creation_method            fapswitch 2.2
_symmetry_space_group_name_H-M    P1
_symmetry_Int_Tables_number       1
_space_group_crystal_system       triclinic
_cell_length_a                    20.242109
_cell_length_b                    22.733449
_cell_length_c                    6.943297
_cell_angle_alpha                 89.997939
_cell_angle_beta                  86.802176
_cell_angle_gamma                 90.000023
_cell_volume                      3190.14230898

loop_
_atom_site_label
_atom_site_type_symbol
_atom_type_description
_atom_site_fract_x
_atom_site_fract_y
_atom_site_fract_z
_atom_type_partial_charge
O1    O     O_R   0.751270 0.447300 0.600030 -0.541492
O2    O     O_R   0.248730 0.947300 0.399970 -0.541489
O3    O     O_R   0.613530 0.440160 0.952150 -0.536882
O4    O     O_R   0.386470 0.940160 0.047850 -0.536878
O5    O     O_R   0.613050 0.552700 0.122560 -0.534853
O6    O     O_R   0.386950 0.052700 0.877440 -0.534864
C1    C     C_R   0.591574 0.425408 0.787072 0.700149
C2    C     C_R   0.408425 0.925408 0.212937 0.700147
O7    O     O_R   0.750780 0.440350 0.929820 -0.543872
O8    O     O_R   0.249220 0.940350 0.070180 -0.543872
O9    O     O_R   0.751280 0.552900 0.100070 -0.541892
O10   O     O_R   0.248720 0.052900 0.899930 -0.541902
C3    C     C_R   0.773923 0.426122 0.757361 0.693856
C4    C     C_R   0.226077 0.926122 0.242642 0.693853
O11   O     O_R   0.613040 0.447100 0.622520 -0.535339
O12   O     O_R   0.386960 0.947100 0.377480 -0.535337
O13   O     O_3   0.682160 0.536920 0.777780 -0.367201
O14   O     O_3   0.317840 0.036920 0.222220 -0.367208
V1    V     V_3+5 0.682160 0.493150 0.052630 1.415183
V2    V     V_3+5 0.317840 0.993150 0.947370 1.415165
O15   O     O_R   0.750790 0.559840 0.429870 -0.543618
O16   O     O_R   0.249210 0.059840 0.570130 -0.543613
C5    C     C_R   0.773774 0.574226 0.257397 0.690211
C6    C     C_R   0.226226 0.074226 0.742600 0.690217
O17   O     O_R   0.613540 0.559650 0.452200 -0.535555
O18   O     O_R   0.386460 0.059650 0.547800 -0.535549
C7    C     C_R   0.591636 0.574425 0.287095 0.693344
C8    C     C_R   0.408364 0.074425 0.712896 0.693341
V3    V     V_3+5 0.682160 0.506850 0.552630 1.417399
V4    V     V_3+5 0.317840 0.006850 0.447370 1.417406
O19   O     O_3   0.682150 0.463080 0.277610 -0.367699
O20   O     O_3   0.317850 0.963080 0.722390 -0.367694
C9    C     C_R   0.579128 0.860134 0.156837 -0.157846
C10   C     C_R   0.420903 0.360099 0.843889 -0.157860
H1    H     H_    0.537851 0.946596 0.136439 0.107473
H2    H     H_    0.462179 0.446561 0.864286 0.107487
H3    H     H_    0.670012 0.776201 0.146066 0.128586
H4    H     H_    0.330040 0.276148 0.855055 0.128584
H5    H     H_    0.628921 0.875797 0.121692 0.115323
H6    H     H_    0.371126 0.375744 0.879389 0.115325
C11   C     C_R   0.462668 0.882087 0.211277 -0.041694
C12   C     C_R   0.537331 0.382085 0.788784 -0.041727
C13   C     C_R   0.472786 0.595863 0.333166 -0.166667
C14   C     C_R   0.527193 0.095889 0.666294 -0.166637
C15   C     C_R   0.418886 0.633812 0.343635 -0.117503
C16   C     C_R   0.581080 0.133850 0.655570 -0.117519
C17   C     C_R   0.427503 0.693927 0.311990 -0.155651
C18   C     C_R   0.572471 0.193955 0.687409 -0.155659
C19   C     C_R   0.491057 0.717949 0.268112 0.077359
C20   C     C_R   0.508938 0.217955 0.731762 0.077366
C21   C     C_R   0.546331 0.678465 0.255727 0.068225
C22   C     C_R   0.453678 0.178458 0.744422 0.068231
C23   C     C_R   0.501568 0.779719 0.236415 0.074090
C24   C     C_R   0.498433 0.279717 0.763644 0.074084
C25   C     C_R   0.567001 0.800136 0.191322 0.138189
C26   C     C_R   0.433022 0.300111 0.809192 0.138196
C27   C     C_R   0.620080 0.760680 0.180078 -0.198300
C28   C     C_R   0.379956 0.260643 0.820694 -0.198309
C29   C     C_R   0.610063 0.700928 0.212081 -0.192658
C30   C     C_R   0.389965 0.200900 0.788512 -0.192699
C31   C     C_R   0.449717 0.822172 0.246991 -0.214312
C32   C     C_R   0.550272 0.322181 0.752838 -0.214324
C33   C     C_R   0.527390 0.900605 0.165604 -0.171464
C34   C     C_R   0.472630 0.400581 0.834910 -0.171438
C35   C     C_R   0.536576 0.617223 0.289045 -0.086204
C36   C     C_R   0.463424 0.117226 0.710889 -0.086236
H7    H     H_    0.398838 0.810249 0.280297 0.093924
H8    H     H_    0.601138 0.310274 0.719227 0.093944
H9    H     H_    0.464712 0.549381 0.360064 0.106294
H10   H     H_    0.535257 0.049418 0.639194 0.106310
H11   H     H_    0.383320 0.720358 0.323124 0.109348
H12   H     H_    0.616642 0.220399 0.676019 0.109349
H13   H     H_    0.369789 0.616481 0.377537 0.121385
H14   H     H_    0.630160 0.116538 0.621286 0.121388
H15   H     H_    0.652909 0.672343 0.201914 0.112053
H16   H     H_    0.347131 0.172305 0.798892 0.112114
C37   C     C_R   0.170914 0.882598 0.260954 -0.047143
C38   C     C_R   0.829087 0.382599 0.739052 -0.047141
C39   C     C_R   0.143485 0.858660 0.096171 -0.218043
C40   C     C_R   0.856512 0.358653 0.903836 -0.218043
C41   C     C_R   0.091044 0.818354 0.113707 -0.143701
C42   C     C_R   0.908953 0.318348 0.886298 -0.143698
C43   C     C_R   0.064609 0.800895 0.297586 0.427614
C44   C     C_R   0.935392 0.300897 0.702417 0.427617
C45   C     C_R   0.092189 0.824631 0.461198 -0.184801
C46   C     C_R   0.907815 0.324641 0.538805 -0.184804
C47   C     C_R   0.144531 0.864921 0.443728 -0.199828
C48   C     C_R   0.855473 0.364930 0.556276 -0.199829
C49   C     C_R   0.908200 0.682584 0.386294 -0.143926
C50   C     C_R   0.091802 0.182589 0.613700 -0.143923
C51   C     C_R   0.856002 0.642035 0.403846 -0.216473
C52   C     C_R   0.144000 0.142040 0.596146 -0.216462
C53   C     C_R   0.934380 0.700297 0.202407 0.427398
C54   C     C_R   0.065618 0.200293 0.797590 0.427403
N1    N     N_2   0.011016 0.760110 0.325662 -0.310324
N2    N     N_2   0.988986 0.260114 0.674338 -0.310324
N3    N     N_2   0.987907 0.741150 0.174317 -0.310320
N4    N     N_2   0.012090 0.241144 0.825683 -0.310320
C55   C     C_R   0.828585 0.618084 0.239075 -0.046882
C56   C     C_R   0.171414 0.118083 0.760919 -0.046872
H17   H     H_    0.837333 0.629300 0.546967 0.132734
H18   H     H_    0.162672 0.129311 0.453024 0.132727
H19   H     H_    0.927893 0.699774 0.516669 0.134201
H20   H     H_    0.072110 0.199784 0.483325 0.134198
H21   H     H_    0.072814 0.811888 0.603661 0.119968
H22   H     H_    0.927194 0.311905 0.396341 0.119968
H23   H     H_    0.164184 0.882308 0.573958 0.132940
H24   H     H_    0.835824 0.382322 0.426046 0.132942
C57   C     C_R   0.854617 0.636103 0.056297 -0.200078
C58   C     C_R   0.145379 0.136094 0.943699 -0.200094
C59   C     C_R   0.906719 0.676634 0.038807 -0.185151
C60   C     C_R   0.093276 0.176625 0.961190 -0.185153
H25   H     H_    0.834905 0.618768 0.926081 0.133492
H26   H     H_    0.165089 0.118754 0.073917 0.133491
H27   H     H_    0.071408 0.801109 0.983326 0.134187
H28   H     H_    0.928586 0.301097 0.016679 0.134187
H29   H     H_    0.925884 0.689585 0.896340 0.120063
H30   H     H_    0.074108 0.189569 0.103660 0.120063
H31   H     H_    0.162373 0.871176 0.953052 0.132378
H32   H     H_    0.837620 0.371163 0.046956 0.132375

loop_
_geom_bond_atom_site_label_1
_geom_bond_atom_site_label_2
_ccdc_geom_bond_type
C9    C25   A    
C5    C55   S    
C40   H32   S    
C56   C58   A    
O11   V3    S    
C29   H15   S    
O13   V3    S    
C14   C36   A    
C11   C31   A    
O4    C2    A    
V1    O19   S    
C17   C19   A    
C10   C26   A    
O9    V1    S    
C9    H5    S    
C10   H6    S    
C18   H12   S    
O3    C1    A    
C57   C59   A    
C44   N2    S    
C48   H24   S    
C38   C40   A    
C1    C12   S    
C54   N4    S    
C28   C30   A    
C55   C57   A    
C46   C48   A    
C15   H13   S    
C21   C35   A    
C4    C37   S    
C54   C60   A    
O7    C3    A    
C22   C30   A    
H4    C28   S    
C23   C31   A    
O7    V1    S    
O6    C8    A    
O8    V2    S    
C19   C21   A    
C39   H31   S    
C20   C22   A    
O3    V1    S    
O14   V4    S    
C49   C51   A    
C12   C32   A    
C52   H18   S    
C18   C20   A    
C2    O12   A    
O5    C7    A    
C49   H19   S    
C41   H27   S    
C46   H22   S    
C51   H17   S    
C45   H21   S    
C10   C34   A    
C41   C43   A    
C14   C16   A    
C50   C54   A    
C16   C18   A    
C23   C25   A    
O17   V3    S    
C24   C26   A    
C9    C33   A    
C45   C47   A    
V4    O20   S    
C2    C11   S    
C40   C42   A    
O8    C4    A    
C39   C41   A    
C1    O11   A    
C24   C32   A    
O15   V3    S    
C30   H16   S    
N2    N4    D    
O1    C3    A    
C8    C36   S    
C7    C35   S    
C31   H7    S    
C50   C52   A    
C13   C35   A    
C43   N1    S    
O10   V2    S    
O1    V3    S    
C37   C39   A    
C47   H23   S    
C20   C24   A    
C14   H10   S    
C13   C15   A    
C50   H20   S    
C53   C59   A    
C43   C45   A    
O18   V4    S    
C42   C44   A    
O15   C5    A    
O16   C6    A    
C21   C29   A    
O2    V4    S    
C17   H11   S    
C53   N3    S    
C16   H14   S    
C22   C36   A    
C52   C56   A    
V2    O20   S    
C38   C48   A    
C58   H26   S    
C3    C38   S    
O16   V4    S    
C6    C56   S    
C44   C46   A    
C12   C34   A    
N1    N3    D    
O5    V1    S    
C57   H25   S    
O17   C7    A    
O6    V2    S    
O10   C6    A    
O18   C8    A    
C32   H8    S    
C59   H29   S    
C25   C27   A    
C42   H28   S    
V3    O19   S    
C60   H30   S    
C19   C23   A    
O9    C5    A    
O13   V1    S    
C26   C28   A    
O14   V2    S    
C49   C53   A    
O2    C4    A    
C58   C60   A    
C27   C29   A    
O4    V2    S    
C15   C17   A    
C37   C47   A    
C13   H9    S    
C11   C33   A    
H1    C33   S    
C51   C55   A    
H2    C34   S    
O12   V4    S    
H3    C27   S    
