data_mof_unit_43299.cif
_audit_creation_date              2012-12-10T20:26:28-0500
_audit_creation_method            fapswitch 2.2
_symmetry_space_group_name_H-M    P1
_symmetry_Int_Tables_number       1
_space_group_crystal_system       triclinic
_cell_length_a                    10.745484
_cell_length_b                    10.733055
_cell_length_c                    9.869796
_cell_angle_alpha                 89.972194
_cell_angle_beta                  90.0092
_cell_angle_gamma                 90.050441
_cell_volume                      1138.30144708

loop_
_atom_site_label
_atom_site_type_symbol
_atom_type_description
_atom_site_fract_x
_atom_site_fract_y
_atom_site_fract_z
_atom_type_partial_charge
C1    C     C_R   0.498672 0.260549 0.499933 0.875493
C2    C     C_R   0.494500 0.129375 0.498905 -0.120527
C3    C     C_R   0.461326 0.064783 0.380218 -0.199122
C4    C     C_R   0.461641 0.935280 0.380109 -0.218787
C5    C     C_R   0.494731 0.870665 0.498850 -0.067361
C6    C     C_R   0.523483 0.937690 0.614149 0.026434
C7    C     C_3   0.568680 0.925734 0.756643 -0.534651
C8    C     C_3   0.569409 0.069465 0.757926 0.412453
C9    C     C_R   0.392985 0.476748 0.071163 0.212251
C10   C     C_R   0.602903 0.534229 0.071898 -0.129074
C11   C     C_R   0.602915 0.534210 0.928047 -0.113012
C12   C     C_R   0.262644 0.497096 0.499845 0.928224
C13   C     C_R   0.392876 0.477191 0.928726 0.220189
C14   C     C_3   0.315636 0.362005 0.922508 -0.507189
C15   C     C_3   0.316547 0.360866 0.076448 -0.506988
C16   C     C_R   0.499148 0.739480 0.499847 0.883360
C17   C     C_R   0.737373 0.502588 0.499937 0.928623
C18   C     C_2   0.933065 0.496531 0.385687 -0.162857
C19   C     C_2   0.868909 0.513923 0.499887 -0.338929
C20   C     C_2   0.066931 0.504075 0.385767 -0.163663
C21   C     C_2   0.131180 0.484944 0.499621 -0.333271
C22   C     C_R   0.524564 0.062161 0.613736 -0.007135
H1    H     H_    0.887293 0.478055 0.289562 0.168413
H2    H     H_    0.686616 0.560112 0.125781 0.146961
H3    H     H_    0.686633 0.560070 0.874161 0.147994
H4    H     H_    0.221987 0.380221 0.878967 0.197457
H5    H     H_    0.366022 0.282278 0.876545 0.208935
H6    H     H_    0.223232 0.377460 0.121420 0.197330
H7    H     H_    0.368277 0.280679 0.120078 0.211440
H8    H     H_    0.911728 0.540076 0.595186 0.147582
H9    H     H_    0.112605 0.524770 0.290139 0.165698
H10   H     H_    0.088519 0.456972 0.594416 0.144252
H11   H     H_    0.435933 0.113467 0.288164 0.162072
H12   H     H_    0.436599 0.886573 0.287918 0.167448
H13   H     H_    0.497180 0.884181 0.824392 0.177592
H14   H     H_    0.662217 0.882010 0.762849 0.210588
H15   H     H_    0.497657 0.108818 0.826548 0.081816
N1    N     N_R   0.499170 0.499140 0.142800 -0.108261
N2    N     N_R   0.499170 0.499180 0.857150 -0.105303
O1    O     O_R   0.500020 0.316790 0.614690 -0.610768
O2    O     O_R   0.500000 0.316760 0.385350 -0.621331
O3    O     O_R   0.319080 0.500020 0.614640 -0.625818
O4    O     O_R   0.319070 0.499980 0.385300 -0.619363
O5    O     O_R   0.500000 0.683240 0.614650 -0.616530
O6    O     O_R   0.499980 0.683210 0.385310 -0.628029
O7    O     O_R   0.680930 0.500020 0.614700 -0.623324
O8    O     O_R   0.680920 0.499980 0.385360 -0.621986
Zn1   Zn    Zn3+2 0.500010 0.500020 0.653130 0.953472
Zn2   Zn    Zn3+2 0.499990 0.499980 0.346870 0.942386
O9    O     O_3   0.689127 0.122228 0.783899 -0.581338
C23   C     C_3   0.771640 0.118718 0.672329 -0.236293
H16   H     H_    0.743744 0.187739 0.594228 0.159331
H17   H     H_    0.779116 0.023998 0.627700 0.149272
H18   H     H_    0.865759 0.145482 0.708201 0.173842

loop_
_geom_bond_atom_site_label_1
_geom_bond_atom_site_label_2
_ccdc_geom_bond_type
C16   O6    A    
C2    C22   A    
C8    C22   S    
C17   O7    A    
C6    C7    S    
C23   H16   S    
C14   H5    S    
C7    H14   S    
C16   O5    A    
C18   C20   S    
O6    Zn2   S    
C10   N1    A    
C23   H18   S    
O9    C23   S    
C9    C15   S    
C7    C8    S    
O8    Zn2   S    
N1    Zn2   S    
O3    Zn1   S    
C13   C14   S    
C14   H4    S    
C11   N2    A    
C15   H6    S    
O2    Zn2   S    
C9    N1    A    
C17   C19   S    
C15   H7    S    
C12   O4    A    
C2    C3    A    
C5    C6    A    
C21   H10   S    
C4    H12   S    
C13   N2    A    
C10   C11   A    
C3    H11   S    
C23   H17   S    
C12   O3    A    
C18   H1    S    
C6    C22   A    
O7    Zn1   S    
C8    O9    S    
O5    Zn1   S    
C20   C21   D    
C1    C2    S    
C8    H15   S    
C1    O2    A    
O1    Zn1   S    
C11   H3    S    
C14   C15   S    
C18   C19   D    
C5    C16   S    
C9    C13   A    
C1    O1    A    
C10   H2    S    
C19   H8    S    
C7    H13   S    
C12   C21   S    
O4    Zn2   S    
C3    C4    A    
C17   O8    A    
C4    C5    A    
N2    Zn1   S    
C20   H9    S    
