data_mof_unit_8093.cif
_audit_creation_date              2012-12-11T15:06:36-0500
_audit_creation_method            fapswitch 2.2
_symmetry_space_group_name_H-M    P1
_symmetry_Int_Tables_number       1
_space_group_crystal_system       triclinic
_cell_length_a                    7.218065
_cell_length_b                    15.070398
_cell_length_c                    22.590254
_cell_angle_alpha                 89.809048
_cell_angle_beta                  88.851078
_cell_angle_gamma                 88.777013
_cell_volume                      2456.2837018

loop_
_atom_site_label
_atom_site_type_symbol
_atom_type_description
_atom_site_fract_x
_atom_site_fract_y
_atom_site_fract_z
_atom_type_partial_charge
O1    O     O_R   0.390810 0.844810 0.447340 -0.526798
O2    O     O_R   0.109190 0.155190 0.947340 -0.536936
O3    O     O_R   0.890810 0.655190 0.552660 -0.536557
O4    O     O_R   0.609190 0.344810 0.052660 -0.543832
O5    O     O_R   0.720550 0.655820 0.440420 -0.546006
O6    O     O_R   0.779450 0.344180 0.940420 -0.520186
O7    O     O_R   0.220550 0.844180 0.559580 -0.522274
O8    O     O_R   0.279450 0.155820 0.059580 -0.520161
C1    C     C_R   0.554597 0.628075 0.425333 0.706267
C2    C     C_R   0.948524 0.373713 0.926574 0.706942
C3    C     C_R   0.049072 0.873632 0.573367 0.699323
C4    C     C_R   0.448750 0.127558 0.074257 0.724062
O9    O     O_R   0.720530 0.844130 0.440420 -0.546234
O10   O     O_R   0.779470 0.155870 0.940420 -0.544504
O11   O     O_R   0.220530 0.655870 0.559580 -0.545797
O12   O     O_R   0.279470 0.344130 0.059580 -0.532591
O13   O     O_R   0.890830 0.844810 0.552660 -0.538722
O14   O     O_R   0.609170 0.155190 0.052660 -0.544536
O15   O     O_R   0.390830 0.655190 0.447340 -0.511381
O16   O     O_R   0.109170 0.344810 0.947340 -0.537520
C5    C     C_R   0.551046 0.874127 0.426876 0.683955
C6    C     C_R   0.951154 0.125771 0.926918 0.690445
C7    C     C_R   0.051428 0.625432 0.572936 0.687257
C8    C     C_R   0.444775 0.373434 0.073636 0.699044
O17   O     O_3   0.557310 0.749980 0.536820 -0.373967
O18   O     O_3   0.942690 0.250020 0.036820 -0.377256
O19   O     O_3   0.057310 0.750020 0.463180 -0.358405
O20   O     O_3   0.442690 0.249980 0.963180 -0.371679
V1    V     V_3+5 0.832160 0.749980 0.493170 1.492138
V2    V     V_3+5 0.667840 0.250020 0.993170 1.478614
V3    V     V_3+5 0.332160 0.750020 0.506830 1.525387
V4    V     V_3+5 0.167840 0.249980 0.006830 1.497772
C9    C     C_R   0.141810 0.577009 0.857679 -0.126602
C10   C     C_R   0.716381 0.423832 0.345905 -0.130821
C11   C     C_R   0.593872 0.910588 0.139835 -0.136499
C12   C     C_R   0.843190 0.077857 0.642596 -0.131818
H1    H     H_    0.226717 0.630618 0.872783 0.147273
H2    H     H_    0.810709 0.369044 0.355789 0.156327
H3    H     H_    0.651517 0.848613 0.122679 0.129850
H4    H     H_    0.753211 0.131694 0.627835 0.152725
C13   C     C_R   0.967944 0.446064 0.882143 -0.104687
C14   C     C_R   0.558085 0.557988 0.379354 -0.106938
C15   C     C_R   0.465352 0.056895 0.119677 -0.105250
C16   C     C_R   0.024424 0.945872 0.617667 -0.101684
C17   C     C_R   0.915559 0.480661 0.590325 -0.191376
C18   C     C_R   0.302976 0.515421 0.101479 -0.185234
C19   C     C_R   0.430488 0.024795 0.411123 -0.206979
C20   C     C_R   0.103064 0.982240 0.907917 -0.192199
C21   C     C_R   0.812422 0.426888 0.628290 0.015222
C22   C     C_R   0.225979 0.570723 0.145024 0.012748
C23   C     C_R   0.343912 0.087547 0.374810 0.016046
C24   C     C_R   0.208164 0.929031 0.869042 0.014104
C25   C     C_R   0.828554 0.437277 0.689511 -0.158161
C26   C     C_R   0.284522 0.561082 0.203331 -0.161512
C27   C     C_R   0.361415 0.078663 0.313241 -0.140980
C28   C     C_R   0.184417 0.939384 0.808078 -0.159493
C29   C     C_R   0.965803 0.490933 0.714130 0.066164
C30   C     C_R   0.440531 0.507347 0.217741 0.075294
C31   C     C_R   0.480452 0.013745 0.286796 0.069803
C32   C     C_R   0.038873 0.992473 0.784880 0.068871
C33   C     C_R   0.064148 0.548161 0.674111 0.072214
C34   C     C_R   0.510754 0.447524 0.172928 0.041923
C35   C     C_R   0.560151 0.947531 0.324842 0.061606
C36   C     C_R   0.939183 0.049663 0.825583 0.076313
C37   C     C_R   0.999811 0.494895 0.777116 0.016917
C38   C     C_R   0.519810 0.505896 0.276092 0.025401
C39   C     C_R   0.507466 0.007147 0.223437 0.030097
C40   C     C_R   0.998096 0.995974 0.722378 0.017793
C41   C     C_R   0.116487 0.563183 0.797195 0.119610
C42   C     C_R   0.648884 0.435902 0.288832 0.105166
C43   C     C_R   0.589836 0.927514 0.200732 0.102113
C44   C     C_R   0.874905 0.064572 0.702917 0.121506
C45   C     C_R   0.213030 0.616390 0.756970 -0.107802
C46   C     C_R   0.714106 0.378421 0.244404 -0.108965
C47   C     C_R   0.670130 0.865139 0.238824 -0.157792
C48   C     C_R   0.778271 0.118433 0.743700 -0.111973
C49   C     C_R   0.190161 0.607726 0.696530 -0.154141
C50   C     C_R   0.648912 0.384961 0.187299 -0.166899
C51   C     C_R   0.658551 0.875523 0.299735 -0.163134
C52   C     C_R   0.806394 0.109521 0.803996 -0.152583
C53   C     C_R   0.931373 0.433318 0.821223 -0.038846
C54   C     C_R   0.483029 0.571179 0.321933 -0.060518
C55   C     C_R   0.460265 0.075846 0.181416 -0.059789
C56   C     C_R   0.066276 0.933391 0.678352 -0.039508
C57   C     C_R   0.066489 0.520023 0.899470 -0.152652
C58   C     C_R   0.668638 0.482949 0.390653 -0.152701
C59   C     C_R   0.527283 0.973430 0.100089 -0.165480
C60   C     C_R   0.919141 0.020127 0.600616 -0.152088
C61   C     C_R   0.028532 0.546856 0.612437 -0.110553
C62   C     C_R   0.433504 0.449105 0.115465 -0.108966
C63   C     C_R   0.529681 0.952097 0.387109 -0.102442
C64   C     C_R   0.980794 0.048099 0.886894 -0.114617
H5    H     H_    0.892339 0.478010 0.543085 0.144673
H6    H     H_    0.249679 0.518862 0.056942 0.142051
H7    H     H_    0.407882 0.028068 0.458680 0.152633
H8    H     H_    0.130979 0.979307 0.954890 0.153588
H9    H     H_    0.270932 0.648896 0.667191 0.136730
H10   H     H_    0.705283 0.338558 0.155010 0.155510
H11   H     H_    0.721023 0.824337 0.326997 0.144627
H12   H     H_    0.724709 0.150951 0.833771 0.137834
H13   H     H_    0.097531 0.529926 0.945709 0.135271
H14   H     H_    0.728305 0.472951 0.433891 0.144535
H15   H     H_    0.537246 0.959227 0.053115 0.143827
H16   H     H_    0.884065 0.029892 0.554577 0.132270
H17   H     H_    0.308607 0.665265 0.772542 0.152932
H18   H     H_    0.817537 0.327378 0.253945 0.165228
H19   H     H_    0.738551 0.806016 0.221517 0.169586
H20   H     H_    0.678061 0.167727 0.728711 0.151843
C65   C     C_2   0.844605 0.349561 0.805564 0.692628
O21   O     O_2   0.932955 0.293765 0.777083 -0.556411
O22   O     O_R   0.658821 0.336776 0.821448 -0.651656
H21   H     H_    0.605333 0.282579 0.802476 0.287857
C66   C     C_2   0.393805 0.658545 0.308930 0.693688
O23   O     O_2   0.264807 0.686592 0.339894 -0.542172
O24   O     O_R   0.450826 0.706586 0.259169 -0.664591
H22   H     H_    0.367592 0.760407 0.251858 0.314531
C67   C     C_2   0.440562 0.170078 0.199494 0.691506
O25   O     O_2   0.550754 0.200786 0.233860 -0.556557
O26   O     O_R   0.294797 0.223022 0.178312 -0.661153
H23   H     H_    0.293173 0.285134 0.195405 0.294187
C68   C     C_2   0.155521 0.848440 0.694496 0.692013
O27   O     O_2   0.070401 0.795236 0.724861 -0.555832
O28   O     O_R   0.340125 0.831771 0.677272 -0.651997
H24   H     H_    0.395805 0.777269 0.696882 0.288005
H25   H     H_    0.724105 0.406650 0.716489 0.164529
H26   H     H_    0.200413 0.593499 0.236959 0.161801
H27   H     H_    0.272695 0.120343 0.286740 0.159710
H28   H     H_    0.288960 0.909174 0.779910 0.163948
C69   C     C_2   0.677434 0.364251 0.603781 0.753297
O29   O     O_2   0.585582 0.317329 0.636936 -0.562057
O30   O     O_R   0.655604 0.358258 0.542531 -0.677135
H29   H     H_    0.560050 0.313228 0.531343 0.307963
C70   C     C_2   0.079571 0.636955 0.129890 0.773111
O31   O     O_2   0.004402 0.634256 0.081873 -0.564744
O32   O     O_R   0.030504 0.704336 0.169877 -0.663905
H30   H     H_    0.938780 0.748459 0.152441 0.287499
C71   C     C_2   0.225909 0.159575 0.401431 0.767967
O33   O     O_2   0.150908 0.215173 0.369822 -0.559066
O34   O     O_R   0.200627 0.164349 0.462917 -0.671304
H31   H     H_    0.117544 0.216245 0.475619 0.304580
C72   C     C_2   0.352348 0.866904 0.892202 0.759318
O35   O     O_2   0.444390 0.819765 0.858256 -0.559109
O36   O     O_R   0.382704 0.861637 0.953097 -0.674995
H32   H     H_    0.484260 0.817008 0.963351 0.302134

loop_
_geom_bond_atom_site_label_1
_geom_bond_atom_site_label_2
_ccdc_geom_bond_type
C30   C34   A    
O1    C5    A    
C27   C31   A    
O19   V1    S    
C67   O25   D    
O13   V1    S    
O3    C7    A    
O22   H21   S    
C14   C54   A    
C44   C48   A    
C17   H5    S    
O28   H24   S    
C35   C51   A    
C12   C60   A    
O7    C3    A    
C71   O34   S    
C30   C38   A    
C1    C14   S    
C22   C26   A    
C51   H11   S    
C69   O29   D    
C4    C15   S    
C65   O22   S    
C26   C30   A    
O4    C8    A    
C37   C41   A    
C38   C54   A    
O24   H22   S    
O1    V3    S    
C15   C55   A    
O2    V4    S    
C10   C58   A    
O3    V1    S    
C9    C57   A    
C42   C46   A    
C12   H4    S    
C31   C39   A    
C11   C59   A    
C1    O15   A    
C33   C49   A    
C50   H10   S    
C7    C61   S    
C41   C45   A    
C14   C58   A    
C17   C61   A    
C10   C42   A    
C39   C43   A    
C9    C41   A    
O11   C7    A    
O15   V3    S    
O12   C8    A    
C52   H12   S    
C2    C13   S    
C36   C52   A    
O10   V2    S    
O16   V4    S    
C60   H16   S    
C33   C61   A    
O5    V1    S    
O34   H31   S    
O7    V3    S    
O8    V4    S    
C47   H19   S    
O32   H30   S    
C2    O16   A    
C25   C29   A    
O18   V4    S    
C19   C23   A    
C56   C68   S    
C21   C69   S    
O11   V3    S    
C9    H1    S    
C28   C32   A    
C66   O24   S    
C40   C44   A    
C72   O36   S    
C40   C56   A    
C11   H3    S    
O2    C6    A    
C46   H18   S    
C26   H26   S    
C37   C53   A    
C18   H6    S    
C17   C21   A    
O8    C4    A    
C13   C53   A    
O9    C5    A    
C3    C16   S    
C39   C55   A    
C49   H9    S    
C68   O27   D    
C25   H25   S    
C59   H15   S    
C23   C71   S    
O6    V2    S    
C27   H27   S    
C20   C64   A    
C70   O31   D    
C36   C64   A    
C4    O14   A    
O30   H29   S    
C58   H14   S    
C57   H13   S    
C66   O23   D    
C5    C63   S    
O9    V1    S    
C3    O13   A    
C6    C64   S    
C20   H8    S    
C10   H2    S    
C19   C63   A    
O17   V3    S    
C34   C50   A    
C48   C52   A    
C54   C66   S    
C53   C65   S    
C16   C56   A    
C22   C70   S    
C8    C62   S    
O6    C2    A    
O26   H23   S    
C29   C33   A    
C18   C62   A    
O12   V4    S    
C13   C57   A    
C71   O33   D    
C18   C22   A    
C31   C35   A    
C24   C72   S    
C45   H17   S    
C32   C36   A    
C15   C59   A    
O10   C6    A    
C67   O26   S    
O36   H32   S    
C16   C60   A    
C65   O21   D    
C43   C47   A    
C55   C67   S    
C38   C42   A    
C21   C25   A    
C34   C62   A    
O20   V2    S    
C23   C27   A    
C28   H28   S    
C68   O28   S    
O14   V2    S    
C11   C43   A    
C12   C44   A    
C20   C24   A    
C32   C40   A    
C45   C49   A    
C48   H20   S    
C46   C50   A    
C35   C63   A    
C70   O32   S    
C19   H7    S    
O5    C1    A    
C69   O30   S    
C72   O35   D    
C47   C51   A    
O4    V2    S    
C24   C28   A    
C29   C37   A    
