data_mof_unit_27987.cif
_audit_creation_date              2012-12-11T15:15:53-0500
_audit_creation_method            fapswitch 2.2
_symmetry_space_group_name_H-M    P1
_symmetry_Int_Tables_number       1
_space_group_crystal_system       triclinic
_cell_length_a                    14.074545
_cell_length_b                    14.074475
_cell_length_c                    28.13538
_cell_angle_alpha                 89.787093
_cell_angle_beta                  89.787191
_cell_angle_gamma                 120.557318
_cell_volume                      4799.2274986

loop_
_atom_site_label
_atom_site_type_symbol
_atom_type_description
_atom_site_fract_x
_atom_site_fract_y
_atom_site_fract_z
_atom_type_partial_charge
C1    C     C_R   0.566398 0.453079 0.566885 0.563452
C2    C     C_3   0.490423 0.973690 0.206117 0.038969
C3    C     C_R   0.732279 0.846540 0.642177 -0.106713
C4    C     C_R   0.620378 0.808096 0.634658 -0.122010
C5    C     C_R   0.563380 0.841213 0.664770 -0.104620
C6    C     C_R   0.709874 0.074196 0.205369 0.037040
C7    C     C_R   0.736169 0.150217 0.167977 -0.107618
C8    C     C_R   0.833816 0.188088 0.141892 -0.122284
C9    C     C_R   0.906687 0.151762 0.153463 -0.105719
C10   C     C_R   0.881604 0.076956 0.190897 -0.129144
C11   C     C_R   0.783444 0.037973 0.216721 -0.103679
C12   C     C_R   0.419627 0.281093 0.190608 0.032739
C13   C     C_3   0.498934 0.494584 0.201570 0.037218
C14   C     C_R   0.485534 0.270596 0.155838 -0.106396
C15   C     C_R   0.439438 0.180893 0.124827 -0.117515
C16   C     C_R   0.327241 0.101508 0.128136 -0.099845
C17   C     C_R   0.260948 0.111786 0.162443 -0.129838
C18   C     C_R   0.306775 0.201324 0.193581 -0.113059
C19   C     C_R   0.915225 0.618641 0.201964 0.037427
C20   C     C_R   0.841187 0.563344 0.164769 -0.104616
C21   C     C_R   0.808061 0.620330 0.134655 -0.122003
C22   C     C_R   0.846497 0.732231 0.142169 -0.106721
C23   C     C_R   0.917985 0.787123 0.179809 -0.129421
C24   C     C_3   0.020884 0.508462 0.204961 0.037804
C25   C     C_R   0.952605 0.730789 0.209532 -0.106360
C26   C     C_R   0.911938 0.298379 0.799174 0.036321
C27   C     C_R   0.836037 0.271697 0.836665 -0.104283
C28   C     C_R   0.802398 0.176546 0.864064 -0.117888
C29   C     C_R   0.843016 0.106558 0.853793 -0.105292
C30   C     C_R   0.917607 0.131874 0.816245 -0.129597
C31   C     C_R   0.952163 0.227452 0.789025 -0.104692
C32   C     C_R   0.671239 0.605209 0.799930 0.038449
C33   C     C_R   0.679959 0.540422 0.835788 -0.096835
C34   C     C_R   0.771014 0.585904 0.866058 -0.114258
C35   C     C_3   0.954196 0.405779 0.772607 0.024075
C36   C     C_R   0.853946 0.696384 0.860763 -0.104633
C37   C     C_R   0.846162 0.761300 0.825020 -0.128291
C38   C     C_R   0.755307 0.716021 0.794618 -0.103266
C39   C     C_R   0.392833 0.096434 0.797812 0.040701
C40   C     C_R   0.451995 0.183252 0.829742 -0.101705
C41   C     C_R   0.397705 0.225341 0.856382 -0.116708
C42   C     C_R   0.284168 0.181272 0.851244 -0.107943
C43   C     C_R   0.225044 0.096052 0.818994 -0.123714
C44   C     C_R   0.279004 0.053552 0.792398 -0.096151
C45   C     C_R   0.298387 0.911856 0.299188 0.036321
C46   C     C_3   0.568854 0.557152 0.769904 0.022556
C47   C     C_R   0.227435 0.952062 0.289060 -0.104700
C48   C     C_R   0.131871 0.917476 0.316293 -0.129594
C49   C     C_R   0.106595 0.842873 0.353833 -0.105286
C50   C     C_R   0.176607 0.802272 0.364082 -0.117888
C51   C     C_R   0.271744 0.835942 0.336670 -0.104282
C52   C     C_R   0.605184 0.671242 0.299928 0.038454
C53   C     C_R   0.715997 0.755311 0.294623 -0.103261
C54   C     C_R   0.761263 0.846168 0.325024 -0.128284
C55   C     C_R   0.696335 0.853951 0.360761 -0.104637
C56   C     C_R   0.585853 0.771020 0.366049 -0.114259
C57   C     C_3   0.450904 0.046976 0.771770 0.024658
C58   C     C_R   0.540383 0.679964 0.335780 -0.096833
C59   C     C_R   0.096461 0.392862 0.297816 0.040703
C60   C     C_R   0.053603 0.279037 0.292400 -0.096154
C61   C     C_R   0.096112 0.225090 0.318998 -0.123725
C62   C     C_R   0.181320 0.284223 0.351253 -0.107938
C63   C     C_R   0.225368 0.397758 0.356391 -0.116700
C64   C     C_R   0.183269 0.452035 0.329749 -0.101710
C65   C     C_3   0.405780 0.954157 0.272611 0.024069
C66   C     C_3   0.557140 0.568856 0.269904 0.022553
C67   C     C_3   0.046990 0.450918 0.271771 0.024651
C68   C     C_3   0.882435 0.440526 0.744643 -0.113318
C69   C     C_R   0.545812 0.112874 0.566765 0.548069
C70   C     C_3   0.516314 0.444651 0.744584 -0.111258
C71   C     C_3   0.557560 0.113618 0.742112 -0.112922
C72   C     C_3   0.440571 0.882436 0.244644 -0.113319
C73   C     C_3   0.444640 0.516301 0.244582 -0.111259
C74   C     C_3   0.113619 0.557575 0.242112 -0.112920
C75   C     C_1   0.035323 0.526184 0.848493 -0.055500
C76   C     C_1   0.442967 0.550257 0.839279 -0.055771
C77   C     C_1   0.489478 0.964663 0.847820 -0.054443
C78   C     C_1   0.526191 0.035333 0.348491 -0.055491
C79   C     C_1   0.550258 0.442974 0.339280 -0.055770
C80   C     C_R   0.885839 0.432988 0.567198 0.546076
C81   C     C_1   0.964662 0.489479 0.347820 -0.054439
C82   C     C_1   0.952639 0.476293 0.655268 -0.050616
C83   C     C_1   0.514533 0.483788 0.652315 -0.051372
C84   C     C_1   0.516471 0.042124 0.654241 -0.054686
C85   C     C_1   0.476287 0.952636 0.155268 -0.050606
C86   C     C_1   0.483788 0.514528 0.152314 -0.051369
C87   C     C_1   0.042126 0.516471 0.154241 -0.054680
C88   C     C_R   0.598383 0.429432 0.427854 0.560944
C89   C     C_R   0.546542 0.113044 0.434400 0.539568
C90   C     C_R   0.887348 0.434120 0.434328 0.539976
C91   C     C_R   0.453079 0.566397 0.066885 0.563451
C92   C     C_R   0.429431 0.598384 0.927855 0.560947
C93   C     C_R   0.113043 0.546541 0.934400 0.539569
C94   C     C_R   0.434120 0.887348 0.934328 0.539979
C95   C     C_3   0.029843 0.601769 0.731477 0.024720
C96   C     C_3   0.381531 0.468615 0.721683 0.023957
C97   C     C_3   0.559962 0.961407 0.729989 0.025040
C98   C     C_3   0.601771 0.029894 0.231470 0.024716
C99   C     C_3   0.468629 0.381532 0.221683 0.023953
C100  C     C_3   0.961395 0.559950 0.229988 0.025031
C101  C     C_3   0.939525 0.553370 0.770672 -0.124973
C102  C     C_R   0.112874 0.545812 0.066765 0.548065
C103  C     C_3   0.401772 0.414415 0.765415 -0.117945
C104  C     C_3   0.609518 0.053267 0.767869 -0.124105
C105  C     C_3   0.553422 0.939577 0.270666 -0.124967
C106  C     C_3   0.414419 0.401764 0.265414 -0.117942
C107  C     C_3   0.053254 0.609519 0.267868 -0.124096
C108  C     C_1   0.064226 0.532430 0.888908 -0.014346
C109  C     C_1   0.437211 0.572440 0.879803 -0.009207
C110  C     C_1   0.468693 0.936269 0.888542 -0.017801
C111  C     C_1   0.532434 0.064232 0.388907 -0.014342
C112  C     C_1   0.572440 0.437214 0.379803 -0.009208
C113  C     C_R   0.432987 0.885839 0.067198 0.546075
C114  C     C_1   0.936268 0.468694 0.388542 -0.017808
C115  C     C_1   0.928642 0.461079 0.614040 -0.019101
C116  C     C_1   0.534066 0.470382 0.612316 -0.015059
C117  C     C_1   0.528119 0.067613 0.613174 -0.014703
C118  C     C_1   0.461076 0.928640 0.114040 -0.019098
C119  C     C_1   0.470382 0.534063 0.112316 -0.015062
C120  C     C_1   0.067614 0.528119 0.113174 -0.014708
C121  C     C_3   0.101454 0.566819 0.759466 -0.113602
C122  C     C_3   0.434042 0.581292 0.747011 -0.115362
C123  C     C_3   0.453319 0.894775 0.759707 -0.115451
C124  C     C_3   0.973690 0.490429 0.706117 0.038967
C125  C     C_3   0.566776 0.101465 0.259463 -0.113598
C126  C     C_3   0.581305 0.434057 0.247013 -0.115361
C127  C     C_3   0.894776 0.453306 0.259707 -0.115448
C128  C     C_3   0.010451 0.517076 0.798022 0.035264
C129  C     C_3   0.455829 0.527469 0.790146 0.035110
C130  C     C_3   0.502360 0.987634 0.797065 0.037476
C131  C     C_3   0.517084 0.010463 0.298020 0.035264
C132  C     C_3   0.527471 0.455835 0.290147 0.035112
C133  C     C_3   0.987634 0.502361 0.297065 0.037479
C134  C     C_3   0.044335 0.454227 0.733637 -0.121626
C135  C     C_3   0.494587 0.498934 0.701570 0.037218
C136  C     C_3   0.548530 0.611397 0.726472 -0.120788
C137  C     C_3   0.401421 0.955136 0.734026 -0.126430
C138  C     C_3   0.454177 0.044295 0.233640 -0.121616
C139  C     C_3   0.611396 0.548541 0.226473 -0.120782
C140  C     C_3   0.955151 0.401422 0.234027 -0.126422
C141  C     C_R   0.074104 0.709882 0.705386 0.037039
C142  C     C_R   0.037861 0.783425 0.716759 -0.103675
C143  C     C_R   0.076819 0.881603 0.690951 -0.129140
C144  C     C_R   0.151618 0.906729 0.653510 -0.105721
C145  C     C_R   0.187962 0.833883 0.641917 -0.122284
C146  C     C_3   0.508462 0.020883 0.704961 0.037803
C147  C     C_R   0.150117 0.736220 0.667987 -0.107617
C148  C     C_R   0.281093 0.419600 0.690607 0.032732
C149  C     C_R   0.201314 0.306753 0.693593 -0.113067
C150  C     C_R   0.111770 0.260916 0.662458 -0.129840
C151  C     C_R   0.101497 0.327194 0.628141 -0.099838
C152  C     C_R   0.180894 0.439385 0.624819 -0.117517
C153  C     C_R   0.270602 0.485491 0.655827 -0.106403
C154  C     C_R   0.618665 0.915249 0.701967 0.037424
C155  C     C_R   0.730814 0.952638 0.709538 -0.106363
C156  C     C_R   0.787159 0.918028 0.679817 -0.129415
Cr1   Cr    Cr6+3 0.504830 0.254570 0.500510 1.025881
Cr2   Cr    Cr6+3 0.745430 0.250260 0.500510 1.020822
Cr3   Cr    Cr6+3 0.749740 0.495170 0.500510 1.021507
Cr4   Cr    Cr6+3 0.254570 0.504830 0.000510 1.025879
Cr5   Cr    Cr6+3 0.250260 0.745430 0.000510 1.020822
Cr6   Cr    Cr6+3 0.495170 0.749740 0.000510 1.021508
H1    H     H_    0.896280 0.593150 0.786173 0.127281
H2    H     H_    0.387827 0.792657 0.237925 0.099685
H3    H     H_    0.389462 0.551153 0.242912 0.103475
H4    H     H_    0.203343 0.599143 0.234159 0.097637
H5    H     H_    0.086613 0.413690 0.718297 0.134029
H6    H     H_    0.610915 0.690699 0.710631 0.132837
H7    H     H_    0.316825 0.915158 0.719803 0.126336
H8    H     H_    0.413595 0.086532 0.218304 0.134027
H9    H     H_    0.690696 0.610933 0.210633 0.132841
H10   H     H_    0.915184 0.316823 0.219808 0.126367
H11   H     H_    0.191322 0.619506 0.766080 0.099425
H12   H     H_    0.340380 0.335065 0.781952 0.120606
H13   H     H_    0.398320 0.635574 0.748321 0.092119
H14   H     H_    0.411053 0.805290 0.767947 0.095034
H15   H     H_    0.619429 0.191337 0.266075 0.099423
H16   H     H_    0.635597 0.398347 0.248325 0.092117
H17   H     H_    0.805290 0.411028 0.267947 0.095034
H18   H     H_    0.979478 0.765167 0.745348 0.106297
H19   H     H_    0.049118 0.938303 0.700032 0.092315
H20   H     H_    0.181729 0.982795 0.633619 0.120679
H21   H     H_    0.246352 0.853641 0.613089 0.113457
H22   H     H_    0.179320 0.680697 0.658799 0.101391
H23   H     H_    0.694421 0.092743 0.781521 0.130823
H24   H     H_    0.208509 0.253839 0.719529 0.100208
H25   H     H_    0.050335 0.174022 0.664963 0.104027
H26   H     H_    0.031973 0.291701 0.604194 0.133176
H27   H     H_    0.172897 0.490627 0.598234 0.107461
H28   H     H_    0.332141 0.572290 0.652604 0.097107
H29   H     H_    0.775440 0.009862 0.737738 0.108123
H30   H     H_    0.873688 0.947535 0.685705 0.095803
H31   H     H_    0.776177 0.820260 0.619098 0.124184
H32   H     H_    0.577605 0.751958 0.605782 0.114017
H33   H     H_    0.476863 0.811361 0.658390 0.097864
H34   H     H_    0.593246 0.896371 0.286163 0.127289
H35   H     H_    0.680625 0.179403 0.158805 0.101387
H36   H     H_    0.853540 0.246484 0.113069 0.113442
H37   H     H_    0.982739 0.181892 0.133559 0.120696
H38   H     H_    0.938323 0.049266 0.199959 0.092335
H39   H     H_    0.765218 0.979581 0.245304 0.106263
H40   H     H_    0.572336 0.332128 0.152625 0.097093
H41   H     H_    0.490692 0.172893 0.098250 0.107454
H42   H     H_    0.291756 0.031989 0.104186 0.133180
H43   H     H_    0.174050 0.050359 0.164938 0.104032
H44   H     H_    0.253849 0.208525 0.219509 0.100203
H45   H     H_    0.335070 0.340363 0.281949 0.120601
H46   H     H_    0.811343 0.476826 0.158392 0.097859
H47   H     H_    0.751922 0.577548 0.105781 0.114016
H48   H     H_    0.820211 0.776121 0.119088 0.124181
H49   H     H_    0.947483 0.873653 0.185694 0.095808
H50   H     H_    0.009828 0.775425 0.237731 0.108090
H51   H     H_    0.804093 0.325350 0.845033 0.100600
H52   H     H_    0.744217 0.156647 0.892990 0.111335
H53   H     H_    0.816348 0.032522 0.874779 0.118728
H54   H     H_    0.948830 0.077492 0.808260 0.092599
H55   H     H_    0.010825 0.246043 0.760513 0.102840
H56   H     H_    0.092719 0.694424 0.281517 0.130847
H57   H     H_    0.615711 0.455083 0.840567 0.098751
H58   H     H_    0.777281 0.535521 0.893608 0.107317
H59   H     H_    0.924465 0.731476 0.884164 0.117668
H60   H     H_    0.910480 0.846831 0.820901 0.096241
H61   H     H_    0.750215 0.768212 0.767683 0.106243
H62   H     H_    0.539795 0.217264 0.834423 0.095061
H63   H     H_    0.443530 0.291899 0.881107 0.112730
H64   H     H_    0.242265 0.213978 0.871857 0.120607
H65   H     H_    0.137228 0.062387 0.814823 0.094513
H66   H     H_    0.231396 0.986264 0.768336 0.110225
H67   H     H_    0.792661 0.387748 0.737923 0.099684
H68   H     H_    0.245997 0.010736 0.260555 0.102810
H69   H     H_    0.077470 0.948685 0.308325 0.092623
H70   H     H_    0.032570 0.816182 0.374831 0.118734
H71   H     H_    0.156738 0.744082 0.393001 0.111325
H72   H     H_    0.325418 0.804014 0.345021 0.100590
H73   H     H_    0.768198 0.750218 0.267694 0.106229
H74   H     H_    0.846795 0.910487 0.320910 0.096249
H75   H     H_    0.731418 0.924471 0.384161 0.117670
H76   H     H_    0.535460 0.777288 0.393593 0.107309
H77   H     H_    0.455043 0.615716 0.340553 0.098748
H78   H     H_    0.551177 0.389482 0.742916 0.103472
H79   H     H_    0.986324 0.231420 0.268334 0.110193
H80   H     H_    0.062465 0.137276 0.314826 0.094517
H81   H     H_    0.214034 0.242331 0.371868 0.120603
H82   H     H_    0.291916 0.443589 0.381120 0.112726
H83   H     H_    0.217263 0.539832 0.334431 0.095061
H84   H     H_    0.599115 0.203341 0.734159 0.097630
O1    O     O_R   0.479630 0.139450 0.552170 -0.514475
O2    O     O_R   0.360080 0.516200 0.048600 -0.488995
O3    O     O_R   0.156120 0.639920 0.048600 -0.491151
O4    O     O_R   0.483800 0.843880 0.048600 -0.493335
O5    O     O_R   0.478560 0.139320 0.448720 -0.515646
O6    O     O_R   0.860680 0.339240 0.448720 -0.504341
O7    O     O_R   0.660760 0.521440 0.448720 -0.502888
O8    O     O_R   0.139320 0.478560 0.948720 -0.515647
O9    O     O_R   0.339240 0.860680 0.948720 -0.504341
O10   O     O_R   0.521440 0.660760 0.948720 -0.502887
O11   O     O_R   0.515210 0.359960 0.452710 -0.498174
O12   O     O_R   0.860550 0.340180 0.552170 -0.514998
O13   O     O_R   0.640040 0.155250 0.452710 -0.502848
O14   O     O_R   0.844750 0.484790 0.452710 -0.519648
O15   O     O_R   0.359960 0.515210 0.952710 -0.498174
O16   O     O_R   0.155250 0.640040 0.952710 -0.502845
O17   O     O_R   0.484790 0.844750 0.952710 -0.519645
O18   O     O_3   0.666667 0.333333 0.499990 -0.270850
O19   O     O_3   0.333333 0.666667 0.999990 -0.270851
O20   O     O_R   0.659820 0.520370 0.552170 -0.509431
O21   O     O_R   0.139450 0.479630 0.052170 -0.514481
O22   O     O_R   0.340180 0.860550 0.052170 -0.515002
O23   O     O_R   0.520370 0.659820 0.052170 -0.509433
O24   O     O_R   0.516200 0.360080 0.548600 -0.488993
O25   O     O_R   0.639920 0.156120 0.548600 -0.491152
O26   O     O_R   0.843880 0.483800 0.548600 -0.493337

loop_
_geom_bond_atom_site_label_1
_geom_bond_atom_site_label_2
_ccdc_geom_bond_type
C147  H22   S    
C95   C124  S    
C105  H34   S    
C59   C60   A    
C55   C56   A    
Cr6   O23   S    
C40   C41   A    
Cr3   O14   S    
C138  H8    S    
C100  C127  S    
C97   C146  S    
C6    C7    A    
C8    H36   S    
C19   C20   A    
C89   O13   A    
C54   H74   S    
C71   C104  S    
C90   O14   A    
C68   C124  S    
C46   C129  S    
C123  H14   S    
C102  C120  S    
C7    C8    A    
C105  C131  S    
C47   H68   S    
C53   C54   A    
C24   C140  S    
Cr3   O20   S    
C106  C132  S    
C104  H23   S    
C6    C11   A    
C60   H79   S    
C37   C38   A    
C98   C105  S    
C14   H40   S    
C79   C112  T    
C40   H62   S    
C51   H72   S    
C6    C98   S    
C56   H76   S    
C36   C37   A    
C67   C133  S    
Cr2   O6    S    
C82   C115  T    
C93   C108  S    
C30   C31   A    
C34   H58   S    
C92   C109  S    
C29   H53   S    
C58   H77   S    
C24   C100  S    
C61   C62   A    
C63   H82   S    
Cr5   O22   S    
C5    C154  A    
C102  O3    A    
C83   C116  T    
C61   H80   S    
C101  C128  S    
C77   C130  S    
C2    C85   S    
C17   C18   A    
C75   C128  S    
C11   H39   S    
Cr4   O8    S    
C106  H45   S    
C125  C131  S    
C12   C99   S    
C59   C67   S    
C74   C107  S    
C54   C55   A    
C48   H69   S    
C149  C150  A    
Cr5   O16   S    
C69   O1    A    
C98   C125  S    
C121  H11   S    
C66   C139  S    
C1    O20   A    
C13   C139  S    
Cr5   O19   S    
C76   C109  T    
C13   C86   S    
C123  C137  S    
Cr6   O17   S    
C151  C152  A    
C139  H9    S    
C86   C119  T    
C107  C133  S    
C1    C116  S    
C32   C38   A    
C121  C134  S    
C99   C126  S    
C29   C30   A    
C9    C10   A    
C53   H73   S    
C122  C129  S    
C83   C135  S    
C92   O15   A    
C5    H33   S    
Cr1   O11   S    
C95   C121  S    
C33   H57   S    
C94   O17   A    
C149  H24   S    
C140  H10   S    
C104  C130  S    
C21   C22   A    
C90   C114  S    
C77   C110  T    
C70   H78   S    
Cr4   O2    S    
C2    C72   S    
Cr1   O5    S    
C35   C134  S    
C82   C124  S    
C56   C58   A    
C65   C131  S    
C43   H65   S    
C33   C34   A    
C96   C135  S    
C144  H20   S    
C153  H28   S    
C45   C47   A    
C28   H52   S    
C151  H26   S    
C64   H83   S    
C41   H63   S    
C126  C139  S    
C155  C156  A    
C15   C16   A    
C145  C147  A    
C2    C138  S    
C137  C146  S    
C135  C136  S    
C68   C101  S    
C92   O10   A    
C121  C128  S    
C73   H3    S    
C10   C11   A    
C39   C40   A    
C141  C147  A    
C70   C103  S    
Cr3   O18   S    
C26   C27   A    
C1    O24   A    
C136  H6    S    
C26   C31   A    
Cr2   O12   S    
C42   H64   S    
C46   C136  S    
C90   O6    A    
C94   C110  S    
C103  H12   S    
C55   H75   S    
Cr2   O25   S    
C63   C64   A    
C96   C148  S    
C60   C61   A    
C80   O26   A    
C38   H61   S    
C13   C99   S    
C50   H71   S    
C4    H32   S    
C78   C131  S    
C41   C42   A    
C152  H27   S    
C69   O25   A    
C107  H56   S    
C44   H66   S    
C76   C129  S    
C57   C130  S    
C79   C132  S    
C47   C48   A    
C14   C15   A    
C80   C115  S    
C101  H1    S    
C71   C146  S    
C62   C63   A    
C50   C51   A    
C8    C9    A    
C57   C137  S    
C9    H37   S    
C67   C74   S    
C3    H31   S    
C97   C154  S    
C57   C71   S    
C67   C140  S    
C103  C129  S    
C39   C57   S    
C122  C136  S    
C154  C155  A    
C78   C111  T    
C52   C58   A    
C88   O11   A    
Cr1   O1    S    
C65   C138  S    
C156  H30   S    
Cr6   O10   S    
C72   C105  S    
C13   C73   S    
C95   C141  S    
Cr2   O18   S    
C102  O21   A    
C72   H2    S    
C123  C130  S    
C45   C65   S    
C70   C135  S    
C91   C119  S    
Cr2   O13   S    
C80   O12   A    
C42   C43   A    
Cr3   O7    S    
C39   C44   A    
C3    C4    A    
C143  H19   S    
C45   C51   A    
Cr5   O9    S    
C52   C66   S    
C68   H67   S    
C93   O16   A    
C125  H15   S    
C75   C108  T    
Cr3   O26   S    
C124  C134  S    
C99   C106  S    
C145  H21   S    
C91   O2    A    
C28   C29   A    
C100  C107  S    
C89   O5    A    
C20   C21   A    
C93   O8    A    
C32   C46   S    
C137  H7    S    
C150  H25   S    
C22   C23   A    
C127  C133  S    
C12   C14   A    
C4    C5    A    
C91   O23   A    
C10   H38   S    
C37   H60   S    
C15   H41   S    
C19   C100  S    
C81   C133  S    
C88   O7    A    
C84   C146  S    
C125  C138  S    
C113  O4    A    
C65   C72   S    
C122  H13   S    
C89   C111  S    
Cr6   O19   S    
C155  H29   S    
C150  C151  A    
C66   C132  S    
C96   C122  S    
C18   H44   S    
C81   C114  T    
C127  H17   S    
C32   C33   A    
C49   H70   S    
C17   H43   S    
C143  C144  A    
C134  H5    S    
C113  O22   A    
C142  H18   S    
C87   C120  T    
C97   C123  S    
C16   H42   S    
C94   O9    A    
C25   H50   S    
Cr5   O3    S    
C66   C73   S    
C24   C74   S    
C73   C106  S    
C16   C17   A    
C23   H49   S    
C35   C68   S    
C43   C44   A    
C48   C49   A    
Cr1   O24   S    
C22   H48   S    
C69   C117  S    
C3    C156  A    
C21   H47   S    
Cr4   O15   S    
C126  H16   S    
C34   C36   A    
C148  C149  A    
C23   C25   A    
C85   C118  T    
C19   C25   A    
C24   C87   S    
C46   C70   S    
C97   C104  S    
C62   H81   S    
C126  C132  S    
C84   C117  T    
C30   H54   S    
C113  C118  S    
C88   C112  S    
C59   C64   A    
C144  C145  A    
Cr4   O19   S    
Cr1   O18   S    
C152  C153  A    
C2    C98   S    
Cr4   O21   S    
Cr6   O4    S    
C49   C50   A    
C127  C140  S    
C96   C103  S    
C12   C18   A    
C27   C28   A    
C27   H51   S    
C26   C35   S    
C20   H46   S    
C142  C143  A    
C71   H84   S    
C148  C153  A    
C141  C142  A    
C36   H59   S    
C7    H35   S    
C35   C128  S    
C95   C101  S    
C52   C53   A    
C31   H55   S    
C74   H4    S    
