data_mof_unit_24555.cif
_audit_creation_date              2012-12-11T14:36:07-0500
_audit_creation_method            fapswitch 2.2
_symmetry_space_group_name_H-M    P1
_symmetry_Int_Tables_number       1
_space_group_crystal_system       triclinic
_cell_length_a                    13.485029
_cell_length_b                    13.497849
_cell_length_c                    27.477679
_cell_angle_alpha                 90.655756
_cell_angle_beta                  90.122956
_cell_angle_gamma                 60.102988
_cell_volume                      4335.55588484

loop_
_atom_site_label
_atom_site_type_symbol
_atom_type_description
_atom_site_fract_x
_atom_site_fract_y
_atom_site_fract_z
_atom_type_partial_charge
C1    C     C_R   0.620281 0.101306 0.570195 0.544793
C2    C     C_1   0.631171 0.732221 0.616425 -0.013464
C3    C     C_3   0.699221 0.561551 0.768001 -0.101517
C4    C     C_3   0.679241 0.655140 0.805603 0.052669
C5    C     C_3   0.590062 0.648821 0.740884 -0.099197
C6    C     C_3   0.663400 0.683706 0.710832 0.052653
C7    C     C_3   0.570298 0.741948 0.779214 -0.102087
C8    C     C_3   0.643437 0.777305 0.748426 -0.103197
C9    C     C_1   0.687980 0.634397 0.858007 -0.059226
C10   C     C_1   0.649534 0.705057 0.658486 -0.058034
C11   C     C_3   0.090482 0.133935 0.738178 -0.101665
C12   C     C_R   0.599675 0.779513 0.568757 0.549337
C13   C     C_3   0.182128 0.060523 0.776365 -0.100443
C14   C     C_1   0.096852 0.201510 0.901846 -0.016385
C15   C     C_1   0.229849 0.137872 0.617627 -0.014807
C16   C     C_3   0.055275 0.242370 0.769771 -0.101371
C17   C     C_3   0.147350 0.168786 0.807110 0.052671
C18   C     C_3   0.144292 0.262903 0.743072 -0.098875
C19   C     C_3   0.179105 0.154755 0.712247 0.052588
C20   C     C_3   0.235899 0.189582 0.781110 -0.101927
C21   C     C_3   0.271210 0.081129 0.749562 -0.103188
C22   C     C_1   0.124637 0.182253 0.859611 -0.058888
C23   C     C_R   0.277841 0.121764 0.569711 0.546920
C24   C     C_1   0.201894 0.146864 0.659800 -0.058238
C25   C     C_3   0.629192 0.277155 0.739872 -0.101568
C26   C     C_3   0.554932 0.258969 0.777833 -0.100014
C27   C     C_1   0.691107 0.208025 0.902986 -0.016005
C28   C     C_1   0.635613 0.133418 0.618327 -0.015278
C29   C     C_3   0.737013 0.204704 0.771050 -0.101474
C30   C     C_3   0.662595 0.186245 0.808174 0.052770
C31   C     C_3   0.758430 0.094937 0.743598 -0.099235
C32   C     C_3   0.650858 0.167538 0.713191 0.052549
C33   C     C_3   0.684253 0.076698 0.781441 -0.102075
C34   C     C_R   0.623777 0.101486 0.432278 0.544743
C35   C     C_3   0.576404 0.149083 0.750291 -0.103091
C36   C     C_1   0.674170 0.197005 0.860718 -0.058697
C37   C     C_1   0.643947 0.152454 0.660642 -0.058553
C38   C     C_R   0.740880 0.691060 0.360310 0.266054
C39   C     C_R   0.751740 0.676513 0.309154 0.016540
C40   C     C_R   0.765530 0.659025 0.206924 0.012994
C41   C     C_R   0.859317 0.644957 0.234054 -0.144776
C42   C     C_R   0.853177 0.651904 0.284667 -0.107507
C43   C     C_R   0.775436 0.639040 0.156853 -0.133128
C44   C     C_R   0.684467 0.641571 0.130999 -0.005147
C45   C     C_R   0.602330 0.774971 0.430457 0.569664
C46   C     C_R   0.547850 0.719137 0.354728 -0.175738
C47   C     C_R   0.555928 0.709346 0.304717 -0.000953
C48   C     C_R   0.656761 0.690795 0.281558 0.019317
C49   C     C_R   0.462033 0.722962 0.277539 -0.117872
C50   C     C_R   0.467384 0.718941 0.227103 -0.127536
C51   C     C_R   0.567917 0.698017 0.203545 0.018542
C52   C     C_R   0.663040 0.683967 0.230664 0.067918
C53   C     C_R   0.578044 0.681207 0.153561 -0.132010
C54   C     C_R   0.635315 0.719523 0.382369 0.015345
C55   C     C_R   0.208621 0.058141 0.359360 -0.134483
C56   C     C_R   0.276553 0.121122 0.431483 0.546335
C57   C     C_R   0.179560 0.073297 0.310044 0.020008
C58   C     C_R   0.140964 0.098231 0.209206 0.026975
C59   C     C_R   0.158779 0.998456 0.232238 -0.124405
C60   C     C_R   0.178963 0.985679 0.282306 -0.121287
C61   C     C_R   0.118832 0.113209 0.159247 -0.131283
C62   C     C_R   0.099023 0.214801 0.137106 0.001044
C63   C     C_R   0.175117 0.252229 0.364735 -0.106622
C64   C     C_R   0.152502 0.266755 0.315180 0.024341
C65   C     C_R   0.157011 0.175860 0.287448 0.017546
C66   C     C_R   0.133600 0.367483 0.292376 0.279268
C67   C     C_3   0.772438 0.596829 0.737161 -0.101156
C68   C     C_R   0.121286 0.376170 0.241937 -0.110646
C69   C     C_R   0.125068 0.286752 0.214318 -0.033936
C70   C     C_R   0.141125 0.186820 0.236978 0.048312
C71   C     C_R   0.107809 0.298400 0.164493 -0.126902
C72   C     C_R   0.212706 0.145558 0.385914 -0.022383
C73   C     C_R   0.571757 0.247022 0.366700 -0.136175
C74   C     C_R   0.584284 0.267941 0.317839 0.014205
C75   C     C_R   0.595598 0.295378 0.216888 0.015216
C76   C     C_R   0.513320 0.385486 0.245654 -0.129991
C77   C     C_R   0.507307 0.371513 0.295775 -0.138398
C78   C     C_3   0.752703 0.690000 0.775625 -0.100302
C79   C     C_R   0.603021 0.307523 0.166600 -0.135435
C80   C     C_R   0.687669 0.216508 0.138859 -0.005670
C81   C     C_R   0.748909 0.065364 0.361431 -0.133295
C82   C     C_R   0.756237 0.079535 0.311939 0.012867
C83   C     C_R   0.672351 0.180367 0.289714 0.064767
C84   C     C_R   0.841997 0.991221 0.283916 -0.130934
C85   C     C_R   0.841839 0.000818 0.233607 -0.126776
C86   C     C_R   0.758652 0.100654 0.211162 0.012511
C87   C     C_R   0.675468 0.192318 0.239231 0.062993
C88   C     C_R   0.760549 0.111640 0.161175 -0.126850
C89   C     C_1   0.696931 0.608366 0.900213 -0.016280
C90   C     C_R   0.650648 0.142080 0.387558 -0.002377
C91   C     C_R   0.049205 0.236297 0.949772 0.545665
C92   C     C_R   0.711509 0.563083 0.948221 0.544244
C93   C     C_R   0.722099 0.225509 0.950930 0.545384
C94   C     C_R   0.047009 0.245922 0.088864 0.546364
C95   C     C_R   0.707297 0.576522 0.085748 0.546926
C96   C     C_R   0.719906 0.234908 0.090234 0.547130
Cr1   Cr    Cr6+3 0.417550 0.169090 0.500530 1.025777
Cr2   Cr    Cr6+3 0.669180 0.913420 0.499920 1.026546
Cr3   Cr    Cr6+3 0.413260 0.917540 0.499520 1.019788
Cr4   Cr    Cr6+3 0.909170 0.177380 0.020380 1.019915
Cr5   Cr    Cr6+3 0.912710 0.429210 0.018220 1.019200
Cr6   Cr    Cr6+3 0.657170 0.432570 0.019030 1.020784
H1    H     H_    0.819179 0.707370 0.790539 0.104076
H2    H     H_    0.295920 0.212042 0.799173 0.103245
H3    H     H_    0.128276 0.346263 0.728867 0.104771
H4    H     H_    0.966077 0.309061 0.778651 0.099324
H5    H     H_    0.471174 0.326050 0.792507 0.104276
H6    H     H_    0.607058 0.359296 0.722320 0.103008
H7    H     H_    0.510055 0.126117 0.741142 0.100527
H8    H     H_    0.706453 0.994496 0.798955 0.103126
H9    H     H_    0.842257 0.027825 0.728984 0.104340
H10   H     H_    0.803443 0.227578 0.780167 0.099525
H11   H     H_    0.857346 0.610155 0.139186 0.122390
H12   H     H_    0.855259 0.536963 0.719382 0.104008
H13   H     H_    0.938042 0.626874 0.216090 0.099078
H14   H     H_    0.928302 0.638221 0.304111 0.189270
H15   H     H_    0.506692 0.686066 0.133254 0.125893
H16   H     H_    0.394329 0.728659 0.206619 0.095262
H17   H     H_    0.384395 0.737033 0.295336 0.093279
H18   H     H_    0.467725 0.737284 0.371542 0.137983
H19   H     H_    0.111945 0.048503 0.138182 0.116742
H20   H     H_    0.235583 0.976114 0.375959 0.121653
H21   H     H_    0.158019 0.930068 0.211505 0.094780
H22   H     H_    0.620425 0.866398 0.739748 0.100570
H23   H     H_    0.194424 0.907280 0.299314 0.092085
H24   H     H_    0.092254 0.377325 0.147831 0.128358
H25   H     H_    0.107856 0.453361 0.224482 0.100359
H26   H     H_    0.174780 0.320601 0.385923 0.184365
H27   H     H_    0.547284 0.388945 0.149694 0.124350
H28   H     H_    0.497906 0.308939 0.387385 0.116820
H29   H     H_    0.452925 0.466106 0.229348 0.102880
H30   H     H_    0.442472 0.441486 0.317257 0.092179
H31   H     H_    0.825808 0.040510 0.140170 0.130384
H32   H     H_    0.487416 0.801811 0.796956 0.103059
H33   H     H_    0.907342 0.930697 0.212303 0.100574
H34   H     H_    0.906527 0.913176 0.300694 0.093345
H35   H     H_    0.814640 0.988659 0.378406 0.109845
H36   H     H_    0.523541 0.631423 0.726038 0.104482
H37   H     H_    0.722146 0.472480 0.776672 0.098869
H38   H     H_    0.198102 0.977247 0.790645 0.104026
H39   H     H_    0.030458 0.111548 0.720073 0.103376
H40   H     H_    0.360423 0.014529 0.740649 0.100371
O1    O     O_R   0.301710 0.195650 0.554160 -0.505088
O2    O     O_R   0.658900 0.818120 0.449760 -0.471629
O3    O     O_R   0.503220 0.801620 0.445520 -0.535092
O4    O     O_R   0.319370 0.022040 0.450020 -0.501637
O5    O     O_3   0.499990 0.000010 0.499990 -0.248601
O6    O     O_R   0.818720 0.150820 0.967160 -0.507624
O7    O     O_R   0.006410 0.181720 0.970200 -0.495378
O8    O     O_R   0.027890 0.334070 0.964920 -0.506885
O9    O     O_R   0.809600 0.521790 0.967960 -0.495786
O10   O     O_R   0.635520 0.542770 0.964420 -0.508460
O11   O     O_R   0.665950 0.325030 0.970100 -0.494533
O12   O     O_R   0.522390 0.158990 0.550460 -0.495066
O13   O     O_R   0.816620 0.158530 0.074540 -0.522347
O14   O     O_R   0.004460 0.188870 0.069750 -0.500809
O15   O     O_R   0.025800 0.341780 0.072300 -0.523226
O16   O     O_R   0.807650 0.528950 0.067500 -0.503872
O17   O     O_R   0.633420 0.550490 0.071810 -0.521937
O18   O     O_R   0.664000 0.332180 0.069640 -0.499510
O19   O     O_3   0.826350 0.346390 0.019210 -0.243698
O20   O     O_R   0.694390 0.003530 0.554040 -0.508962
O21   O     O_R   0.657700 0.819660 0.549320 -0.492513
O22   O     O_R   0.501930 0.803280 0.552920 -0.507666
O23   O     O_R   0.318170 0.023580 0.549580 -0.495253
O24   O     O_R   0.303010 0.193990 0.446760 -0.520143
O25   O     O_R   0.523600 0.157450 0.450900 -0.498206
O26   O     O_R   0.695690 0.001860 0.446640 -0.541248
O27   O     O_3   0.833377 0.671058 0.389281 -0.548914
C97   C     C_3   0.857642 0.761249 0.385474 -0.093941
H41   H     H_    0.855628 0.796134 0.422384 0.171557
H42   H     H_    0.797660 0.832573 0.361727 0.097807
H43   H     H_    0.946016 0.727117 0.371516 0.112596
O28   O     O_3   0.122203 0.459388 0.319601 -0.582361
C98   C     C_3   0.225450 0.461302 0.316989 -0.151166
H44   H     H_    0.298265 0.380345 0.330785 0.126377
H45   H     H_    0.217878 0.532061 0.340540 0.132075
H46   H     H_    0.243041 0.477742 0.279276 0.110858

loop_
_geom_bond_atom_site_label_1
_geom_bond_atom_site_label_2
_ccdc_geom_bond_type
C66   C68   A    
C8    C78   S    
C40   C41   A    
C95   O16   A    
C73   C74   A    
C29   H10   S    
C83   C87   A    
C74   C83   A    
C43   C44   A    
C2    C12   S    
Cr2   O21   S    
C5    H36   S    
C98   H45   S    
C49   H17   S    
C85   C86   A    
C81   H35   S    
C11   C19   S    
C20   C21   S    
C95   O17   A    
C60   H23   S    
C19   C21   S    
C67   H12   S    
Cr4   O6    S    
C21   H40   S    
C5    C6    S    
C76   H29   S    
C86   C88   A    
C96   O13   A    
Cr2   O5    S    
Cr1   O24   S    
C79   H27   S    
O27   C97   S    
Cr5   O8    S    
C17   C20   S    
C58   C70   A    
C93   O6    A    
C61   H19   S    
C18   C19   S    
C41   C42   A    
C69   C71   A    
O28   C98   S    
Cr1   O1    S    
C23   O23   A    
C44   C53   A    
C40   C43   A    
C98   H44   S    
C16   C17   S    
C56   C72   S    
C74   C77   A    
C92   O10   A    
C45   O2    A    
C31   C33   S    
C71   H24   S    
Cr4   O19   S    
C39   C42   A    
Cr1   O25   S    
C18   C20   S    
C55   C72   A    
C35   H7    S    
C16   H4    S    
Cr4   O14   S    
C25   C32   S    
C15   C23   S    
Cr3   O3    S    
C55   H20   S    
Cr5   O15   S    
C59   C60   A    
C59   H21   S    
Cr1   O5    S    
C23   O1    A    
C1    O12   A    
C67   C78   S    
C41   H13   S    
C4    C7    S    
C34   O26   A    
Cr2   O20   S    
C81   C82   A    
C98   H46   S    
C25   C29   S    
C46   H18   S    
C51   C52   A    
C32   C35   S    
C7    C8    S    
C76   C77   A    
C7    H32   S    
C47   C49   A    
C9    C89   T    
C5    C7    S    
C86   C87   A    
C8    H22   S    
C57   C60   A    
C6    C8    S    
C25   C26   S    
C40   C52   A    
C93   O11   A    
Cr5   O9    S    
C3    C4    S    
Cr3   O22   S    
C51   C53   A    
C77   H30   S    
C64   C66   A    
Cr6   O17   S    
C75   C76   A    
C34   C90   S    
C4    C78   S    
C29   C30   S    
C12   O22   A    
C11   C16   S    
C47   C48   A    
C38   C54   A    
C29   C31   S    
C61   C62   A    
C46   C54   A    
C92   O9    A    
C50   C51   A    
C13   C21   S    
C1    C28   S    
C46   C47   A    
C32   C37   S    
C84   C85   A    
C89   C92   S    
C11   H39   S    
Cr6   O11   S    
C85   H33   S    
C81   C90   A    
Cr4   O13   S    
C42   H14   S    
C15   C24   T    
C96   O18   A    
Cr3   O4    S    
C45   C54   S    
C26   C30   S    
C94   O15   A    
C82   C84   A    
C62   C94   S    
Cr4   O7    S    
C49   C50   A    
C45   O3    A    
C27   C93   S    
C80   C96   S    
Cr5   O16   S    
C13   H38   S    
Cr6   O18   S    
C34   O25   A    
C2    C10   T    
C16   C18   S    
C38   O27   S    
C91   O7    A    
C75   C87   A    
Cr3   O5    S    
C73   H28   S    
C84   H34   S    
C30   C33   S    
Cr2   O2    S    
C78   H1    S    
C50   H16   S    
C68   C69   A    
C31   C32   S    
C3    C67   S    
C63   H26   S    
C57   C65   A    
C63   C64   A    
C3    C5    S    
Cr1   O12   S    
C26   H5    S    
C6    C10   S    
C91   O8    A    
C20   H2    S    
C30   C36   S    
C27   C36   T    
C17   C22   S    
C13   C17   S    
C64   C65   A    
C14   C22   T    
C55   C57   A    
C19   C24   S    
C58   C59   A    
C18   H3    S    
C80   C88   A    
C44   C95   S    
C6    C67   S    
C43   H11   S    
C12   O21   A    
C11   C13   S    
C38   C39   A    
C97   H42   S    
C28   C37   T    
C58   C61   A    
Cr6   O19   S    
Cr5   O19   S    
C33   C35   S    
C62   C71   A    
C53   H15   S    
C56   O4    A    
C69   C70   A    
C14   C91   S    
C1    O20   A    
C68   H25   S    
C79   C80   A    
C26   C35   S    
C48   C52   A    
C3    H37   S    
C63   C72   A    
C73   C90   A    
C94   O14   A    
C82   C83   A    
C97   H41   S    
C56   O24   A    
C31   H9    S    
C66   O28   S    
C33   H8    S    
C88   H31   S    
C4    C9    S    
C75   C79   A    
Cr2   O26   S    
C65   C70   A    
C25   H6    S    
Cr6   O10   S    
C39   C48   A    
Cr3   O23   S    
C97   H43   S    
