data_mof_unit_7363.cif
_audit_creation_date              2012-12-10T17:42:41-0500
_audit_creation_method            fapswitch 2.2
_symmetry_space_group_name_H-M    P1
_symmetry_Int_Tables_number       1
_space_group_crystal_system       triclinic
_cell_length_a                    9.890344
_cell_length_b                    10.657292
_cell_length_c                    13.123822
_cell_angle_alpha                 91.362845
_cell_angle_beta                  69.864264
_cell_angle_gamma                 89.534521
_cell_volume                      1298.19548865

loop_
_atom_site_label
_atom_site_type_symbol
_atom_type_description
_atom_site_fract_x
_atom_site_fract_y
_atom_site_fract_z
_atom_type_partial_charge
C1    C     C_R   0.500655 0.740925 0.495423 0.863368
C2    C     C_R   0.434417 0.476026 0.983152 0.106288
C3    C     C_R   0.463511 0.441113 0.873710 0.088684
C4    C     C_R   0.546804 0.463458 0.026266 0.044036
C5    C     C_R   0.678632 0.400194 0.965594 0.046443
C6    C     C_R   0.692866 0.346454 0.863995 -0.249606
C7    C     C_R   0.587035 0.366642 0.818842 -0.176279
C8    C     C_R   0.531285 0.513754 0.128316 -0.268449
C9    C     C_R   0.760481 0.425133 0.119499 -0.213422
C10   C     C_R   0.368569 0.482628 0.821695 -0.107440
C11   C     C_R   0.256006 0.896288 0.472143 -0.274139
C12   C     C_R   0.420125 0.493432 0.703958 0.854358
C13   C     C_R   0.123816 0.959915 0.498961 0.561840
C14   C     C_R   0.098730 0.068435 0.564933 -0.382847
C15   C     C_R   0.212326 0.123229 0.590464 0.417714
C16   C     C_R   0.352268 0.067239 0.547895 0.054907
C17   C     C_R   0.367566 0.944217 0.505846 -0.054143
C18   C     C_R   0.495014 0.876166 0.498984 -0.073745
C19   C     C_R   0.611285 0.937337 0.514703 -0.218312
C20   C     C_R   0.606151 0.064827 0.530649 -0.236158
C21   C     C_R   0.480140 0.130957 0.540080 -0.079516
C22   C     C_R   0.795688 0.667376 0.641300 -0.122975
C23   C     C_R   0.492722 0.262253 0.515908 0.918887
C24   C     C_R   0.834336 0.747191 0.711755 -0.159546
C25   C     C_R   0.973488 0.743923 0.713289 -0.178726
C26   C     C_R   0.075126 0.661596 0.643658 -0.163078
C27   C     C_R   0.040132 0.580484 0.570473 0.167161
C28   C     C_R   0.895701 0.581779 0.569813 0.189498
C29   C     C_R   0.959526 0.421726 0.433425 -0.147349
C30   C     C_R   0.102849 0.421991 0.433253 -0.113646
C31   C     C_R   0.580184 0.499715 0.295707 0.903029
C32   C     C_R   0.789182 0.387521 0.011362 0.435090
C33   C     C_R   0.629795 0.485069 0.178281 -0.154025
C34   C     C_R   0.231434 0.530145 0.883342 -0.153860
C35   C     C_R   0.192739 0.544893 0.995163 -0.107427
C36   C     C_R   0.293889 0.521577 0.044817 -0.206096
H1    H     H_    0.838993 0.405171 0.157917 0.173978
H2    H     H_    0.270704 0.812932 0.420832 0.195701
H3    H     H_    0.992060 0.111260 0.593892 0.150555
H4    H     H_    0.702634 0.111813 0.531285 0.173070
H5    H     H_    0.930904 0.357830 0.379134 0.143585
H6    H     H_    0.686695 0.676452 0.645787 0.197101
H7    H     H_    0.755487 0.811901 0.765657 0.147023
H8    H     H_    0.003215 0.805925 0.768366 0.151168
H9    H     H_    0.179924 0.664184 0.649212 0.200706
H10   H     H_    0.784729 0.288077 0.818353 0.149694
H11   H     H_    0.182174 0.358218 0.378809 0.150847
H12   H     H_    0.438986 0.571433 0.173428 0.161591
H13   H     H_    0.155833 0.559281 0.844892 0.149587
H14   H     H_    0.257858 0.536942 0.131653 0.136096
H15   H     H_    0.086083 0.579901 0.042999 0.147517
H16   H     H_    0.602116 0.321725 0.740774 0.168472
H17   H     H_    0.708451 0.887434 0.511664 0.208800
N1    N     N_R   0.856860 0.501200 0.500990 -0.118390
N2    N     N_R   0.142450 0.501280 0.501020 -0.117062
O1    O     O_R   0.385310 0.683220 0.500000 -0.643770
O2    O     O_R   0.614640 0.683250 0.500010 -0.633381
O3    O     O_R   0.328400 0.499950 0.653610 -0.608666
O4    O     O_R   0.557730 0.499970 0.653620 -0.645114
O5    O     O_R   0.385360 0.316750 0.499990 -0.574259
O6    O     O_R   0.614690 0.316780 0.500000 -0.641971
O7    O     O_R   0.442270 0.500030 0.346380 -0.615830
O8    O     O_R   0.671600 0.500050 0.346390 -0.610174
Zn1   Zn    Zn3+2 0.346880 0.499980 0.499990 0.948011
Zn2   Zn    Zn3+2 0.653120 0.500020 0.500010 0.926499
O9    O     O_3   0.015549 0.909155 0.467904 -0.602061
C37   C     C_3   0.007155 0.976151 0.378819 -0.354293
H18   H     H_    0.926386 0.931165 0.349214 0.199684
H19   H     H_    0.111894 0.973218 0.310117 0.166822
H20   H     H_    0.971103 0.075120 0.402856 0.160351
O10   O     O_3   0.187836 0.226265 0.660898 -0.740733
H21   H     H_    0.085523 0.253528 0.681867 0.322884
O11   O     O_3   0.923031 0.334906 0.955746 -0.763546
H22   H     H_    0.949572 0.354608 0.878085 0.328989

loop_
_geom_bond_atom_site_label_1
_geom_bond_atom_site_label_2
_ccdc_geom_bond_type
O8    Zn2   S    
C16   C21   A    
O11   H22   S    
C35   C36   A    
C4    C8    A    
N1    Zn2   S    
C1    C18   S    
C1    O1    A    
C7    H16   S    
C18   C19   A    
C3    C7    A    
C5    C6    A    
C20   H4    S    
C27   N2    A    
C29   N1    A    
C15   C16   A    
C34   C35   A    
O7    Zn1   S    
C9    C32   A    
C14   H3    S    
C12   O4    A    
C19   C20   A    
C16   C17   A    
O1    Zn1   S    
C26   H9    S    
C5    C32   A    
C12   O3    A    
C19   H17   S    
O9    C37   S    
C22   C28   A    
C13   C14   A    
C9    C33   A    
C31   O7    A    
C25   H8    S    
C13   O9    S    
O3    Zn1   S    
C23   O5    A    
C31   C33   S    
C37   H18   S    
C31   O8    A    
C30   H11   S    
C24   C25   A    
C32   O11   S    
C28   N1    A    
C25   C26   A    
C37   H19   S    
C11   H2    S    
C2    C4    A    
C8    H12   S    
C29   C30   A    
C1    O2    A    
N2    Zn1   S    
C9    H1    S    
C17   C18   A    
C26   C27   A    
C10   C34   A    
C10   C12   S    
C21   C23   S    
C35   H15   S    
C22   C24   A    
C36   H14   S    
C2    C36   A    
C11   C17   A    
C34   H13   S    
C6    H10   S    
C29   H5    S    
O2    Zn2   S    
C4    C5    A    
C6    C7    A    
C15   O10   S    
C30   N2    A    
O5    Zn1   S    
C37   H20   S    
C2    C3    A    
O10   H21   S    
C3    C10   A    
O4    Zn2   S    
C11   C13   A    
C22   H6    S    
C8    C33   A    
O6    Zn2   S    
C23   O6    A    
C20   C21   A    
C27   C28   A    
C24   H7    S    
C14   C15   A    
