data_mof_unit_9222.cif
_audit_creation_date              2012-12-10T17:19:01-0500
_audit_creation_method            fapswitch 2.2
_symmetry_space_group_name_H-M    P1
_symmetry_Int_Tables_number       1
_space_group_crystal_system       triclinic
_cell_length_a                    10.264537
_cell_length_b                    10.489071
_cell_length_c                    13.645133
_cell_angle_alpha                 93.848753
_cell_angle_beta                  100.409836
_cell_angle_gamma                 93.616213
_cell_volume                      1437.43053116

loop_
_atom_site_label
_atom_site_type_symbol
_atom_type_description
_atom_site_fract_x
_atom_site_fract_y
_atom_site_fract_z
_atom_type_partial_charge
C1    C     C_R   0.052094 0.734666 0.498251 0.997780
C2    C     C_2   0.054165 0.082629 0.579930 0.363611
C3    C     C_2   0.429671 0.513840 0.507113 0.026784
C4    C     C_2   0.571116 0.481016 0.498632 0.035769
C5    C     C_R   0.093828 0.513741 0.685964 0.914136
C6    C     C_R   0.906834 0.487871 0.314054 0.845122
C7    C     C_R   0.148491 0.536110 0.792481 -0.042711
C8    C     C_R   0.860221 0.491130 0.206831 -0.051204
C9    C     C_R   0.144638 0.634268 0.956900 -0.198844
C10   C     C_R   0.886205 0.456145 0.034969 -0.173391
C11   C     C_R   0.079509 0.595697 0.859701 -0.193506
C12   C     C_R   0.952323 0.266124 0.510889 0.977371
C13   C     C_R   0.938153 0.456551 0.136615 -0.218240
C14   C     C_R   0.280311 0.511251 0.823726 -0.228873
C15   C     C_R   0.734038 0.531453 0.175231 -0.227133
C16   C     C_R   0.351251 0.559406 0.917062 0.046021
C17   C     C_R   0.681679 0.536838 0.074139 0.052406
C18   C     C_R   0.281062 0.618262 0.986363 0.060029
C19   C     C_R   0.756840 0.492990 0.002699 0.062630
C20   C     C_R   0.489322 0.546660 0.943209 0.010884
C21   C     C_R   0.551754 0.574693 0.043459 0.002718
C22   C     C_3   0.310809 0.694382 0.246205 -0.293665
C23   C     C_R   0.483039 0.640227 0.110077 -0.339294
C24   C     C_3   0.722106 0.343660 0.767596 -0.326138
C25   C     C_3   0.284529 0.102468 0.633533 0.149223
C26   C     C_3   0.400563 0.199278 0.676036 -0.841314
C27   C     C_3   0.995934 0.972351 0.746206 0.087907
C28   C     C_3   0.988295 0.906539 0.841046 -0.870527
C29   C     C_3   0.727196 0.705102 0.663694 -0.144265
C30   C     C_3   0.250529 0.308051 0.327484 -0.115473
C31   C     C_R   0.567514 0.509776 0.871881 -0.343029
C32   C     C_R   0.347600 0.660451 0.083181 0.504333
C33   C     C_R   0.700354 0.482496 0.900906 0.476391
C34   C     C_2   0.080658 0.872377 0.509042 -0.483551
C35   C     C_2   0.942972 0.133054 0.534855 -0.501730
C36   C     C_2   0.049448 0.942459 0.586713 0.384167
H1    H     H_    0.674277 0.552230 0.230802 0.163670
H2    H     H_    0.116851 0.917991 0.448844 0.104274
H3    H     H_    0.584689 0.391072 0.459109 0.146597
H4    H     H_    0.417220 0.598581 0.553587 0.141219
H5    H     H_    0.399097 0.754390 0.287735 0.177562
H6    H     H_    0.326896 0.590904 0.250821 0.147130
H7    H     H_    0.226081 0.714018 0.283776 0.200693
H8    H     H_    0.644012 0.371164 0.706995 0.171011
H9    H     H_    0.682449 0.266894 0.809309 0.158750
H10   H     H_    0.800669 0.303263 0.731494 0.202289
H11   H     H_    0.298779 0.063663 0.558548 0.154078
H12   H     H_    0.326902 0.454691 0.772989 0.165180
H13   H     H_    0.285930 0.024375 0.684966 0.141178
H14   H     H_    0.394342 0.234081 0.753598 0.240977
H15   H     H_    0.495125 0.153094 0.677076 0.196468
H16   H     H_    0.399585 0.281874 0.629191 0.278765
H17   H     H_    0.899962 0.014728 0.721177 0.142970
H18   H     H_    0.077646 0.049606 0.766983 0.176953
H19   H     H_    0.084548 0.866725 0.868455 0.274458
H20   H     H_    0.968217 0.977322 0.899691 0.219967
H21   H     H_    0.907295 0.829027 0.827308 0.235667
H22   H     H_    0.834685 0.709864 0.663176 0.244455
H23   H     H_    0.037089 0.426282 0.159918 0.146065
H24   H     H_    0.701340 0.635677 0.716342 0.158898
H25   H     H_    0.702753 0.801088 0.690937 0.138296
H26   H     H_    0.234422 0.394114 0.285020 0.127459
H27   H     H_    0.156349 0.265373 0.343835 0.183634
H28   H     H_    0.287513 0.235790 0.278245 0.130985
H29   H     H_    0.977054 0.615743 0.836460 0.198764
H30   H     H_    0.088631 0.679696 0.007739 0.200147
H31   H     H_    0.946093 0.423284 0.982031 0.191230
H32   H     H_    0.535192 0.681850 0.181924 0.160672
H33   H     H_    0.529280 0.507319 0.792778 0.154414
H34   H     H_    0.850180 0.074438 0.510165 0.130529
N1    N     N_2   0.322180 0.446120 0.460900 0.068470
N2    N     N_2   0.677820 0.553880 0.539100 0.068032
O1    O     O_R   0.935190 0.693030 0.507870 -0.557459
O2    O     O_3   0.778899 0.452234 0.831026 -0.645945
O3    O     O_3   0.165002 0.163952 0.625763 -0.597608
O4    O     O_3   0.021353 0.883099 0.670429 -0.623213
O5    O     O_3   0.652931 0.674078 0.567497 -0.560292
O6    O     O_3   0.346299 0.334197 0.415104 -0.568924
O7    O     O_R   0.064810 0.306970 0.492130 -0.545103
O8    O     O_R   0.142080 0.658430 0.482770 -0.641166
O9    O     O_R   0.857920 0.341570 0.517230 -0.639309
O10   O     O_R   0.969700 0.527180 0.651960 -0.616171
O11   O     O_R   0.030300 0.472820 0.348040 -0.646609
O12   O     O_R   0.176600 0.492580 0.626860 -0.611787
O13   O     O_R   0.823400 0.507420 0.373140 -0.616290
O14   O     O_3   0.279637 0.728465 0.146691 -0.623185
Zn1   Zn    Zn3+2 0.861850 0.523100 0.516760 0.981660
Zn2   Zn    Zn3+2 0.138150 0.476900 0.483240 0.965098

loop_
_geom_bond_atom_site_label_1
_geom_bond_atom_site_label_2
_ccdc_geom_bond_type
C2    C35   D    
C8    C13   A    
C30   H28   S    
C28   H20   S    
C27   H18   S    
C10   H31   S    
C7    C11   A    
C6    O13   A    
C24   H9    S    
C26   H14   S    
C22   H5    S    
O10   Zn1   S    
C12   O7    A    
C9    H30   S    
O1    Zn1   S    
C36   O4    S    
C29   H24   S    
C7    C14   A    
C15   H1    S    
C35   H34   S    
C31   C33   A    
C25   H11   S    
O11   Zn2   S    
C30   H27   S    
O7    Zn2   S    
C28   H19   S    
C1    C34   S    
O13   Zn1   S    
C29   H25   S    
C19   C33   A    
C5    C7    S    
C5    O12   A    
C14   H12   S    
C25   C26   S    
C28   H21   S    
C17   C21   A    
C25   O3    S    
C23   H32   S    
C3    N1    D    
N2    O5    S    
C26   H16   S    
C9    C18   A    
C22   H7    S    
C4    H3    S    
C10   C19   A    
C16   C20   A    
C32   O14   S    
C29   H22   S    
C12   C35   S    
C9    C11   A    
O9    Zn1   S    
C3    H4    S    
C8    C15   A    
C30   H26   S    
C24   H8    S    
C14   C16   A    
C18   C32   A    
C3    C4    S    
C4    N2    D    
N2    Zn1   S    
C2    C36   S    
C15   C17   A    
C6    O11   A    
C34   H2    S    
O12   Zn2   S    
C10   C13   A    
C6    C8    S    
C27   H17   S    
C13   H23   S    
C1    O1    A    
C23   C32   A    
C21   C23   A    
C24   H10   S    
O8    Zn2   S    
C26   H15   S    
C5    O10   A    
C24   O2    S    
C22   H6    S    
C17   C19   A    
C12   O9    A    
C34   C36   D    
C22   O14   S    
C25   H13   S    
N1    Zn2   S    
C30   O6    S    
C11   H29   S    
C33   O2    S    
C31   H33   S    
C29   O5    S    
C20   C21   A    
C16   C18   A    
C27   C28   S    
C1    O8    A    
N1    O6    S    
C2    O3    S    
C27   O4    S    
C20   C31   A    
