data_mof_unit_20913.cif
_audit_creation_date              2013-03-05T15:55:42-0500
_audit_creation_method            fapswitch 2.2
_symmetry_space_group_name_H-M    P1
_symmetry_Int_Tables_number       1
_space_group_crystal_system       triclinic
_cell_length_a                    6.929488
_cell_length_b                    17.595631
_cell_length_c                    19.45281
_cell_angle_alpha                 108.587042
_cell_angle_beta                  89.350117
_cell_angle_gamma                 90.618333
_cell_volume                      2247.9322692

loop_
_atom_site_label
_atom_site_type_symbol
_atom_site_description
_atom_site_fract_x
_atom_site_fract_y
_atom_site_fract_z
_atom_type_partial_charge
O1    O     O_R   0.494330 0.415710 0.413720 -0.595140
O2    O     O_R   0.819360 0.430070 0.560210 -0.603812
O3    O     O_R   0.994320 0.584290 0.586280 -0.593993
C1    C     C_R   0.649838 0.414430 0.581450 0.953756
O4    O     O_R   0.823740 0.406290 0.412670 -0.599036
O5    O     O_R   0.998730 0.560340 0.437690 -0.594824
C2    C     C_R   0.655131 0.383388 0.384644 0.955466
O6    O     O_R   0.489920 0.439660 0.562310 -0.596424
O7    O     O_3   0.662330 0.550570 0.508380 -0.271374
V1    V     V_3+5 0.935370 0.490620 0.498440 1.163984
O8    O     O_R   0.328720 0.569930 0.439790 -0.599744
C3    C     C_R   0.161011 0.584908 0.418125 0.957160
O9    O     O_R   0.324340 0.593710 0.587330 -0.599045
C4    C     C_R   0.155080 0.616695 0.615331 0.954616
V2    V     V_3+5 0.435940 0.509380 0.501560 1.164812
O10   O     O_3   0.159110 0.449430 0.491620 -0.275764
C5    C     C_R   0.292786 0.743171 0.701770 -0.240758
H1    H     H_    0.414596 0.737880 0.665164 0.170668
C6    C     C_R   0.281009 0.810434 0.764644 0.391367
C7    C     C_R   0.121836 0.818144 0.813142 -0.302184
C8    C     C_R   0.973719 0.760047 0.794410 -0.049972
H2    H     H_    0.850105 0.764262 0.829986 0.166826
C9    C     C_R   0.983609 0.695253 0.730115 -0.102917
H3    H     H_    0.866668 0.651785 0.717494 0.129953
C10   C     C_R   0.144213 0.685600 0.683504 -0.187947
C11   C     C_R   0.000700 0.622144 0.319055 -0.177779
C12   C     C_R   0.153545 0.633189 0.368127 -0.160692
C13   C     C_R   0.298156 0.690028 0.368695 -0.203882
C14   C     C_R   0.288279 0.736484 0.321835 0.127088
C15   C     C_R   0.135454 0.724482 0.272101 0.079184
C16   C     C_R   0.992342 0.666512 0.270670 0.073404
C17   C     C_R   0.428642 0.794945 0.324427 -0.317116
C18   C     C_R   0.420815 0.841971 0.278277 0.317684
C19   C     C_R   0.268377 0.829804 0.227422 0.002465
C20   C     C_R   0.125546 0.770333 0.224059 -0.041214
C21   C     C_R   0.972633 0.756611 0.173097 -0.116784
C22   C     C_R   0.827004 0.699016 0.174292 0.543460
C23   C     C_R   0.840885 0.654210 0.221657 -0.274909
C24   C     C_R   0.252265 0.876963 0.181429 -0.133424
C25   C     C_R   0.108420 0.862282 0.128614 -0.302122
C26   C     C_R   0.971799 0.799995 0.122508 0.383249
H4    H     H_    0.889177 0.578005 0.317798 0.135680
H5    H     H_    0.416359 0.699206 0.406602 0.140385
H6    H     H_    0.546657 0.803838 0.362374 0.180573
H7    H     H_    0.350561 0.926470 0.186425 0.187165
H8    H     H_    0.728305 0.610805 0.221340 0.173133
C27   C     C_R   0.467848 0.185779 0.867867 -0.198985
C28   C     C_R   0.623935 0.135860 0.870053 -0.135235
C29   C     C_R   0.784404 0.132557 0.824160 -0.197156
C30   C     C_R   0.787985 0.177275 0.775749 0.135037
C31   C     C_R   0.630884 0.227201 0.774118 0.034949
C32   C     C_R   0.470923 0.231813 0.820727 0.133894
C33   C     C_R   0.945256 0.172547 0.728482 -0.186970
C34   C     C_R   0.948064 0.217479 0.680641 -0.199335
C35   C     C_R   0.793611 0.267949 0.679149 0.145444
C36   C     C_R   0.633603 0.272520 0.725728 0.038498
C37   C     C_R   0.476502 0.322445 0.724099 0.146133
C38   C     C_R   0.319189 0.327141 0.771343 -0.197225
C39   C     C_R   0.316417 0.282241 0.819206 -0.183160
C40   C     C_R   0.796832 0.314106 0.632103 -0.236741
C41   C     C_R   0.640816 0.364092 0.629960 -0.147351
C42   C     C_R   0.480172 0.367237 0.675746 -0.236739
H9    H     H_    0.343818 0.189169 0.903210 0.150465
H10   H     H_    0.904623 0.093894 0.824982 0.149385
H11   H     H_    0.066803 0.134379 0.728758 0.156833
H12   H     H_    0.071909 0.213122 0.645080 0.148256
H13   H     H_    0.920950 0.310778 0.596816 0.143443
H14   H     H_    0.359910 0.405871 0.674915 0.137849
H15   H     H_    0.197628 0.365300 0.771064 0.147474
H16   H     H_    0.192595 0.286611 0.854780 0.151756
C43   C     C_R   0.786992 0.256707 0.296067 -0.112699
H17   H     H_    0.907990 0.259216 0.331506 0.133757
C44   C     C_R   0.772879 0.192542 0.231367 -0.035389
H18   H     H_    0.883010 0.146837 0.218952 0.161903
C45   C     C_R   0.617894 0.186559 0.183662 -0.312681
C46   C     C_R   0.475581 0.247235 0.202656 0.385258
C47   C     C_R   0.489425 0.310500 0.268234 -0.223260
H19   H     H_    0.379428 0.356364 0.281633 0.155089
C48   C     C_R   0.644177 0.315873 0.315571 -0.186941
O11   O     O_R   0.774940 0.060470 0.937800 -0.611508
O12   O     O_R   0.440880 0.093730 0.087350 -0.569700
O13   O     O_R   0.266130 0.939630 0.062280 -0.590086
C49   C     C_R   0.609160 0.117606 0.114993 0.962460
O14   O     O_R   0.445480 0.069960 0.939820 -0.587001
O15   O     O_R   0.270770 0.915690 0.913690 -0.573665
C50   C     C_R   0.615014 0.085669 0.918658 1.017369
O16   O     O_R   0.770300 0.084410 0.086380 -0.583595
O17   O     O_3   0.602600 0.949510 0.991670 -0.240802
V3    V     V_3+5 0.329470 0.009370 0.001550 1.281519
O18   O     O_R   0.940760 0.906160 0.912560 -0.587080
C51   C     C_R   0.110073 0.884698 0.883467 0.996356
O19   O     O_R   0.936150 0.929930 0.060100 -0.555199
C52   C     C_R   0.103613 0.913130 0.080316 0.981763
V4    V     V_3+5 0.828930 0.990450 0.998310 1.285376
O20   O     O_3   0.105670 0.050490 0.008320 -0.262182
N1    N     N_R   0.847884 0.775443 0.060551 0.230973
O21   O     O_R   0.886761 0.710625 0.007402 -0.372646
O22   O     O_R   0.690044 0.814312 0.059132 -0.364521
O23   O     O_3   0.664389 0.686819 0.132309 -0.689854
H20   H     H_    0.603193 0.739892 0.142743 0.345627
N2    N     N_R   0.424948 0.872437 0.775569 0.231191
O24   O     O_R   0.604217 0.853707 0.758364 -0.421924
O25   O     O_R   0.372361 0.946573 0.789021 -0.423550
N3    N     N_R   0.320867 0.247968 0.154807 0.226032
O26   O     O_R   0.169510 0.203060 0.152860 -0.407027
O27   O     O_R   0.311592 0.305721 0.126716 -0.396359
N4    N     N_R   0.570048 0.901085 0.283929 0.226858
O28   O     O_R   0.662927 0.904123 0.226387 -0.441074
O29   O     O_R   0.636251 0.942187 0.347363 -0.384528

loop_
_geom_bond_atom_site_label_1
_geom_bond_atom_site_label_2
_geom_bond_distance
_ccdc_geom_bond_type
C46   N3    1.430567 S    
C49   O16   1.300206 A    
C35   C36   1.410501 A    
N2    O24   1.301114 A    
C44   C45   1.408391 A    
C44   H18   1.082934 S    
C6    C7    1.422347 A    
C18   N4    1.438698 S    
C25   C52   1.490486 S    
C1    O6    1.299639 A    
N3    O27   1.300616 A    
O15   C51   1.296293 A    
C37   C42   1.406458 A    
C47   H19   1.083912 S    
C13   C14   1.407638 A    
C11   C12   1.403930 A    
C22   C23   1.395166 A    
O13   V3    1.998717 S    
C15   C20   1.418551 A    
C8    H2    1.083232 S    
C21   C22   1.427701 A    
O14   C50   1.296359 A    
C31   C36   1.414248 A    
C14   C17   1.397560 A    
C27   H9    1.084658 S    
C15   C16   1.409033 A    
C26   N1    1.435300 S    
V2    O10   2.159784 S    
O16   V4    2.006631 S    
C36   C37   1.413144 A    
C19   C20   1.419282 A    
O11   C50   1.299463 A    
O8    V2    1.996103 S    
O23   H20   0.989371 S    
C40   H13   1.084622 S    
N1    O22   1.301416 A    
C9    H3    1.083211 S    
O1    V2    2.000834 S    
C33   H11   1.084009 S    
O7    V1    2.152819 S    
O18   C51   1.302944 A    
C24   H7    1.080255 S    
O12   V3    2.002549 S    
C11   C16   1.403338 A    
N2    O25   1.301307 A    
C29   H10   1.084686 S    
O9    C4    1.300472 A    
N4    O29   1.301133 A    
C21   C26   1.424898 A    
C41   C42   1.408167 A    
C43   C48   1.403223 A    
N3    O26   1.299917 A    
O12   C49   1.298100 A    
O18   V4    2.000257 S    
O4    C2    1.299594 A    
C47   C48   1.404116 A    
C7    C51   1.492565 S    
O17   V4    1.707696 S    
C30   C33   1.403749 A    
C3    C12   1.482944 S    
C31   C32   1.410516 A    
C46   C47   1.403913 A    
C24   C25   1.401552 A    
C43   C44   1.401013 A    
O15   V3    2.002243 S    
C30   C31   1.413169 A    
C38   C39   1.399869 A    
C33   C34   1.399923 A    
C1    C41   1.486341 S    
C19   C24   1.406789 A    
C40   C41   1.410332 A    
C20   C21   1.424633 A    
V3    O20   1.704326 S    
O2    C1    1.296484 A    
C45   C46   1.418387 A    
C14   C15   1.410751 A    
C32   C39   1.404436 A    
C27   C28   1.410160 A    
N4    O28   1.300416 A    
N1    O21   1.300342 A    
O19   V4    1.996020 S    
C5    H1    1.083520 S    
C17   H6    1.084179 S    
O17   V3    2.152714 S    
O3    C4    1.296379 A    
C28   C29   1.408076 A    
O6    V2    1.996385 S    
C8    C9    1.399829 A    
C28   C50   1.485764 S    
O14   V3    2.000137 S    
O11   V4    1.996971 S    
O2    V1    2.000229 S    
C22   O23   1.373581 S    
C11   H4    1.084608 S    
C2    C48   1.485011 S    
C34   C35   1.404513 A    
C25   C26   1.417299 A    
O1    C2    1.295866 A    
O5    V1    1.998768 S    
O8    C3    1.298522 A    
C38   H15   1.083987 S    
C27   C32   1.403616 A    
C34   H12   1.083991 S    
C13   H5    1.084275 S    
C16   C23   1.394133 A    
C42   H14   1.084624 S    
C5    C10   1.403098 A    
C17   C18   1.403298 A    
O9    V2    2.000210 S    
O7    V2    1.709619 S    
C43   H17   1.083112 S    
O3    V1    2.002271 S    
V1    O10   1.704384 S    
O5    C3    1.296522 A    
C6    N2    1.436575 S    
C45   C49   1.492368 S    
C37   C38   1.403778 A    
O19   C52   1.296342 A    
C5    C6    1.407253 A    
C18   C19   1.422701 A    
C9    C10   1.404473 A    
C4    C10   1.486284 S    
V4    O20   2.159870 S    
C23   H8    1.084513 S    
C39   H16   1.084001 S    
O4    V1    2.002541 S    
C7    C8    1.406985 A    
C29   C30   1.406409 A    
C12   C13   1.405742 A    
O13   C52   1.301050 A    
C35   C40   1.403791 A    
