data_mof_unit_66412.cif
_audit_creation_date              2012-12-10T19:36:46-0500
_audit_creation_method            fapswitch 2.2
_symmetry_space_group_name_H-M    P1
_symmetry_Int_Tables_number       1
_space_group_crystal_system       triclinic
_cell_length_a                    11.717733
_cell_length_b                    15.79305
_cell_length_c                    16.98638
_cell_angle_alpha                 95.588045
_cell_angle_beta                  90.322163
_cell_angle_gamma                 92.266799
_cell_volume                      3125.94949999

loop_
_atom_site_label
_atom_site_type_symbol
_atom_type_description
_atom_site_fract_x
_atom_site_fract_y
_atom_site_fract_z
_atom_type_partial_charge
C1    C     C_R   0.497161 0.490206 0.348225 0.823802
C2    C     C_R   0.470060 0.109843 0.494070 0.266115
C3    C     C_R   0.593577 0.849253 0.560369 -0.337000
C4    C     C_R   0.406422 0.150747 0.439631 -0.337000
C5    C     C_R   0.584499 0.760342 0.561325 0.029357
C6    C     C_R   0.415500 0.239658 0.438675 0.029357
C7    C     C_R   0.283785 0.500263 0.499964 0.829934
C8    C     C_R   0.716215 0.499737 0.500035 0.829934
C9    C     C_1   0.162233 0.500643 0.499985 -0.169157
C10   C     C_1   0.837767 0.499357 0.500015 -0.169156
C11   C     C_1   0.059848 0.500325 0.499995 0.015999
C12   C     C_R   0.502840 0.509793 0.651775 0.823803
C13   C     C_1   0.940152 0.499675 0.500005 0.015999
C14   C     C_R   0.487478 0.486545 0.261676 -0.125584
C15   C     C_R   0.512524 0.513455 0.738324 -0.125584
C16   C     C_R   0.472363 0.561621 0.225494 -0.201027
C17   C     C_R   0.527648 0.438380 0.774506 -0.201027
C18   C     C_R   0.458438 0.559420 0.143773 0.429349
C19   C     C_R   0.541575 0.440582 0.856226 0.429351
C20   C     C_R   0.465476 0.480506 0.096699 0.261353
C21   C     C_R   0.534531 0.519495 0.903300 0.261354
C22   C     C_R   0.477158 0.405554 0.133026 -0.219560
C23   C     C_R   0.488176 0.408334 0.214924 -0.219035
C24   C     C_R   0.522840 0.594446 0.866974 -0.219559
C25   C     C_R   0.511820 0.591665 0.785076 -0.219035
C26   C     C_R   0.450615 0.749781 0.455923 0.046739
C27   C     C_R   0.549385 0.250219 0.544076 0.046740
C28   C     C_R   0.459031 0.838228 0.450770 0.314323
C29   C     C_R   0.540970 0.161772 0.549229 0.314324
C30   C     C_R   0.529939 0.890157 0.505930 0.266115
Cu1   Cu    Cu3+1 0.494550 0.415220 0.496180 0.954985
Cu2   Cu    Cu3+1 0.505450 0.584780 0.503820 0.954985
H1    H     H_    0.531817 0.377664 0.739162 0.186515
H2    H     H_    0.349544 0.113658 0.397901 0.180152
H3    H     H_    0.635219 0.729854 0.602991 0.146911
H4    H     H_    0.364780 0.270146 0.397009 0.146910
H5    H     H_    0.598699 0.378123 0.940334 0.343512
H6    H     H_    0.401317 0.621882 0.059667 0.343512
H7    H     H_    0.555941 0.079091 0.625304 0.351403
H8    H     H_    0.444059 0.920909 0.374696 0.351403
H9    H     H_    0.468200 0.622338 0.260838 0.186517
H10   H     H_    0.480754 0.344998 0.097403 0.175009
H11   H     H_    0.519239 0.655001 0.902597 0.175008
H12   H     H_    0.498311 0.349435 0.241497 0.176332
H13   H     H_    0.501678 0.650564 0.758503 0.176333
H14   H     H_    0.603273 0.289718 0.585930 0.156245
H15   H     H_    0.396728 0.710282 0.414069 0.156245
H16   H     H_    0.650456 0.886342 0.602099 0.180153
N1    N     N_2   0.464404 0.474754 0.013210 -0.244739
N2    N     N_2   0.535604 0.525247 0.986789 -0.244737
N3    N     N_R   0.513630 0.712130 0.509560 -0.204831
N4    N     N_R   0.486370 0.287870 0.490440 -0.204832
N5    N     N_2   0.544538 0.981083 0.506606 -0.220058
N6    N     N_2   0.455462 0.018917 0.493394 -0.220058
O1    O     O_R   0.494910 0.420530 0.382500 -0.582708
O2    O     O_3   0.436482 0.634823 0.112819 -0.711571
O3    O     O_3   0.598428 0.130515 0.610562 -0.714611
O4    O     O_3   0.401573 0.869484 0.389438 -0.714611
O5    O     O_R   0.505090 0.579470 0.617500 -0.582709
O6    O     O_R   0.504100 0.563720 0.388950 -0.592184
O7    O     O_R   0.495900 0.436280 0.611050 -0.592184
O8    O     O_R   0.332600 0.428410 0.496780 -0.570617
O9    O     O_R   0.667400 0.571590 0.503220 -0.570617
O10   O     O_R   0.341800 0.571600 0.503230 -0.575358
O11   O     O_R   0.658200 0.428400 0.496770 -0.575358
O12   O     O_3   0.563540 0.365180 0.887180 -0.711570

loop_
_geom_bond_atom_site_label_1
_geom_bond_atom_site_label_2
_ccdc_geom_bond_type
C14   C23   A    
C3    C30   A    
C2    C4    A    
Cu2   N3    S    
C20   N1    S    
C14   C16   A    
C28   O4    S    
C27   C29   A    
C11   C13   S    
Cu1   O7    S    
C26   C28   A    
Cu1   Cu2   S    
C12   C15   S    
C18   O2    S    
Cu1   N4    S    
C3    C5    A    
C6    N4    A    
H5    O12   S    
C28   C30   A    
C29   O3    S    
C1    O1    A    
C8    O11   A    
C7    O8    A    
N5    N6    D    
C27   N4    A    
C12   O7    A    
C9    C11   T    
Cu1   O8    S    
C22   H10   S    
C17   H1    S    
C26   H15   S    
C25   H13   S    
C2    C29   A    
C5    H3    S    
C27   H14   S    
C8    C10   S    
C21   N2    S    
C17   C19   A    
C6    H4    S    
C18   C20   A    
C1    O6    A    
C30   N5    S    
C4    H2    S    
C7    O10   A    
C15   C25   A    
C4    C6    A    
H8    O4    S    
Cu2   O6    S    
C8    O9    A    
H7    O3    S    
C7    C9    S    
C3    H16   S    
H6    O2    S    
C24   C25   A    
Cu2   O10   S    
C19   O12   S    
C16   C18   A    
N1    N2    D    
C2    N6    S    
C21   C24   A    
C15   C17   A    
C24   H11   S    
Cu1   O11   S    
C22   C23   A    
C5    N3    A    
C1    C14   S    
Cu2   O5    S    
Cu1   O1    S    
C26   N3    A    
C12   O5    A    
C16   H9    S    
C23   H12   S    
Cu2   O9    S    
C20   C22   A    
C19   C21   A    
C10   C13   T    
