data_mof_unit_59616.cif
_audit_creation_date              2012-10-26T19:10:24-0400
_audit_creation_method            fapswitch 2.2
_symmetry_space_group_name_H-M    P1
_symmetry_Int_Tables_number       1
_space_group_crystal_system       triclinic
_cell_length_a                    10.733468
_cell_length_b                    9.466242
_cell_length_c                    19.329851
_cell_angle_alpha                 89.841545
_cell_angle_beta                  91.50884
_cell_angle_gamma                 90.922125
_cell_volume                      1963.08058491

loop_
_atom_site_label
_atom_site_type_symbol
_atom_type_description
_atom_site_fract_x
_atom_site_fract_y
_atom_site_fract_z
_atom_type_partial_charge
C1    C     C_R   0.260120 0.499732 0.502556 0.599441
C2    C     C_3   0.070450 0.372983 0.548070 0.147164
C3    C     C_3   0.929944 0.646726 0.534810 -0.209849
C4    C     C_3   0.927807 0.384979 0.554141 -0.215160
C5    C     C_3   0.067832 0.482750 0.430406 -0.329863
C6    C     C_3   0.122297 0.501246 0.505269 0.069129
C7    C     C_3   0.877671 0.503758 0.505837 -0.013051
C8    C     C_R   0.501693 0.500017 0.367762 0.548928
C9    C     C_3   0.924024 0.481176 0.431237 -0.273549
C10   C     C_3   0.513979 0.083519 0.572823 -0.152964
C11   C     C_3   0.507500 0.916168 0.573052 -0.155358
C12   C     C_R   0.509959 0.503892 0.070591 0.377511
C13   C     C_3   0.380031 0.082088 0.472158 0.178392
C14   C     C_3   0.383937 0.914113 0.468147 0.182325
C15   C     C_3   0.604925 0.084447 0.461769 -0.107354
C16   C     C_3   0.610214 0.918199 0.466512 -0.097062
C17   C     C_R   0.739764 0.501156 0.503543 0.548400
C18   C     C_R   0.500063 0.499889 0.632517 0.547231
C19   C     C_R   0.574517 0.603544 0.257678 -0.157616
C20   C     C_R   0.440708 0.395696 0.254161 -0.146546
C21   C     C_R   0.573612 0.608652 0.185328 0.101842
C22   C     C_R   0.440316 0.396770 0.181847 0.106569
C23   C     C_R   0.485014 0.626903 0.816722 -0.125777
C24   C     C_R   0.507339 0.503838 0.146757 0.080667
C25   C     C_R   0.505940 0.499609 0.292146 -0.042788
C26   C     C_R   0.507159 0.502266 0.930333 0.331496
C27   C     C_3   0.211741 0.135406 0.385710 -0.331950
C28   C     C_3   0.407477 0.888520 0.334715 -0.284086
C29   C     C_3   0.584344 0.852897 0.150899 -0.284653
C30   C     C_3   0.248078 0.337354 0.120791 -0.293104
C31   C     C_3   0.139485 0.650057 0.648755 0.033287
C32   C     C_3   0.152989 0.758623 0.706414 -0.406195
C33   C     C_3   0.123237 0.221844 0.639571 -0.021246
C34   C     C_R   0.521887 0.374973 0.817819 -0.126151
C35   C     C_3   0.187266 0.216079 0.710545 -0.373073
C36   C     C_R   0.483306 0.626251 0.744659 -0.146754
C37   C     C_R   0.520256 0.374401 0.745719 -0.149286
C38   C     C_R   0.500918 0.500020 0.708544 0.011342
C39   C     C_R   0.504640 0.501332 0.854055 0.036367
C40   C     C_3   0.073090 0.649588 0.529605 0.159307
Cu1   Cu    Cu3+1 0.499860 0.642410 0.500030 0.913919
Cu2   Cu    Cu3+1 0.499860 0.357590 0.500030 0.909688
H1    H     H_    0.627679 0.682343 0.287035 0.111285
H2    H     H_    0.305732 0.879487 0.501379 0.124639
H3    H     H_    0.599441 0.118918 0.406975 0.104087
H4    H     H_    0.622811 0.868645 0.415545 0.126898
H5    H     H_    0.695261 0.127494 0.482344 0.112106
H6    H     H_    0.696769 0.890196 0.496065 0.094936
H7    H     H_    0.470988 0.725957 0.843063 0.132432
H8    H     H_    0.537169 0.276408 0.845056 0.133563
H9    H     H_    0.467927 0.724683 0.717310 0.111207
H10   H     H_    0.534631 0.275620 0.719167 0.108297
H11   H     H_    0.090304 0.722265 0.485273 0.121423
H12   H     H_    0.386192 0.316129 0.280497 0.113262
H13   H     H_    0.087610 0.276519 0.517307 0.099668
H14   H     H_    0.900053 0.662264 0.588784 0.118904
H15   H     H_    0.902927 0.407124 0.608540 0.124593
H16   H     H_    0.891405 0.736577 0.504201 0.096966
H17   H     H_    0.884246 0.281094 0.540162 0.090517
H18   H     H_    0.101022 0.569302 0.396016 0.098941
H19   H     H_    0.099716 0.384140 0.406943 0.120579
H20   H     H_    0.403880 0.150801 0.368146 0.252198
H21   H     H_    0.191763 0.209830 0.342530 0.126190
H22   H     H_    0.149958 0.157029 0.428942 0.117867
H23   H     H_    0.887754 0.565750 0.396393 0.119970
H24   H     H_    0.188130 0.027519 0.367637 0.130503
H25   H     H_    0.268425 0.798547 0.396001 0.223594
H26   H     H_    0.341323 0.951792 0.303107 0.108621
H27   H     H_    0.422131 0.792181 0.304296 0.160353
H28   H     H_    0.496129 0.947804 0.339923 0.110332
H29   H     H_    0.734474 0.723526 0.169842 0.243322
H30   H     H_    0.580515 0.895872 0.204245 0.107547
H31   H     H_    0.488275 0.844272 0.128285 0.176589
H32   H     H_    0.638945 0.927638 0.118795 0.161886
H33   H     H_    0.365180 0.195517 0.170063 0.239415
H34   H     H_    0.887809 0.378258 0.410688 0.126711
H35   H     H_    0.189126 0.361567 0.165549 0.124843
H36   H     H_    0.201921 0.251896 0.089805 0.148790
H37   H     H_    0.256423 0.432543 0.087404 0.167626
H38   H     H_    0.222849 0.582298 0.652097 0.203650
H39   H     H_    0.053469 0.586946 0.657832 0.161969
H40   H     H_    0.071089 0.828921 0.705451 0.145452
H41   H     H_    0.159149 0.704164 0.757324 0.111080
H42   H     H_    0.238926 0.823668 0.699696 0.142872
H43   H     H_    0.171330 0.147360 0.605190 0.122687
H44   H     H_    0.024401 0.187056 0.644839 0.123057
H45   H     H_    0.439391 0.123577 0.606120 0.113838
H46   H     H_    0.142226 0.289977 0.746363 0.157146
H47   H     H_    0.180526 0.107192 0.731787 0.093615
H48   H     H_    0.287063 0.246256 0.706299 0.159585
H49   H     H_    0.425320 0.880185 0.602724 0.118953
H50   H     H_    0.604019 0.120025 0.597046 0.116364
H51   H     H_    0.590820 0.875119 0.601555 0.121986
H52   H     H_    0.306494 0.107382 0.509687 0.104614
N1    N     N_R   0.523113 0.381325 0.035529 -0.196551
N2    N     N_2   0.369693 0.291636 0.144844 -0.500316
N3    N     N_R   0.495701 0.625615 0.034338 -0.215305
N4    N     N_R   0.521862 0.380554 0.966717 -0.239901
N5    N     N_R   0.494416 0.624855 0.965532 -0.241282
N6    N     N_3   0.500250 0.143650 0.501520 -0.225878
N7    N     N_3   0.500250 0.856350 0.501520 -0.217712
N8    N     N_2   0.341768 0.149894 0.407541 -0.452048
N9    N     N_2   0.354097 0.849192 0.400559 -0.458894
N10   N     N_2   0.643343 0.716463 0.151698 -0.499863
O1    O     O_R   0.317570 0.620260 0.500040 -0.489002
O2    O     O_3   0.131020 0.361607 0.613826 -0.592757
O3    O     O_R   0.317570 0.379740 0.500040 -0.473448
O4    O     O_R   0.499870 0.620300 0.400170 -0.479728
O5    O     O_R   0.499870 0.379700 0.400170 -0.495796
O6    O     O_R   0.682190 0.620260 0.500020 -0.519405
O7    O     O_R   0.682190 0.379740 0.500020 -0.518356
O8    O     O_R   0.499890 0.620220 0.599880 -0.513967
O9    O     O_R   0.499890 0.379780 0.599880 -0.510535
O10   O     O_3   0.137817 0.721380 0.584738 -0.586356

loop_
_geom_bond_atom_site_label_1
_geom_bond_atom_site_label_2
_ccdc_geom_bond_type
H29   N10   S    
Cu1   O4    S    
C34   C37   A    
Cu1   Cu2   S    
C28   H27   S    
C15   H5    S    
C15   N6    S    
C33   H44   S    
C17   O6    A    
C16   H6    S    
N1    N4    A    
H25   N9    S    
C31   H38   S    
Cu1   O1    S    
C28   H26   S    
Cu2   O5    S    
C18   O8    A    
C3    C7    S    
C2    H13   S    
C5    C6    S    
C26   C39   S    
C23   H7    S    
C29   H31   S    
C20   C25   A    
C15   C16   S    
C17   O7    A    
C35   H46   S    
C33   H43   S    
C30   N2    S    
C30   H35   S    
C40   O10   S    
C7    C17   S    
Cu1   O8    S    
C4    H15   S    
C12   N1    A    
C9    H34   S    
Cu2   O3    S    
C31   O10   S    
C26   N5    A    
C29   H30   S    
C11   H51   S    
C10   H50   S    
C13   C14   S    
C8    C25   S    
C21   N10   S    
C2    C6    S    
C4    C7    S    
C8    O4    A    
C18   O9    A    
N3    N5    A    
C19   H1    S    
H33   N2    S    
C32   H42   S    
C10   H45   S    
C34   H8    S    
C1    C6    S    
C20   H12   S    
C27   H22   S    
C16   H4    S    
C37   H10   S    
C14   N7    S    
C29   H32   S    
C2    O2    S    
C34   C39   A    
C29   N10   S    
C2    C4    S    
Cu2   O7    S    
C35   H48   S    
C5    C9    S    
C37   C38   A    
Cu2   N6    S    
C3    H14   S    
Cu2   O9    S    
C31   C32   S    
C5    H19   S    
C11   N7    S    
C10   N6    S    
C12   N3    A    
C36   H9    S    
C27   H21   S    
C26   N4    A    
C30   H37   S    
C35   H47   S    
C20   C22   A    
C3    C40   S    
C23   C36   A    
Cu1   O6    S    
C1    O3    A    
C6    C40   S    
C15   H3    S    
C14   H2    S    
C7    C9    S    
C32   H41   S    
C5    H18   S    
C19   C21   A    
C22   N2    S    
C28   H28   S    
C33   O2    S    
C32   H40   S    
C12   C24   S    
C27   N8    S    
C31   H39   S    
C13   H52   S    
C13   N6    S    
C36   C38   A    
C18   C38   S    
C27   H24   S    
C8    O5    A    
C28   N9    S    
C14   N9    S    
C23   C39   A    
C4    H17   S    
C33   C35   S    
Cu1   N7    S    
C22   C24   A    
C19   C25   A    
C9    H23   S    
C10   C11   S    
C30   H36   S    
C3    H16   S    
C11   H49   S    
C16   N7    S    
C40   H11   S    
C21   C24   A    
C13   N8    S    
C1    O1    A    
H20   N8    S    
