data_mof_unit_17452.cif
_audit_creation_date              2012-12-11T16:34:31-0500
_audit_creation_method            fapswitch 2.2
_symmetry_space_group_name_H-M    P1
_symmetry_Int_Tables_number       1
_space_group_crystal_system       triclinic
_cell_length_a                    8.261988
_cell_length_b                    17.322015
_cell_length_c                    27.028565
_cell_angle_alpha                 95.263394
_cell_angle_beta                  92.566047
_cell_angle_gamma                 84.058653
_cell_volume                      3828.7420322

loop_
_atom_site_label
_atom_site_type_symbol
_atom_type_description
_atom_site_fract_x
_atom_site_fract_y
_atom_site_fract_z
_atom_type_partial_charge
Ba1   Ba    Ba6+2 0.856110 0.463800 0.523550 1.671581
Ba2   Ba    Ba6+2 0.333710 0.536130 0.476450 1.661644
C1    C     C_3   0.716381 0.174935 0.655324 -0.367513
C2    C     C_R   0.958845 0.584378 0.182205 0.591237
C3    C     C_2   0.771732 0.564245 0.273413 -0.097357
C4    C     C_3   0.130498 0.296060 0.658566 0.333145
C5    C     C_3   0.745114 0.584204 0.328307 -0.069647
C6    C     C_1   0.983399 0.490837 0.343985 0.034629
C7    C     C_2   0.022421 0.484505 0.296359 -0.090419
C8    C     C_2   0.910491 0.521904 0.258005 0.215605
C9    C     C_R   0.028263 0.508332 0.104023 -0.080228
C10   C     C_R   0.028400 0.439931 0.128599 -0.034374
C11   C     C_R   0.065543 0.367779 0.101613 -0.060515
C12   C     C_3   0.670973 0.255202 0.637301 0.349127
C13   C     C_R   0.992689 0.580953 0.131158 -0.028403
C14   C     C_2   0.853547 0.534205 0.361455 -0.274346
C15   C     C_2   0.355476 0.487510 0.643044 -0.229012
C16   C     C_3   0.115048 0.272307 0.710774 -0.309834
C17   C     C_R   0.149701 0.426959 0.974971 0.020111
C18   C     C_R   0.085567 0.569213 0.975587 0.020230
C19   C     C_R   0.135373 0.496064 0.949724 0.049370
C20   C     C_R   0.208307 0.356315 0.948187 -0.102134
C21   C     C_R   0.246981 0.353361 0.898376 -0.061495
C22   C     C_R   0.228421 0.420523 0.872606 -0.025403
C23   C     C_3   0.456433 0.764821 0.625475 0.512572
C24   C     C_R   0.171808 0.491981 0.898088 -0.080403
C25   C     C_R   0.152625 0.559370 0.872019 -0.032106
C26   C     C_R   0.188947 0.554336 0.820902 0.593423
C27   C     C_R   0.266568 0.417309 0.821891 0.576335
C28   C     C_3   0.204347 0.299873 0.416951 0.322821
C29   C     C_2   0.426657 0.442292 0.726921 -0.090594
C30   C     C_3   0.448795 0.425940 0.671653 -0.061199
C31   C     C_1   0.210061 0.516230 0.658075 0.023196
C32   C     C_2   0.165380 0.514136 0.704903 -0.124065
C33   C     C_2   0.283300 0.479089 0.743252 0.198198
C34   C     C_3   0.569563 0.823982 0.648547 -0.404968
C35   C     C_R   0.106802 0.430660 0.025933 0.020305
C36   C     C_R   0.064144 0.504190 0.052351 0.049966
C37   C     C_R   0.057150 0.573669 0.027682 0.019930
C38   C     C_R   0.104082 0.363116 0.051637 -0.099879
C39   C     C_R   0.992530 0.649007 0.106844 -0.061963
C40   C     C_3   0.211655 0.211510 0.405761 -0.058681
C41   C     C_R   0.065077 0.635547 0.948071 -0.101048
C42   C     C_R   0.097612 0.630587 0.897619 -0.062779
C43   C     C_R   0.023358 0.645595 0.056402 -0.101911
C44   C     C_R   0.411775 0.279525 0.521568 -0.302515
C45   C     C_3   0.986480 0.726349 0.344032 0.345007
C46   C     C_R   0.551818 0.254906 0.495340 0.059212
C47   C     C_R   0.608023 0.175606 0.489743 -0.128323
C48   C     C_R   0.521409 0.120726 0.509486 -0.010155
C49   C     C_R   0.375340 0.145654 0.533779 -0.129979
C50   C     C_R   0.319704 0.225320 0.539026 0.015197
C51   C     C_R   0.592008 0.835890 0.512055 -0.136490
C52   C     C_3   0.987401 0.700255 0.582473 0.330030
C53   C     C_R   0.645591 0.756339 0.508691 -0.002626
C54   C     C_R   0.877737 0.779774 0.462891 0.013469
C55   C     C_R   0.826634 0.860073 0.466628 -0.107755
C56   C     C_3   0.931413 0.777215 0.302288 -0.345238
C57   C     C_R   0.681666 0.888124 0.490816 0.023280
C58   C     C_1   0.627508 0.970442 0.496591 -0.007516
C59   C     C_1   0.579028 0.038887 0.502441 -0.011378
C60   C     C_R   0.782686 0.728418 0.481866 -0.265121
C61   C     C_3   0.978710 0.788140 0.594793 -0.404776
C62   C     C_3   0.680394 0.372357 0.375759 0.287322
C63   C     C_3   0.685336 0.353722 0.319725 -0.359106
C64   C     C_3   0.050309 0.101840 0.408464 -0.216694
C65   C     C_3   0.412675 0.697877 0.700752 -0.150026
C66   C     C_3   0.458985 0.959022 0.350777 -0.248781
C67   C     C_3   0.475334 0.743032 0.359667 0.350526
C68   C     C_3   0.429825 0.819766 0.336469 -0.054584
C69   C     C_R   0.989378 0.445002 0.179492 0.593438
H1    H     H_    0.713437 0.254313 0.598776 0.070386
H2    H     H_    0.586773 0.422041 0.383799 0.088928
H3    H     H_    0.849564 0.158870 0.653276 0.146632
H4    H     H_    0.783972 0.306662 0.310544 0.127562
H5    H     H_    0.708362 0.406168 0.301567 0.081342
H6    H     H_    0.566866 0.334572 0.305050 0.131679
H7    H     H_    0.535906 0.266439 0.637106 -0.058889
H8    H     H_    0.652714 0.131023 0.631452 0.071964
H9    H     H_    0.380369 0.793562 0.596125 -0.016924
H10   H     H_    0.638198 0.845011 0.619000 0.071344
H11   H     H_    0.497687 0.875013 0.667573 0.083306
H12   H     H_    0.259560 0.194462 0.368080 0.091586
H13   H     H_    0.657893 0.797146 0.675725 0.129233
H14   H     H_    0.679628 0.174457 0.694310 0.120873
H15   H     H_    0.103046 0.325187 0.737191 0.123157
H16   H     H_    0.049652 0.670398 0.328154 0.077535
H17   H     H_    0.875609 0.714220 0.362271 -0.070664
H18   H     H_    0.036158 0.784272 0.279326 0.135802
H19   H     H_    0.836224 0.749971 0.278466 0.125341
H20   H     H_    0.878792 0.835426 0.318055 0.102651
H21   H     H_    0.609233 0.737429 0.366311 -0.069586
H22   H     H_    0.417442 0.745266 0.396056 0.096710
H23   H     H_    0.297056 0.183536 0.433112 0.034891
H24   H     H_    0.297832 0.826242 0.326126 0.127873
H25   H     H_    0.042982 0.348235 0.653703 0.093300
H26   H     H_    0.499620 0.818860 0.302115 0.086150
H27   H     H_    0.137291 0.453213 0.284945 0.114620
H28   H     H_    0.065080 0.314009 0.119149 0.120047
H29   H     H_    0.517860 0.417411 0.752652 0.116059
H30   H     H_    0.291751 0.297509 0.879976 0.120070
H31   H     H_    0.229325 0.301934 0.964903 0.068095
H32   H     H_    0.128045 0.305054 0.033925 0.067842
H33   H     H_    0.688239 0.592141 0.246762 0.100720
H34   H     H_    0.863086 0.682921 0.576611 0.004584
H35   H     H_    0.967550 0.705858 0.126823 0.117653
H36   H     H_    0.020732 0.692528 0.964202 0.067603
H37   H     H_    0.256471 0.310837 0.654717 -0.056399
H38   H     H_    0.079613 0.683430 0.878645 0.118869
H39   H     H_    0.045866 0.540082 0.716032 0.128116
H40   H     H_    0.023000 0.700982 0.041270 0.067487
H41   H     H_    0.837094 0.545138 0.401173 0.081849
H42   H     H_    0.417174 0.516480 0.616399 0.080265
H43   H     H_    0.483495 0.857352 0.532049 0.056409
H44   H     H_    0.303798 0.103556 0.547347 0.075736
H45   H     H_    0.057868 0.684464 0.548344 0.053565
H46   H     H_    0.900135 0.900148 0.451724 0.067318
H47   H     H_    0.716206 0.156644 0.468972 0.090849
H48   H     H_    0.367734 0.340741 0.525126 0.073630
H49   H     H_    0.004951 0.241431 0.713103 0.141864
H50   H     H_    0.822630 0.666720 0.478996 0.055069
H51   H     H_    0.223947 0.233382 0.721400 0.122131
H52   H     H_    0.329902 0.316448 0.421701 -0.026331
H53   H     H_    0.138057 0.316980 0.451795 0.059539
H54   H     H_    0.965634 0.209717 0.384370 0.228571
H55   H     H_    0.924023 0.087543 0.412640 0.100018
H56   H     H_    0.931412 0.804186 0.632536 0.128566
H57   H     H_    0.127147 0.079768 0.439959 0.119254
H58   H     H_    0.096049 0.072450 0.372799 0.092290
H59   H     H_    0.266562 0.792640 0.675127 0.169697
H60   H     H_    0.311625 0.682323 0.722419 0.141433
H61   H     H_    0.496245 0.729903 0.726435 0.087457
H62   H     H_    0.478042 0.642819 0.684468 0.121181
H63   H     H_    0.409808 0.887295 0.404451 0.211914
H64   H     H_    0.495609 0.004068 0.379878 0.112820
H65   H     H_    0.332308 0.976102 0.337442 0.104867
H66   H     H_    0.542843 0.956197 0.319516 0.120763
H67   H     H_    0.897895 0.818884 0.567719 0.061196
H68   H     H_    0.101095 0.808269 0.593526 0.106439
H69   H     H_    0.800644 0.388483 0.389989 0.009814
N1    N     N_R   0.953839 0.516819 0.205789 -0.422241
N2    N     N_R   0.245007 0.483658 0.796044 -0.420336
N3    N     N_2   0.051600 0.185288 0.408743 -0.396725
N4    N     N_2   0.346198 0.746104 0.662153 -0.407963
N5    N     N_2   0.468726 0.884503 0.371362 -0.442302
O1    O     O_2   0.910880 0.540430 0.617910 -0.447466
O2    O     O_2   0.215583 0.774148 0.466924 -0.500218
O3    O     O_3   0.094429 0.765161 0.376712 -0.606592
O4    O     O_3   0.142880 0.540370 0.557740 -0.482557
O5    O     O_3   0.562610 0.408580 0.475460 -0.488850
O6    O     O_2   0.365880 0.685750 0.523280 -0.453651
O7    O     O_3   0.550176 0.696219 0.607025 -0.624472
O8    O     O_2   0.433017 0.527699 0.322548 -0.484157
O9    O     O_3   0.422628 0.680495 0.328042 -0.598193
O10   O     O_2   0.985215 0.385398 0.200141 -0.599128
O11   O     O_2   0.318601 0.354922 0.800751 -0.621596
O12   O     O_3   0.642940 0.306357 0.397386 -0.643350
O13   O     O_2   0.935110 0.647839 0.205802 -0.621634
O14   O     O_2   0.173228 0.613310 0.798858 -0.614090
O15   O     O_3   0.675650 0.402220 0.588450 -0.474740
O16   O     O_2   0.778234 0.461869 0.677633 -0.490126
O17   O     O_3   0.061587 0.664333 0.622858 -0.612169
O18   O     O_3   0.745659 0.311575 0.668820 -0.602603
O19   O     O_2   0.823810 0.314230 0.476690 -0.445346
O20   O     O_3   0.086630 0.363340 0.564170 -0.500293
O21   O     O_2   0.983129 0.225223 0.532273 -0.470153
O22   O     O_3   0.095284 0.234238 0.623852 -0.606998
O23   O     O_2   0.278810 0.459550 0.382060 -0.458684
O24   O     O_3   0.046820 0.459570 0.442260 -0.492896
O25   O     O_3   0.514050 0.597710 0.411540 -0.477536
O26   O     O_3   0.127011 0.335614 0.376717 -0.643523
O27   O     O_3   0.627090 0.591350 0.524530 -0.444979
O28   O     O_3   0.103080 0.636600 0.435820 -0.477109
P1    P     P_3+3 0.078810 0.562990 0.610370 1.025935
P2    P     P_3+3 0.645380 0.325580 0.462150 0.987357
P3    P     P_3+3 0.120549 0.261536 0.564194 0.948154
P4    P     P_3+3 0.110900 0.436950 0.389630 0.992155
P5    P     P_3+3 0.073329 0.738953 0.436789 0.945000
P6    P     P_3+3 0.663565 0.403376 0.652693 0.959687
P7    P     P_3+3 0.547947 0.687137 0.541863 0.963847
P8    P     P_3+3 0.528035 0.594598 0.346894 0.955252

loop_
_geom_bond_atom_site_label_1
_geom_bond_atom_site_label_2
_ccdc_geom_bond_type
Ba2   O5    S    
C19   C24   A    
O9    P8    S    
C11   H28   S    
C7    H27   S    
Ba2   O23   S    
C1    H14   S    
C23   H9    S    
C53   P7    S    
C5    C14   S    
C65   H61   S    
C1    H8    S    
C51   C57   A    
C15   H42   S    
C54   P5    S    
O20   P3    S    
C24   C25   A    
C16   H15   S    
C63   H5    S    
C23   O7    S    
C17   C19   A    
C22   C24   A    
C32   C33   S    
C35   C38   A    
C67   H22   S    
Ba2   O28   S    
C36   C37   A    
C55   C57   A    
C52   C61   S    
C21   H30   S    
O23   P4    D    
C53   C60   A    
C44   C50   A    
C54   C55   A    
O19   P2    D    
O4    P1    S    
C12   O18   S    
C1    H3    S    
C22   C27   A    
C11   C38   A    
C17   C35   A    
C45   O3    S    
C9    C13   A    
C25   C42   A    
C2    O13   D    
C29   C30   S    
Ba1   O19   S    
C34   H11   S    
C6    C7    D    
C52   H45   S    
C62   O12   S    
O1    P1    D    
C21   C22   A    
C30   P6    S    
Ba1   O4    S    
Ba2   P4    S    
O16   P6    D    
C67   H21   S    
H59   N4    S    
C56   H20   S    
C50   P3    S    
C68   H26   S    
C37   C43   A    
C64   H58   S    
C42   H38   S    
O27   P7    S    
Ba2   O4    S    
O5    P2    S    
C3    H33   S    
C57   C58   S    
C6    C14   D    
Ba1   O1    S    
C15   C31   D    
C65   N4    S    
C6    P4    S    
C7    C8    S    
O24   P4    S    
C31   C32   D    
C51   C53   A    
C4    C16   S    
C44   C46   A    
Ba1   P1    S    
C63   H6    S    
C39   H35   S    
C5    P8    S    
C49   C50   A    
C66   H65   S    
C17   C20   A    
C13   C39   A    
C2    N1    Am   
C3    C5    S    
C18   C37   A    
C64   N3    S    
C23   C34   S    
C26   O14   D    
C49   H44   S    
C64   H55   S    
C58   C59   T    
C8    N1    S    
C45   H16   S    
O7    P7    S    
C9    C36   A    
C41   C42   A    
O15   P6    S    
C35   C36   A    
C47   H47   S    
Ba1   O20   S    
C34   H10   S    
C62   H2    S    
C69   O10   D    
Ba2   O24   S    
C48   C49   A    
Ba1   O5    S    
C68   N5    S    
C41   H36   S    
C29   H29   S    
C18   C19   A    
O26   P4    S    
C31   P1    S    
C56   H19   S    
C1    C12   S    
O12   P2    S    
C27   O11   D    
C46   C47   A    
C10   C69   A    
C16   H51   S    
C4    H25   S    
O25   P8    S    
O18   P6    S    
C32   H39   S    
C61   H67   S    
C54   C60   A    
C23   N4    S    
C26   N2    Am   
C16   H49   S    
C28   H52   S    
C40   N3    S    
C18   C41   A    
C51   H43   S    
C14   H41   S    
C55   H46   S    
C62   H69   S    
Ba2   O6    S    
C15   C30   S    
H63   N5    S    
C4    O22   S    
Ba1   P2    S    
O3    P5    S    
C52   H34   S    
C65   H62   S    
C40   H23   S    
C12   H1    S    
C66   H64   S    
C65   H60   S    
C40   H12   S    
C34   H13   S    
C28   H53   S    
C63   H4    S    
C66   H66   S    
C9    C10   A    
C43   H40   S    
O17   P1    S    
C61   H68   S    
C52   O17   S    
Ba1   O27   S    
O21   P3    D    
C67   O9    S    
C20   H31   S    
C69   N1    Am   
C62   C63   S    
C46   P2    S    
C2    C13   A    
C68   H24   S    
C3    C8    D    
Ba2   O25   S    
C39   C43   A    
C45   H17   S    
C38   H32   S    
O2    P5    D    
O6    P7    D    
Ba1   O15   S    
O28   P5    S    
H54   N3    S    
C27   N2    Am   
Ba1   Ba2   S    
Ba1   O24   S    
C64   H57   S    
C44   H48   S    
C29   C33   D    
C12   H7    S    
C67   C68   S    
C56   H18   S    
O8    P8    D    
C28   O26   S    
C33   N2    S    
C10   C11   A    
C47   C48   A    
C25   C26   A    
C48   C59   S    
C4    H37   S    
C20   C21   A    
C28   C40   S    
C60   H50   S    
C61   H56   S    
C66   N5    S    
Ba2   O27   S    
O22   P3    S    
C45   C56   S    
