data_mof_unit_38876.cif
_audit_creation_date              2012-12-10T18:13:46-0500
_audit_creation_method            fapswitch 2.2
_symmetry_space_group_name_H-M    P1
_symmetry_Int_Tables_number       1
_space_group_crystal_system       triclinic
_cell_length_a                    10.767316
_cell_length_b                    9.477646
_cell_length_c                    23.514518
_cell_angle_alpha                 89.839317
_cell_angle_beta                  90.439712
_cell_angle_gamma                 90.327591
_cell_volume                      2399.50953623

loop_
_atom_site_label
_atom_site_type_symbol
_atom_type_description
_atom_site_fract_x
_atom_site_fract_y
_atom_site_fract_z
_atom_type_partial_charge
C1    C     C_R   0.259983 0.499732 0.498159 0.850147
C2    C     C_R   0.353222 0.667033 0.967900 -0.132676
C3    C     C_R   0.347539 0.663094 0.026995 -0.144784
C4    C     C_R   0.429675 0.578168 0.058313 -0.018267
C5    C     C_R   0.519367 0.497613 0.029643 -0.008402
C6    C     C_R   0.601794 0.412576 0.060967 -0.036954
C7    C     C_R   0.693026 0.335879 0.032516 -0.181996
C8    C     C_R   0.703961 0.342260 0.973224 -0.029910
C9    C     C_R   0.425021 0.572429 0.117880 0.551817
C10   C     C_R   0.593341 0.409610 0.120546 0.558619
C11   C     C_R   0.554959 0.609902 0.236800 -0.132983
C12   C     C_R   0.504478 0.500151 0.391007 0.861069
C13   C     C_R   0.561647 0.613317 0.296260 -0.038406
C14   C     C_R   0.511060 0.499155 0.328116 -0.114210
C15   C     C_R   0.463799 0.380794 0.298860 -0.219347
C16   C     C_R   0.461213 0.377594 0.239622 -0.080325
C17   C     C_R   0.505562 0.492780 0.208535 0.318399
C18   C     C_R   0.428630 0.406848 0.763874 -0.055692
C19   C     C_R   0.421689 0.404301 0.703611 -0.086727
C20   C     C_R   0.501020 0.494779 0.671624 -0.096725
C21   C     C_R   0.592607 0.573831 0.699702 -0.237951
C22   C     C_R   0.601723 0.572825 0.758582 -0.082427
C23   C     C_R   0.739674 0.500168 0.497885 0.816735
C24   C     C_R   0.519414 0.492213 0.790848 0.267353
C25   C     C_3   0.071190 0.525410 0.558139 -0.192477
C26   C     C_3   0.069528 0.351823 0.476570 -0.158207
C27   C     C_3   0.927608 0.526470 0.557503 -0.414214
C28   C     C_3   0.926214 0.355909 0.474795 -0.398980
C29   C     C_3   0.070681 0.615984 0.455890 -0.357541
C30   C     C_3   0.121636 0.499307 0.496598 -0.024210
C31   C     C_3   0.877539 0.499815 0.496740 0.072499
C32   C     C_3   0.927547 0.616975 0.456653 -0.343920
C33   C     C_3   0.618136 0.084505 0.526234 -0.091539
C34   C     C_3   0.614829 0.916800 0.529155 -0.082082
C35   C     C_3   0.393222 0.081867 0.532962 -0.167417
C36   C     C_3   0.388744 0.915725 0.529627 -0.166596
C37   C     C_3   0.490457 0.083912 0.442713 -0.231171
C38   C     C_3   0.496893 0.917219 0.442659 -0.225902
C39   C     C_R   0.498874 0.499012 0.608939 0.884690
C40   C     C_R   0.610580 0.419167 0.880473 0.618109
C41   C     C_R   0.444580 0.585539 0.879407 0.563633
C42   C     C_R   0.441121 0.586079 0.938829 -0.005634
C43   C     C_R   0.525982 0.501815 0.969654 -0.011029
C44   C     C_R   0.616240 0.421367 0.940685 -0.089345
Cu1   Cu    Cu3+1 0.499860 0.642410 0.500030 0.965864
Cu2   Cu    Cu3+1 0.499860 0.357590 0.500030 0.959394
H1    H     H_    0.278201 0.726345 0.048003 0.195913
N1    N     N_R   0.526377 0.500809 0.851726 -0.464405
N2    N     N_R   0.506323 0.489297 0.147612 -0.468300
N3    N     N_3   0.500250 0.143650 0.501250 -0.177405
N4    N     N_3   0.500250 0.856350 0.501250 -0.183297
O1    O     O_R   0.317570 0.620260 0.500030 -0.600796
O2    O     O_R   0.317570 0.379740 0.500030 -0.579858
O3    O     O_R   0.499840 0.620290 0.417900 -0.577504
O4    O     O_R   0.499840 0.379710 0.417900 -0.595568
O5    O     O_R   0.682190 0.620260 0.500010 -0.581983
O6    O     O_R   0.682190 0.379740 0.500010 -0.598735
O7    O     O_R   0.499920 0.620230 0.582140 -0.566172
O8    O     O_R   0.499920 0.379770 0.582140 -0.565856
O9    O     O_2   0.683933 0.332185 0.850589 -0.480449
O10   O     O_2   0.365137 0.666821 0.849276 -0.503105
O11   O     O_2   0.340181 0.649372 0.145950 -0.516017
O12   O     O_2   0.672611 0.329550 0.151284 -0.516066
H2    H     H_    0.287607 0.732771 0.945051 0.199337
C45   C     C_2   0.337243 0.301581 0.674944 0.937919
O13   O     O_2   0.275971 0.337190 0.633571 -0.616104
O14   O     O_R   0.329039 0.162870 0.695130 -0.716088
H3    H     H_    0.268936 0.102852 0.672086 0.341060
H4    H     H_    0.660558 0.632908 0.675786 0.188493
H5    H     H_    0.672620 0.636072 0.779420 0.166362
C46   C     C_2   0.123965 0.655683 0.587298 0.882489
O15   O     O_2   0.095820 0.773892 0.570867 -0.603937
O16   O     O_R   0.204337 0.639627 0.633796 -0.726712
H6    H     H_    0.234393 0.733278 0.649626 0.345657
C47   C     C_2   0.119107 0.295962 0.420608 0.845776
O17   O     O_2   0.091746 0.175834 0.406081 -0.598629
O18   O     O_R   0.195659 0.378185 0.385900 -0.787090
H7    H     H_    0.217313 0.328666 0.349202 0.332503
H8    H     H_    0.098815 0.433952 0.584706 0.195332
H9    H     H_    0.096941 0.272445 0.509354 0.138075
H10   H     H_    0.892020 0.443835 0.586963 0.206054
H11   H     H_    0.890685 0.267401 0.501118 0.220376
H12   H     H_    0.891737 0.628436 0.573223 0.237328
H13   H     H_    0.889739 0.338527 0.430866 0.173764
H14   H     H_    0.106359 0.721817 0.468122 0.210741
H15   H     H_    0.102608 0.599699 0.411708 0.214153
H16   H     H_    0.895251 0.722522 0.470747 0.212853
H17   H     H_    0.891687 0.599491 0.412783 0.209311
C48   C     C_2   0.659774 0.153117 0.582114 0.910969
O19   O     O_2   0.764356 0.203020 0.586093 -0.630846
O20   O     O_R   0.584100 0.151270 0.630133 -0.729602
H18   H     H_    0.625445 0.196113 0.664558 0.344789
C49   C     C_2   0.638316 0.860857 0.588941 0.898251
O21   O     O_2   0.738597 0.808046 0.600510 -0.632040
O22   O     O_R   0.550749 0.879280 0.631885 -0.732346
H19   H     H_    0.584642 0.857941 0.671227 0.348333
H20   H     H_    0.694342 0.110796 0.496002 0.104050
H21   H     H_    0.696205 0.881321 0.503990 0.120849
H22   H     H_    0.395018 0.115441 0.577889 0.219504
H23   H     H_    0.374994 0.868578 0.572194 0.210971
H24   H     H_    0.402007 0.118255 0.422270 0.178144
H25   H     H_    0.415949 0.874127 0.418531 0.175449
H26   H     H_    0.566540 0.126289 0.415745 0.160337
H27   H     H_    0.581043 0.885012 0.419390 0.187519
H28   H     H_    0.304633 0.123139 0.515258 0.156920
H29   H     H_    0.303591 0.884964 0.505464 0.165201
H30   H     H_    0.759474 0.274061 0.056730 0.209568
C50   C     C_2   0.812931 0.270883 0.948502 0.932425
O23   O     O_2   0.882313 0.335228 0.916534 -0.537130
O24   O     O_R   0.840268 0.132301 0.964570 -0.744055
H31   H     H_    0.918118 0.095665 0.945793 0.347301
H32   H     H_    0.593378 0.695872 0.211885 0.175517
C51   C     C_2   0.631435 0.731750 0.322313 0.826896
O25   O     O_2   0.704134 0.709701 0.361442 -0.636611
O26   O     O_R   0.619205 0.867883 0.299930 -0.755133
H33   H     H_    0.673320 0.939550 0.320513 0.331573
H34   H     H_    0.427939 0.290381 0.321837 0.162450
H35   H     H_    0.424432 0.285742 0.217839 0.158067
C52   C     C_2   0.338175 0.326047 0.798963 0.926975
O27   O     O_2   0.373434 0.260769 0.840953 -0.564761
O28   O     O_R   0.212163 0.325773 0.784093 -0.710519
H36   H     H_    0.159869 0.267473 0.811177 0.361281

loop_
_geom_bond_atom_site_label_1
_geom_bond_atom_site_label_2
_ccdc_geom_bond_type
C49   O21   D    
C40   O9    S    
Cu2   O8    S    
C28   H13   S    
C41   C42   A    
O22   H19   S    
C34   C49   S    
C41   O10   S    
C47   O17   D    
C10   O12   S    
C7    C8    A    
O18   H7    S    
C34   N4    S    
C37   C38   S    
C18   C24   A    
C29   C32   S    
C33   C48   S    
C5    C6    A    
Cu1   N4    S    
O26   H33   S    
C32   H17   S    
C50   O23   D    
C23   O6    A    
C18   C19   A    
O16   H6    S    
C1    O2    A    
O24   H31   S    
C38   H27   S    
C19   C20   A    
Cu1   O5    S    
C16   C17   A    
C45   O14   S    
Cu2   O4    S    
C25   C46   S    
C48   O20   S    
C29   H14   S    
C5    C43   A    
C49   O22   S    
C21   C22   A    
C35   H22   S    
C8    C50   S    
C2    H2    S    
C26   C47   S    
C52   O28   S    
C36   H29   S    
Cu1   O7    S    
C27   C31   S    
C9    O11   S    
C24   N1    S    
C23   O5    A    
C9    N2    A    
C17   N2    S    
O20   H18   S    
C37   H26   S    
C20   C39   S    
C38   N4    S    
Cu1   O1    S    
C33   N3    S    
Cu1   Cu2   S    
C32   H16   S    
C28   H11   S    
C26   H9    S    
O14   H3    S    
C21   H4    S    
C35   C36   S    
C23   C31   S    
C43   C44   A    
C29   C30   S    
C35   H28   S    
C16   H35   S    
C31   C32   S    
C27   H10   S    
C39   O8    A    
C35   N3    S    
C33   C34   S    
C29   H15   S    
C36   H23   S    
C47   O18   S    
O28   H36   S    
C36   N4    S    
C12   C14   S    
Cu1   O3    S    
C26   C30   S    
Cu2   O6    S    
C22   C24   A    
C42   C43   A    
C3    C4    A    
C46   O16   S    
C51   O25   D    
C25   C30   S    
C40   N1    A    
C11   C17   A    
C11   H32   S    
C25   H8    S    
C28   C31   S    
C8    C44   A    
C4    C5    A    
C6    C10   A    
C52   O27   D    
C6    C7    A    
C25   C27   S    
Cu2   N3    S    
C26   C28   S    
C27   H12   S    
C2    C3    A    
C48   O19   D    
C46   O15   D    
C38   H25   S    
C37   H24   S    
C37   N3    S    
C11   C13   A    
C2    C42   A    
C39   O7    A    
Cu2   O2    S    
C3    H1    S    
C1    C30   S    
C34   H21   S    
C41   N1    A    
C50   O24   S    
C19   C45   S    
C7    H30   S    
C1    O1    A    
C12   O3    A    
C12   O4    A    
C15   H34   S    
C40   C44   A    
C20   C21   A    
C45   O13   D    
C14   C15   A    
C33   H20   S    
C4    C9    A    
C13   C14   A    
C10   N2    A    
C18   C52   S    
C22   H5    S    
C13   C51   S    
C15   C16   A    
C51   O26   S    
