data_mof_unit_29000.cif
_audit_creation_date              2012-12-11T16:25:28-0500
_audit_creation_method            fapswitch 2.2
_symmetry_space_group_name_H-M    P1
_symmetry_Int_Tables_number       1
_space_group_crystal_system       triclinic
_cell_length_a                    20.251881
_cell_length_b                    7.267721
_cell_length_c                    13.396679
_cell_angle_alpha                 90.044197
_cell_angle_beta                  103.309019
_cell_angle_gamma                 89.944416
_cell_volume                      1918.83220013

loop_
_atom_site_label
_atom_site_type_symbol
_atom_type_description
_atom_site_fract_x
_atom_site_fract_y
_atom_site_fract_z
_atom_type_partial_charge
O1    O     O_R   0.449520 0.506760 0.599710 -0.535417
O2    O     O_R   0.550480 0.006760 0.400290 -0.535411
O3    O     O_R   0.587930 0.180200 0.595790 -0.538748
O4    O     O_R   0.412070 0.680200 0.404210 -0.538651
C1    C     C_R   0.614452 0.344252 0.617444 0.695345
C2    C     C_R   0.385562 0.844321 0.382504 0.695736
O5    O     O_R   0.452350 0.177380 0.611700 -0.541799
O6    O     O_R   0.547650 0.677380 0.388300 -0.541752
O7    O     O_R   0.413930 0.001760 0.416320 -0.535682
O8    O     O_R   0.586070 0.501760 0.583680 -0.535761
C3    C     C_R   0.436247 0.345543 0.637822 0.679409
C4    C     C_R   0.563749 0.845318 0.362148 0.679411
O9    O     O_3   0.487550 0.337460 0.435880 -0.377367
O10   O     O_3   0.512450 0.837460 0.564120 -0.377432
V1    V     V_3+5 0.502310 0.064670 0.511900 1.418565
V2    V     V_3+5 0.497690 0.564670 0.488100 1.418709
C5    C     C_R   0.610026 0.845060 0.106272 -0.165981
C6    C     C_R   0.390087 0.358053 0.893681 -0.165553
H1    H     H_    0.516900 0.844530 0.155910 0.099042
H2    H     H_    0.483222 0.358762 0.843873 0.099708
H3    H     H_    0.692888 0.839364 0.979500 0.140426
H4    H     H_    0.307302 0.357582 0.020622 0.140653
H5    H     H_    0.584065 0.841450 0.025923 0.116298
H6    H     H_    0.416082 0.360853 0.974024 0.116506
C7    C     C_R   0.603676 0.851545 0.284059 -0.023691
C8    C     C_R   0.396320 0.352788 0.715866 -0.023538
C9    C     C_R   0.930749 0.864866 0.319384 -0.171000
C10   C     C_R   0.069167 0.355740 0.680753 -0.171980
C11   C     C_R   0.895309 0.863121 0.396566 -0.124700
C12   C     C_R   0.104590 0.350285 0.603575 -0.124327
C13   C     C_R   0.824704 0.859000 0.372332 -0.164122
C14   C     C_R   0.175229 0.349487 0.627760 -0.163630
C15   C     C_R   0.787402 0.855002 0.268929 0.069382
C16   C     C_R   0.212602 0.352708 0.731141 0.069546
C17   C     C_R   0.824233 0.854534 0.190022 0.046557
C18   C     C_R   0.175814 0.356539 0.810069 0.046339
C19   C     C_R   0.714919 0.852240 0.241240 0.062392
C20   C     C_R   0.285106 0.352991 0.758788 0.062706
C21   C     C_R   0.681145 0.847003 0.135668 0.133989
C22   C     C_R   0.318951 0.355638 0.864362 0.134137
C23   C     C_R   0.718388 0.843844 0.060046 -0.189801
C24   C     C_R   0.281755 0.356262 0.940057 -0.189384
C25   C     C_R   0.788723 0.848530 0.086559 -0.223020
C26   C     C_R   0.211395 0.357503 0.913561 -0.223155
C27   C     C_R   0.674508 0.854451 0.314536 -0.222357
C28   C     C_R   0.325475 0.351022 0.685447 -0.221869
C29   C     C_R   0.571605 0.847079 0.180063 -0.179494
C30   C     C_R   0.428475 0.356891 0.819825 -0.180669
C31   C     C_R   0.896103 0.861060 0.216367 -0.068772
C32   C     C_R   0.103904 0.359660 0.783717 -0.068479
H7    H     H_    0.696153 0.856926 0.395900 0.102963
H8    H     H_    0.303785 0.347415 0.604106 0.102790
H9    H     H_    0.985525 0.869158 0.340351 0.096508
H10   H     H_    0.014333 0.356511 0.659876 0.096909
H11   H     H_    0.801127 0.858665 0.436592 0.122040
H12   H     H_    0.198778 0.345827 0.563492 0.122211
H13   H     H_    0.922813 0.865744 0.476102 0.122046
H14   H     H_    0.077045 0.347059 0.524066 0.122243
H15   H     H_    0.815094 0.847450 0.024848 0.138188
H16   H     H_    0.185058 0.359589 0.975308 0.137718
H17   H     H_    0.101497 0.943496 0.472512 0.114075
H18   H     H_    0.898043 0.459298 0.528508 0.114998
C33   C     C_R   0.237320 0.835051 0.029935 0.182752
C34   C     C_R   0.762734 0.327661 0.969792 0.182716
C35   C     C_R   0.295852 0.813160 0.992145 -0.135510
C36   C     C_R   0.704338 0.301250 0.007323 -0.135565
C37   C     C_R   0.359139 0.798362 0.058265 -0.170517
C38   C     C_R   0.641141 0.285761 0.941045 -0.170533
C39   C     C_R   0.365519 0.809175 0.163494 -0.149488
C40   C     C_R   0.634688 0.300459 0.835965 -0.150325
C41   C     C_R   0.308226 0.833415 0.205601 0.027751
C42   C     C_R   0.691863 0.329087 0.794131 0.027851
C43   C     C_R   0.242171 0.842158 0.138434 0.062949
C44   C     C_R   0.757873 0.338287 0.861392 0.063283
C45   C     C_R   0.316653 0.851604 0.313312 -0.165411
C46   C     C_R   0.683348 0.351423 0.686660 -0.165795
C47   C     C_R   0.259254 0.876392 0.355231 0.069186
C48   C     C_R   0.740626 0.380592 0.645039 0.069291
C49   C     C_R   0.193170 0.880273 0.289752 0.049005
C50   C     C_R   0.806704 0.384699 0.710545 0.049170
C51   C     C_R   0.184266 0.860478 0.181916 -0.180433
C52   C     C_R   0.815704 0.360773 0.818133 -0.180633
C53   C     C_R   0.266364 0.895947 0.462426 -0.149100
C54   C     C_R   0.733417 0.404074 0.538075 -0.148896
C55   C     C_R   0.209859 0.919824 0.503875 -0.123398
C56   C     C_R   0.789792 0.432130 0.496896 -0.123677
C57   C     C_R   0.145270 0.924430 0.440004 -0.119785
C58   C     C_R   0.854365 0.437017 0.560793 -0.120181
C59   C     C_R   0.136786 0.904670 0.334301 -0.139159
C60   C     C_R   0.862975 0.413340 0.666250 -0.140078
H19   H     H_    0.292005 0.807217 0.910186 0.129189
H20   H     H_    0.708216 0.292518 0.089207 0.129521
H21   H     H_    0.403723 0.780074 0.027609 0.125622
H22   H     H_    0.596648 0.264110 0.971462 0.126335
H23   H     H_    0.416100 0.799148 0.211702 0.097535
H24   H     H_    0.584114 0.289951 0.787741 0.099098
H25   H     H_    0.315546 0.892988 0.515417 0.111075
H26   H     H_    0.684259 0.400904 0.485035 0.111672
H27   H     H_    0.216257 0.935029 0.585962 0.126034
H28   H     H_    0.783301 0.450286 0.414988 0.126399
H29   H     H_    0.085618 0.909530 0.287827 0.079561
H30   H     H_    0.914173 0.418566 0.712666 0.081136
O11   O     O_R   0.913760 0.203480 0.916370 -0.529928
O12   O     O_R   0.086240 0.703480 0.083630 -0.530487
O13   O     O_R   0.047590 0.535230 0.888250 -0.539254
O14   O     O_R   0.952410 0.035230 0.111750 -0.539272
C61   C     C_R   0.063978 0.368217 0.862214 0.664410
C62   C     C_R   0.936025 0.868461 0.137816 0.664177
O15   O     O_R   0.912020 0.532880 0.904260 -0.538846
O16   O     O_R   0.087980 0.032880 0.095740 -0.538146
O17   O     O_R   0.949590 0.708460 0.099750 -0.532696
O18   O     O_R   0.050410 0.208460 0.900250 -0.532683
C63   C     C_R   0.885548 0.365365 0.884058 0.774313
C64   C     C_R   0.114429 0.865283 0.115996 0.774895
O19   O     O_3   0.012370 0.375360 0.064120 -0.374556
O20   O     O_3   0.987630 0.875360 0.935880 -0.374586
V3    V     V_3+5 0.997700 0.648160 0.988110 1.444134
V4    V     V_3+5 0.002300 0.148160 0.011890 1.444900
N1    N     N_3   0.173966 0.854169 0.956424 -0.660721
H31   H     H_    0.177171 0.968227 0.910311 0.231582
H32   H     H_    0.166786 0.737837 0.909295 0.234532
N2    N     N_3   0.825921 0.348023 0.043513 -0.660730
H33   H     H_    0.821907 0.460248 0.090593 0.231079
H34   H     H_    0.833838 0.230551 0.089645 0.235229

loop_
_geom_bond_atom_site_label_1
_geom_bond_atom_site_label_2
_ccdc_geom_bond_type
C36   C38   A    
C33   C35   A    
C25   H15   S    
C9    C11   A    
C61   O18   A    
O1    C3    A    
C42   C46   A    
O2    C4    A    
O16   V4    S    
C2    O7    A    
O15   V3    S    
C2    C45   S    
C21   C23   A    
O5    C3    A    
O13   C61   A    
C5    H5    S    
C27   H7    S    
C6    H6    S    
O11   C63   A    
C46   C48   A    
C56   C58   A    
C47   C53   A    
C28   H8    S    
O20   V3    S    
C5    C21   A    
C39   C41   A    
C6    C22   A    
C60   H30   S    
H17   C57   S    
C10   C32   A    
C35   C37   A    
C51   C64   S    
C17   C31   A    
C13   C15   A    
C12   C14   A    
C17   C25   A    
O16   C64   A    
C16   C18   A    
C8    C30   A    
N1    H32   S    
O6    V2    S    
C20   C22   A    
O14   V4    S    
C23   C25   A    
O13   V3    S    
C24   C26   A    
C44   C52   A    
C43   C51   A    
C31   C62   S    
C47   C49   A    
C49   C59   A    
C55   C57   A    
C42   C44   A    
C49   C51   A    
C10   H10   S    
C36   H20   S    
O5    V1    S    
C33   C43   A    
C3    C8    S    
O3    C1    A    
H18   C58   S    
C15   C19   A    
C37   C39   A    
C34   C36   A    
O4    V2    S    
C40   H24   S    
C55   H27   S    
O18   V4    S    
C33   N1    S    
O6    C4    A    
O19   V4    S    
H1    C29   S    
O1    V2    S    
O2    V1    S    
C45   C47   A    
H2    C30   S    
O12   C64   A    
C50   C52   A    
C53   C55   A    
C58   C60   A    
C57   C59   A    
C32   C61   S    
H3    C23   S    
C18   C26   A    
O4    C2    A    
C19   C27   A    
C7    C27   A    
C18   C32   A    
C41   C43   A    
O12   V3    S    
C35   H19   S    
C7    C29   A    
C59   H29   S    
C16   C20   A    
C5    C29   A    
C52   C63   S    
C11   H13   S    
C39   H23   S    
C6    C30   A    
N1    H31   S    
C9    H9    S    
O15   C63   A    
C62   O17   A    
C4    C7    S    
O17   V3    S    
C54   H26   S    
C1    C46   S    
C10   C12   A    
O7    V1    S    
C1    O8    A    
C19   C21   A    
O8    V2    S    
C41   C45   A    
C56   H28   S    
H4    C24   S    
O14   C62   A    
C26   H16   S    
C34   N2    S    
C12   H14   S    
C22   C24   A    
C15   C17   A    
C48   C50   A    
C50   C60   A    
C38   H22   S    
C20   C28   A    
C8    C28   A    
O11   V4    S    
C48   C54   A    
C11   C13   A    
C53   H25   S    
O9    V2    S    
C37   H21   S    
C38   C40   A    
C34   C44   A    
O10   V1    S    
C54   C56   A    
O3    V1    S    
C40   C42   A    
C13   H11   S    
N2    H33   S    
N2    H34   S    
C14   H12   S    
C9    C31   A    
C14   C16   A    
