data_mof_unit_34036.cif
_audit_creation_date              2012-12-11T15:35:24-0500
_audit_creation_method            fapswitch 2.2
_symmetry_space_group_name_H-M    P1
_symmetry_Int_Tables_number       1
_space_group_crystal_system       triclinic
_cell_length_a                    17.357584
_cell_length_b                    24.215763
_cell_length_c                    14.832046
_cell_angle_alpha                 90.01286
_cell_angle_beta                  124.349173
_cell_angle_gamma                 89.783073
_cell_volume                      5147.0863619

loop_
_atom_site_label
_atom_site_type_symbol
_atom_type_description
_atom_site_fract_x
_atom_site_fract_y
_atom_site_fract_z
_atom_type_partial_charge
C1    C     C_R   0.349585 0.151883 0.909415 -0.134511
C2    C     C_R   0.311034 0.873978 0.911022 -0.161101
C3    C     C_R   0.849588 0.651885 0.909418 -0.134529
C4    C     C_R   0.811033 0.373978 0.911020 -0.161092
C5    C     C_R   0.647423 0.151124 0.093491 -0.233007
C6    C     C_R   0.689786 0.877947 0.090932 -0.231303
C7    C     C_R   0.147426 0.651123 0.093492 -0.233009
C8    C     C_R   0.189787 0.377945 0.090932 -0.231321
C9    C     C_R   0.598744 0.873309 0.909566 0.550354
C10   C     C_R   0.564220 0.152203 0.912953 0.544660
C11   C     C_R   0.098746 0.373313 0.909564 0.550373
C12   C     C_R   0.064225 0.652202 0.912954 0.544657
C13   C     C_R   0.425054 0.000556 0.628668 0.004587
C14   C     C_R   0.925058 0.500555 0.628670 0.004599
C15   C     C_R   0.800566 0.000355 0.363917 0.018933
C16   C     C_R   0.300575 0.500355 0.363909 0.018937
C17   C     C_R   0.620092 0.184598 0.005009 -0.101266
C18   C     C_R   0.689365 0.863601 0.999903 -0.101643
C19   C     C_R   0.120098 0.684596 0.005011 -0.101262
C20   C     C_R   0.189367 0.363604 0.999901 -0.101696
C21   C     C_3   0.037066 0.947123 0.602792 -0.101668
C22   C     C_3   0.035211 0.053571 0.602418 -0.109815
C23   C     C_3   0.537076 0.447123 0.602777 -0.101666
C24   C     C_3   0.535226 0.553570 0.602400 -0.109782
C25   C     C_3   0.931269 0.945794 0.515685 -0.453983
C26   C     C_3   0.928206 0.049301 0.527062 -0.453950
C27   C     C_3   0.431279 0.445794 0.515674 -0.453986
C28   C     C_3   0.428220 0.549303 0.527046 -0.453934
C29   C     C_3   0.054349 0.000390 0.468200 -0.488203
C30   C     C_3   0.554356 0.500389 0.468180 -0.488207
C31   C     C_3   0.079912 0.000668 0.586403 0.333950
C32   C     C_3   0.579922 0.500667 0.586384 0.333937
C33   C     C_3   0.900236 0.999983 0.448038 0.368233
C34   C     C_3   0.400246 0.499982 0.448025 0.368216
C35   C     C_R   0.408553 0.867415 0.093054 -0.121874
C36   C     C_R   0.443151 0.152646 0.091360 -0.138467
C37   C     C_R   0.908551 0.367414 0.093052 -0.121865
C38   C     C_R   0.943151 0.652644 0.091363 -0.138467
C39   C     C_3   0.949226 0.004479 0.387453 -0.388618
C40   C     C_3   0.449232 0.504475 0.387435 -0.388612
C41   C     C_R   0.159126 0.818002 0.916376 -0.218621
C42   C     C_R   0.301561 0.271775 0.905942 -0.213954
C43   C     C_R   0.659125 0.318000 0.916367 -0.218616
C44   C     C_R   0.801607 0.771787 0.905984 -0.213913
C45   C     C_R   0.606691 0.275273 0.917521 -0.168320
C46   C     C_R   0.755310 0.818530 0.906225 -0.156541
C47   C     C_R   0.106695 0.775273 0.917530 -0.168333
C48   C     C_R   0.255270 0.318519 0.906185 -0.156613
C49   C     C_R   0.645435 0.242634 0.011674 0.163920
C50   C     C_R   0.764762 0.834196 0.003014 0.162821
C51   C     C_R   0.145443 0.742631 0.011680 0.163929
C52   C     C_R   0.264763 0.334202 0.002998 0.162873
C53   C     C_R   0.720876 0.263060 0.111210 -0.165610
C54   C     C_R   0.838677 0.812311 0.102561 -0.168722
C55   C     C_R   0.220888 0.763055 0.111214 -0.165615
C56   C     C_R   0.338712 0.312334 0.102553 -0.168697
C57   C     C_R   0.270890 0.807049 0.111133 -0.177836
C58   C     C_R   0.385612 0.266197 0.102695 -0.177316
C59   C     C_R   0.770881 0.307052 0.111128 -0.177832
C60   C     C_R   0.885582 0.766178 0.102705 -0.177338
C61   C     C_R   0.247085 0.829250 0.011249 0.157615
C62   C     C_R   0.359523 0.242223 0.003315 0.157804
C63   C     C_R   0.747081 0.329251 0.011243 0.157612
C64   C     C_R   0.859526 0.742220 0.003334 0.157772
C65   C     C_R   0.381962 0.951698 0.460281 -0.169696
C66   C     C_R   0.386578 0.051694 0.464506 -0.175984
C67   C     C_R   0.881964 0.451697 0.460282 -0.169699
C68   C     C_R   0.886576 0.551693 0.464504 -0.175990
C69   C     C_R   0.392769 0.951990 0.374747 -0.163913
C70   C     C_R   0.398018 0.051959 0.379611 -0.170615
C71   C     C_R   0.892767 0.451989 0.374745 -0.163912
C72   C     C_R   0.898012 0.551958 0.379605 -0.170609
C73   C     C_R   0.411998 0.001889 0.343463 0.145614
C74   C     C_R   0.911994 0.501888 0.343459 0.145614
C75   C     C_R   0.483989 0.046832 0.253419 -0.127466
C76   C     C_R   0.491885 0.955344 0.263778 -0.121929
C77   C     C_R   0.983987 0.546831 0.253418 -0.127461
C78   C     C_R   0.991883 0.455343 0.263776 -0.121931
C79   C     C_R   0.390106 0.001366 0.513423 0.141315
C80   C     C_R   0.890108 0.501365 0.513424 0.141312
C81   C     C_R   0.238226 0.954445 0.704906 0.003207
C82   C     C_R   0.237624 0.046622 0.707066 0.018986
C83   C     C_R   0.738233 0.454444 0.704897 0.003202
C84   C     C_R   0.737631 0.546621 0.707051 0.018980
C85   C     C_R   0.381410 0.184194 0.001099 0.041646
C86   C     C_R   0.318353 0.856954 0.005014 0.049583
C87   C     C_R   0.881411 0.684192 0.001105 0.041665
C88   C     C_R   0.818352 0.356954 0.005011 0.049585
C89   C     C_R   0.458528 0.001398 0.286938 0.036530
C90   C     C_R   0.958524 0.501398 0.286935 0.036530
C91   C     C_R   0.182506 0.000718 0.656387 -0.063150
C92   C     C_R   0.682516 0.500717 0.656366 -0.063132
C93   C     C_R   0.443743 0.045620 0.693843 -0.166269
C94   C     C_R   0.445279 0.954931 0.693678 -0.045016
C95   C     C_R   0.943747 0.545620 0.693844 -0.166253
C96   C     C_R   0.945281 0.454930 0.693679 -0.045073
C97   C     C_R   0.752902 0.954220 0.303982 -0.156260
C98   C     C_R   0.753971 0.046417 0.301761 -0.137644
C99   C     C_R   0.252907 0.454220 0.303978 -0.156254
C100  C     C_R   0.253976 0.546417 0.301756 -0.137647
H1    H     H_    0.309801 0.166267 0.826269 0.101981
H2    H     H_    0.251269 0.869711 0.828350 0.112828
H3    H     H_    0.809803 0.666270 0.826273 0.101967
H4    H     H_    0.751270 0.369712 0.828347 0.112819
H5    H     H_    0.891065 0.939818 0.552589 0.160568
H6    H     H_    0.897148 0.043478 0.574712 0.166244
H7    H     H_    0.391077 0.439820 0.552581 0.160570
H8    H     H_    0.397161 0.543482 0.574697 0.166240
H9    H     H_    0.916587 0.909578 0.462161 0.142779
H10   H     H_    0.901299 0.089245 0.483257 0.138133
H11   H     H_    0.416595 0.409577 0.462151 0.142778
H12   H     H_    0.401316 0.589246 0.483239 0.138149
H13   H     H_    0.079738 0.961687 0.452518 0.171257
H14   H     H_    0.087317 0.035277 0.453452 0.167371
H15   H     H_    0.579749 0.461687 0.452498 0.171257
H16   H     H_    0.587321 0.535278 0.453432 0.167374
H17   H     H_    0.925493 0.971067 0.325591 0.165168
H18   H     H_    0.931502 0.044630 0.343184 0.165376
H19   H     H_    0.425500 0.471061 0.325578 0.165164
H20   H     H_    0.431505 0.544625 0.343158 0.165376
H21   H     H_    0.134529 0.838210 0.839592 0.123064
H22   H     H_    0.285593 0.256748 0.828556 0.117525
H23   H     H_    0.634531 0.338206 0.839581 0.123061
H24   H     H_    0.785676 0.756772 0.828614 0.117531
H25   H     H_    0.542044 0.264484 0.842053 0.172418
H26   H     H_    0.706422 0.838650 0.829259 0.174751
H27   H     H_    0.042044 0.764486 0.842066 0.172405
H28   H     H_    0.206348 0.338624 0.829204 0.174812
H29   H     H_    0.748690 0.241882 0.187811 0.107436
H30   H     H_    0.853989 0.826082 0.180264 0.107275
H31   H     H_    0.248708 0.741873 0.187814 0.107440
H32   H     H_    0.354063 0.326123 0.180275 0.107252
H33   H     H_    0.333459 0.818681 0.188143 0.101714
H34   H     H_    0.434418 0.246605 0.180419 0.104967
H35   H     H_    0.833448 0.318687 0.188139 0.101711
H36   H     H_    0.934353 0.746574 0.180412 0.104986
H37   H     H_    0.378246 0.912231 0.491643 0.103243
H38   H     H_    0.386850 0.090982 0.499229 0.103593
H39   H     H_    0.878250 0.412230 0.491647 0.103243
H40   H     H_    0.886847 0.590981 0.499227 0.103594
H41   H     H_    0.441756 0.852612 0.175150 0.080898
H42   H     H_    0.490956 0.166945 0.174047 0.085093
H43   H     H_    0.941753 0.352610 0.175148 0.080897
H44   H     H_    0.990955 0.666940 0.174052 0.085092
H45   H     H_    0.395298 0.912799 0.341506 0.104700
H46   H     H_    0.405691 0.091390 0.351474 0.107180
H47   H     H_    0.895297 0.412798 0.341505 0.104697
H48   H     H_    0.905682 0.591390 0.351467 0.107179
H49   H     H_    0.472740 0.089879 0.261212 0.092535
H50   H     H_    0.495969 0.914054 0.292483 0.083717
H51   H     H_    0.972739 0.589878 0.261213 0.092532
H52   H     H_    0.995966 0.414053 0.292481 0.083717
H53   H     H_    0.419288 0.087137 0.665992 0.123754
H54   H     H_    0.423818 0.913291 0.665209 0.101675
H55   H     H_    0.919294 0.587137 0.665993 0.123750
H56   H     H_    0.923827 0.413289 0.665214 0.101723
H57   H     H_    0.765445 0.911651 0.330502 0.091544
H58   H     H_    0.769179 0.089474 0.323263 0.086958
H59   H     H_    0.265452 0.411651 0.330498 0.091542
H60   H     H_    0.269186 0.589475 0.323257 0.086963
H61   H     H_    0.682167 0.163556 0.177717 0.121889
H62   H     H_    0.747106 0.874854 0.175357 0.128723
H63   H     H_    0.182168 0.663555 0.177718 0.121891
H64   H     H_    0.247104 0.374846 0.175356 0.128734
H65   H     H_    0.065665 0.909827 0.588124 0.139602
H66   H     H_    0.054932 0.090868 0.576172 0.131840
H67   H     H_    0.565675 0.409826 0.588108 0.139599
H68   H     H_    0.554948 0.590866 0.576153 0.131850
N1    N     N_R   0.392140 0.102630 0.941800 -0.042400
N2    N     N_R   0.392140 0.897370 0.941800 -0.046956
N3    N     N_R   0.892140 0.602630 0.941800 -0.042401
N4    N     N_R   0.892140 0.397370 0.941800 -0.046951
N5    N     N_R   0.450890 0.896450 0.057150 -0.036970
N6    N     N_R   0.450890 0.103550 0.057150 -0.037234
N7    N     N_R   0.950890 0.396450 0.057150 -0.036970
N8    N     N_R   0.950890 0.603550 0.057150 -0.037233
N9    N     N_R   0.525160 0.027960 0.206160 -0.036610
N10   N     N_R   0.525160 0.972040 0.206160 -0.035162
N11   N     N_R   0.025160 0.527960 0.206160 -0.036611
N12   N     N_R   0.025160 0.472040 0.206160 -0.035164
N13   N     N_R   0.317870 0.971120 0.792790 -0.055549
N14   N     N_R   0.317870 0.028880 0.792790 -0.052732
N15   N     N_R   0.817870 0.471120 0.792790 -0.055549
N16   N     N_R   0.817870 0.528880 0.792790 -0.052736
N17   N     N_R   0.473480 0.027920 0.793480 -0.047204
N18   N     N_R   0.473480 0.972080 0.793480 -0.050191
N19   N     N_R   0.973480 0.527920 0.793480 -0.047202
N20   N     N_R   0.973480 0.472080 0.793480 -0.050192
N21   N     N_R   0.681610 0.971120 0.207570 -0.030829
N22   N     N_R   0.681610 0.028880 0.207570 -0.031770
N23   N     N_R   0.181610 0.471120 0.207570 -0.030828
N24   N     N_R   0.181610 0.528880 0.207570 -0.031770
N25   N     N_R   0.605410 0.102620 0.056870 -0.062297
N26   N     N_R   0.605410 0.897380 0.056870 -0.062877
N27   N     N_R   0.105410 0.602620 0.056870 -0.062297
N28   N     N_R   0.105410 0.397380 0.056870 -0.062876
N29   N     N_R   0.549680 0.896430 0.944180 -0.105396
N30   N     N_R   0.549680 0.103570 0.944180 -0.094316
N31   N     N_R   0.049680 0.396430 0.944180 -0.105383
N32   N     N_R   0.049680 0.603570 0.944180 -0.094314
Ni1   Ni    Ni4+2 0.433410 0.064680 0.868830 0.213698
Ni2   Ni    Ni4+2 0.433410 0.935320 0.868830 0.191538
Ni3   Ni    Ni4+2 0.933410 0.564680 0.868830 0.213691
Ni4   Ni    Ni4+2 0.933410 0.435320 0.868830 0.191548
Ni5   Ni    Ni4+2 0.565650 0.934380 0.131170 0.204581
Ni6   Ni    Ni4+2 0.565650 0.065620 0.131170 0.200626
Ni7   Ni    Ni4+2 0.065650 0.434380 0.131170 0.204584
Ni8   Ni    Ni4+2 0.065650 0.565620 0.131170 0.200628
N33   N     N_3   0.056921 0.941300 0.712834 -0.221666
H69   H     H_    0.014151 0.967303 0.722873 0.142104
H70   H     H_    0.126187 0.951215 0.772714 0.120216
N34   N     N_3   0.064556 0.061557 0.715977 -0.221244
H71   H     H_    0.132703 0.076298 0.763420 0.120705
H72   H     H_    0.024498 0.093397 0.717698 0.114885
N35   N     N_3   0.556934 0.441301 0.712821 -0.221665
H73   H     H_    0.514162 0.467303 0.722858 0.142100
H74   H     H_    0.626199 0.451219 0.772699 0.120224
N36   N     N_3   0.564577 0.561556 0.715962 -0.221240
H75   H     H_    0.632701 0.576318 0.763383 0.120700
H76   H     H_    0.524500 0.593376 0.717691 0.114810
N37   N     N_3   0.227890 0.902989 0.651421 -0.236736
H77   H     H_    0.223781 0.911864 0.579867 0.091512
H78   H     H_    0.289159 0.879930 0.699850 0.090878
N38   N     N_3   0.225466 0.099839 0.658309 -0.233822
H79   H     H_    0.196929 0.094252 0.575416 0.084952
H80   H     H_    0.291625 0.115964 0.689145 0.112446
N39   N     N_3   0.727904 0.402988 0.651417 -0.236736
H81   H     H_    0.723803 0.411862 0.579867 0.091514
H82   H     H_    0.789173 0.379930 0.699855 0.090878
N40   N     N_3   0.725482 0.599833 0.658282 -0.233824
H83   H     H_    0.697007 0.594234 0.575401 0.084970
H84   H     H_    0.791648 0.615970 0.689179 0.112449
O1    O     O_3   0.561345 0.855632 0.804083 -0.698202
C101  C     C_3   0.493318 0.814567 0.775469 0.133717
H85   H     H_    0.447938 0.812240 0.684908 0.122810
H86   H     H_    0.446311 0.824916 0.802001 0.091183
C102  C     C_3   0.539337 0.757815 0.819539 -0.279281
H87   H     H_    0.582155 0.747315 0.787678 0.205571
H88   H     H_    0.585904 0.758894 0.910143 0.197505
C103  C     C_3   0.466482 0.712940 0.785627 -1.027601
H89   H     H_    0.424185 0.722210 0.818611 0.270171
H90   H     H_    0.501910 0.672518 0.818810 0.269520
H91   H     H_    0.419853 0.710019 0.695203 0.263698
O2    O     O_3   0.524121 0.167724 0.805703 -0.701615
C104  C     C_3   0.579677 0.147152 0.770413 0.143521
H92   H     H_    0.533592 0.142485 0.680299 0.132102
H93   H     H_    0.609959 0.105451 0.804481 0.105980
C105  C     C_3   0.657351 0.187391 0.795441 -0.311182
H94   H     H_    0.626240 0.228184 0.757963 0.208333
H95   H     H_    0.706742 0.192422 0.885103 0.205360
C106  C     C_3   0.711757 0.166472 0.749690 -1.005292
H96   H     H_    0.745692 0.126257 0.787594 0.270982
H97   H     H_    0.766557 0.196776 0.768014 0.269099
H98   H     H_    0.664560 0.161444 0.659717 0.264168
O3    O     O_3   0.061345 0.355627 0.804085 -0.698246
C107  C     C_3   0.993339 0.314552 0.775499 0.133597
H99   H     H_    0.948024 0.312161 0.684940 0.122893
H100  H     H_    0.946262 0.324937 0.801918 0.091163
C108  C     C_3   0.039394 0.257826 0.819766 -0.278911
H101  H     H_    0.082340 0.247307 0.788062 0.205507
H102  H     H_    0.085865 0.258959 0.910397 0.197358
C109  C     C_3   0.966536 0.212929 0.785798 -1.027654
H103  H     H_    0.923966 0.222275 0.818385 0.270117
H104  H     H_    0.001972 0.172550 0.819311 0.269577
H105  H     H_    0.920163 0.209872 0.695378 0.263653
O4    O     O_3   0.024129 0.667723 0.805705 -0.701623
C110  C     C_3   0.079689 0.647156 0.770418 0.143575
H106  H     H_    0.033605 0.642483 0.680306 0.132122
H107  H     H_    0.109982 0.605458 0.804489 0.105961
C111  C     C_3   0.157346 0.687403 0.795437 -0.311237
H108  H     H_    0.126227 0.728195 0.757988 0.208381
H109  H     H_    0.206753 0.692427 0.885094 0.205365
C112  C     C_3   0.211719 0.666503 0.749641 -1.005462
H110  H     H_    0.245651 0.626284 0.787500 0.271009
H111  H     H_    0.266511 0.696812 0.767977 0.269170
H112  H     H_    0.164507 0.661490 0.659668 0.264191

loop_
_geom_bond_atom_site_label_1
_geom_bond_atom_site_label_2
_ccdc_geom_bond_type
C68   C80   A    
C38   C87   A    
C71   H47   S    
C29   H14   S    
C13   C79   S    
C104  H93   S    
C58   C62   A    
C65   C79   A    
C99   H59   S    
C63   C88   S    
C24   N36   S    
N14   Ni1   S    
C69   H45   S    
C76   H50   S    
C96   N20   A    
C37   C88   A    
N13   Ni2   S    
C41   C61   A    
N35   H73   S    
C108  C109  S    
N38   H79   S    
C77   H51   S    
C109  H105  S    
C53   C59   A    
C95   N19   A    
C106  H96   S    
C54   C60   A    
N13   N14   A    
C44   C64   A    
C36   N6    A    
C83   C92   A    
C21   C31   S    
C18   C50   S    
C77   N11   A    
C8    C20   A    
C78   N12   A    
N15   Ni4   S    
C24   H68   S    
C75   H49   S    
C28   H12   S    
C76   N10   A    
N35   H74   S    
C110  C111  S    
C49   C53   A    
C106  H97   S    
N26   N29   A    
C82   N38   S    
C2    H2    S    
C10   C17   A    
N17   Ni1   S    
N25   N30   A    
C43   C63   A    
N10   Ni5   S    
N19   Ni3   S    
C112  H112  S    
C21   H65   S    
O2    C104  S    
N18   Ni2   S    
C41   H21   S    
N4    Ni4   S    
C36   H42   S    
C29   H13   S    
C16   C34   S    
C52   C56   A    
C38   N8    A    
N22   Ni6   S    
C47   C51   A    
N27   Ni8   S    
C98   H58   S    
N21   Ni5   S    
C8    N28   A    
C107  H100  S    
C11   O3    S    
N1    N6    A    
C78   H52   S    
C69   C73   A    
C70   H46   S    
C23   C27   S    
C30   C32   S    
N12   Ni7   S    
C67   H39   S    
O1    C101  S    
C26   H10   S    
C64   C87   S    
C51   C55   A    
C21   N33   S    
C105  C106  S    
C94   H54   S    
C76   C89   A    
C65   H37   S    
C81   N13   A    
C97   N21   A    
C27   H11   S    
C97   H57   S    
N16   Ni3   S    
C102  H87   S    
C1    C85   A    
N24   Ni8   S    
C111  C112  S    
C57   H33   S    
C100  N24   A    
C101  H86   S    
C15   C97   A    
N28   N31   A    
C54   H30   S    
C10   N30   A    
C14   C96   A    
C94   N18   A    
C104  C105  S    
C9    N29   A    
C46   C50   A    
C112  H110  S    
C12   O4    S    
C30   H15   S    
C27   C34   S    
C41   C47   A    
C102  H88   S    
C6    C18   A    
C62   C85   S    
C77   C90   A    
C22   C31   S    
N37   H78   S    
C3    C87   A    
N23   N24   A    
C35   N5    A    
C6    H62   S    
C84   N16   A    
C10   O2    S    
C72   C74   A    
C8    H64   S    
C17   C49   S    
O4    C110  S    
C16   C100  A    
C106  H98   S    
C23   N35   S    
C44   C46   A    
C32   C92   S    
C39   H17   S    
C9    O1    S    
C11   C20   A    
N20   Ni4   S    
C103  H91   S    
C58   H34   S    
C82   C91   A    
C30   H16   S    
C13   C93   A    
C101  C102  S    
C81   C91   A    
C42   C48   A    
N15   N16   A    
C24   C32   S    
N9    Ni6   S    
N37   H77   S    
C66   C79   A    
C45   H25   S    
C26   H6    S    
C37   N7    A    
N1    Ni1   S    
C33   C39   S    
C100  H60   S    
C26   C33   S    
N36   H76   S    
N39   H81   S    
C66   H38   S    
C27   H7    S    
C68   C72   A    
N36   H75   S    
C107  H99   S    
C29   C39   S    
C70   C73   A    
C103  H90   S    
N33   H69   S    
C12   N32   A    
C13   C94   A    
C30   C40   S    
N29   Ni2   S    
C83   N39   S    
C50   C54   A    
N34   H71   S    
N40   H84   S    
C43   C45   A    
C56   H32   S    
N11   N12   A    
C98   N22   A    
C35   H41   S    
C23   H67   S    
C40   H20   S    
N34   H72   S    
C7    C19   A    
C14   C80   S    
C55   C57   A    
N31   Ni4   S    
C36   C85   A    
C111  H109  S    
C59   C63   A    
C68   H40   S    
C53   H29   S    
C101  H85   S    
C15   C98   A    
C7    N27   A    
C108  H101  S    
C1    H1    S    
C14   C95   A    
C6    N26   A    
C84   N40   S    
C105  H94   S    
C42   H22   S    
C5    N25   A    
N27   N32   A    
C3    H3    S    
N40   H83   S    
N26   Ni5   S    
C21   C25   S    
N11   Ni8   S    
C83   N15   A    
N7    Ni7   S    
N25   Ni6   S    
C4    N4    A    
N39   H82   S    
C2    N2    A    
C43   H23   S    
C46   H26   S    
C37   H43   S    
C67   C80   A    
C24   C28   S    
C31   C91   S    
C108  H102  S    
N38   H80   S    
C71   C74   A    
C109  H104  S    
C110  H106  S    
N4    N7    A    
C16   C99   A    
C57   C61   A    
C109  H103  S    
C4    C88   A    
C25   H9    S    
N23   Ni7   S    
C66   C70   A    
C39   H18   S    
C81   N37   S    
N3    N8    A    
C82   N14   A    
C55   H31   S    
C60   H36   S    
C60   C64   A    
C23   C32   S    
N8    Ni8   S    
N28   Ni7   S    
C93   H53   S    
C105  H95   S    
C38   H44   S    
C75   N9    A    
C73   C89   S    
N19   N20   A    
C29   C31   S    
C72   H48   S    
C99   N23   A    
C110  H107  S    
C3    N3    A    
N17   N18   A    
C96   H56   S    
C7    H63   S    
C48   H28   S    
C78   C90   A    
N32   Ni3   S    
C65   C69   A    
C74   C90   S    
C4    H4    S    
C12   C19   A    
C1    N1    A    
C103  H89   S    
C112  H111  S    
C56   C58   A    
C45   C49   A    
C2    C86   A    
N30   Ni1   S    
C67   C71   A    
C95   H55   S    
N3    Ni3   S    
N21   N22   A    
C28   H8    S    
C11   N31   A    
C25   H5    S    
N2    Ni2   S    
C61   C86   S    
C75   C89   A    
C28   C34   S    
C22   N34   S    
C22   H66   S    
C19   C51   S    
C9    C18   A    
C48   C52   A    
C40   H19   S    
C5    C17   A    
C107  C108  S    
C20   C52   S    
N9    N10   A    
C22   C26   S    
C102  C103  S    
C44   H24   S    
C47   H27   S    
N6    Ni6   S    
N33   H70   S    
C111  H108  S    
C34   C40   S    
N5    Ni5   S    
C84   C92   A    
C5    H61   S    
C42   C62   A    
C104  H92   S    
C35   C86   A    
C15   C33   S    
C59   H35   S    
O3    C107  S    
C25   C33   S    
N2    N5    A    
C93   N17   A    
