data_mof_unit_28470.cif
_audit_creation_date              2012-12-11T15:12:40-0500
_audit_creation_method            fapswitch 2.2
_symmetry_space_group_name_H-M    P1
_symmetry_Int_Tables_number       1
_space_group_crystal_system       triclinic
_cell_length_a                    22.368808
_cell_length_b                    6.933895
_cell_length_c                    19.488594
_cell_angle_alpha                 89.989724
_cell_angle_beta                  98.692227
_cell_angle_gamma                 89.99178
_cell_volume                      2988.02066627

loop_
_atom_site_label
_atom_site_type_symbol
_atom_type_description
_atom_site_fract_x
_atom_site_fract_y
_atom_site_fract_z
_atom_type_partial_charge
O1    O     O_R   0.448420 0.506120 0.415750 -0.544446
O2    O     O_R   0.551580 0.006120 0.584250 -0.544369
O3    O     O_R   0.436490 0.174470 0.555610 -0.519947
O4    O     O_R   0.563510 0.674470 0.444390 -0.519995
C1    C     C_R   0.421957 0.344603 0.576920 0.762132
C2    C     C_R   0.578006 0.844601 0.423036 0.762518
O5    O     O_R   0.441310 0.176330 0.414520 -0.519888
O6    O     O_R   0.558690 0.676330 0.585480 -0.520029
O7    O     O_R   0.556430 0.007110 0.442150 -0.542523
O8    O     O_R   0.443570 0.507110 0.557850 -0.542564
C3    C     C_R   0.423862 0.345936 0.390983 0.764571
C4    C     C_R   0.576119 0.845874 0.609040 0.764803
O9    O     O_3   0.537770 0.339560 0.509230 -0.358794
O10   O     O_3   0.462230 0.839560 0.490770 -0.358604
V1    V     V_3+5 0.492990 0.064280 0.498290 1.534908
V2    V     V_3+5 0.507010 0.564280 0.501710 1.534740
C5    C     C_R   0.875011 0.869218 0.699468 -0.143930
C6    C     C_R   0.124911 0.365233 0.300337 -0.144063
H1    H     H_    0.960481 0.901775 0.764363 0.101847
H2    H     H_    0.039433 0.397305 0.235418 0.101879
H3    H     H_    0.799536 0.769372 0.589918 0.153906
H4    H     H_    0.200465 0.264657 0.409721 0.153987
H5    H     H_    0.896158 0.840672 0.653990 0.111682
H6    H     H_    0.103761 0.334709 0.345666 0.111680
C7    C     C_R   0.886258 0.935564 0.822168 -0.042311
C8    C     C_R   0.113670 0.435180 0.177883 -0.042469
C9    C     C_R   0.591349 0.903891 0.733593 -0.205705
C10   C     C_R   0.408590 0.405994 0.266566 -0.205248
C11   C     C_R   0.625916 0.945043 0.797113 0.343118
C12   C     C_R   0.373997 0.448259 0.203158 0.342965
C13   C     C_R   0.688681 0.945290 0.804135 -0.162459
C14   C     C_R   0.311235 0.447814 0.196123 -0.162351
C15   C     C_R   0.719114 0.898380 0.747850 -0.005711
C16   C     C_R   0.280833 0.399075 0.252263 -0.005591
C17   C     C_R   0.683416 0.847526 0.682343 0.020314
C18   C     C_R   0.316568 0.347177 0.317655 0.020161
C19   C     C_R   0.784073 0.901488 0.754920 0.094255
C20   C     C_R   0.215867 0.401324 0.245146 0.094250
C21   C     C_R   0.811896 0.863459 0.695690 0.092472
C22   C     C_R   0.188047 0.360965 0.304199 0.092432
C23   C     C_R   0.777208 0.809244 0.633553 -0.198142
C24   C     C_R   0.222775 0.305983 0.366226 -0.198348
C25   C     C_R   0.714778 0.791021 0.627285 0.212804
C26   C     C_R   0.285243 0.289028 0.372563 0.212822
C27   C     C_R   0.822918 0.936864 0.818754 -0.188884
C28   C     C_R   0.177016 0.437962 0.181404 -0.188832
C29   C     C_R   0.911790 0.904310 0.762189 -0.167543
C30   C     C_R   0.088128 0.401228 0.237689 -0.167434
C31   C     C_R   0.618431 0.857479 0.675544 -0.118423
C32   C     C_R   0.381545 0.357863 0.324491 -0.118347
H7    H     H_    0.805843 0.958086 0.867014 0.107897
H8    H     H_    0.194098 0.461175 0.133256 0.107933
H9    H     H_    0.542502 0.912246 0.729085 0.136568
H10   H     H_    0.457428 0.414992 0.271109 0.136563
H11   H     H_    0.712274 0.985514 0.854348 0.151026
H12   H     H_    0.287622 0.488938 0.146013 0.150940
C33   C     C_3   0.809579 0.759515 0.264420 -0.326595
C34   C     C_3   0.190386 0.259577 0.735552 -0.326559
C35   C     C_3   0.781440 0.105982 0.241763 -0.398899
C36   C     C_3   0.218524 0.605998 0.758194 -0.398899
C37   C     C_3   0.733161 0.089522 0.291245 -0.333777
C38   C     C_3   0.266792 0.589532 0.708698 -0.333771
H13   H     H_    0.782091 0.773586 0.367743 0.156565
H14   H     H_    0.217859 0.273688 0.632221 0.156451
H15   H     H_    0.853417 0.803837 0.295225 0.136768
H16   H     H_    0.146546 0.303965 0.704754 0.136761
H17   H     H_    0.767185 0.218201 0.201806 0.192942
H18   H     H_    0.232785 0.718171 0.798145 0.192939
H19   H     H_    0.825148 0.154372 0.271828 0.155255
H20   H     H_    0.174811 0.654451 0.728137 0.155259
H21   H     H_    0.753889 0.130317 0.344809 0.160350
H22   H     H_    0.246054 0.630379 0.655136 0.160326
H23   H     H_    0.695834 0.193416 0.274635 0.161688
H24   H     H_    0.304118 0.693385 0.725294 0.161699
C39   C     C_1   0.623556 0.854869 0.377292 -0.121393
C40   C     C_1   0.376395 0.354863 0.622646 -0.121663
C41   C     C_3   0.790048 0.909686 0.206097 0.203774
C42   C     C_3   0.209924 0.409684 0.793868 0.203789
C43   C     C_3   0.761041 0.741444 0.313499 -0.310760
C44   C     C_3   0.238916 0.241497 0.686464 -0.310834
C45   C     C_3   0.707528 0.881422 0.291093 0.209450
C46   C     C_3   0.292428 0.381415 0.708852 0.209547
C47   C     C_3   0.679512 0.830183 0.215551 -0.330301
C48   C     C_3   0.320456 0.330102 0.784392 -0.330334
C49   C     C_3   0.727394 0.849098 0.165365 0.163607
C50   C     C_3   0.272583 0.349011 0.834588 0.163568
C51   C     C_1   0.661395 0.865972 0.338704 -0.052041
C52   C     C_1   0.338555 0.365963 0.661233 -0.052207
C53   C     C_1   0.836747 0.927327 0.159167 -0.016615
C54   C     C_1   0.163236 0.427329 0.840811 -0.016606
C55   C     C_1   0.874957 0.939363 0.121061 -0.145142
C56   C     C_1   0.125034 0.439367 0.878927 -0.145091
H25   H     H_    0.711964 0.962452 0.126219 0.146929
H26   H     H_    0.288017 0.462316 0.873730 0.146924
H27   H     H_    0.660960 0.681165 0.214217 0.190345
H28   H     H_    0.339013 0.181073 0.785728 0.190330
H29   H     H_    0.817070 0.616113 0.241633 0.176964
H30   H     H_    0.182899 0.116167 0.758346 0.176957
H31   H     H_    0.744197 0.590262 0.312647 0.155047
H32   H     H_    0.255763 0.090301 0.687321 0.155052
H33   H     H_    0.640813 0.928144 0.197902 0.158262
H34   H     H_    0.359153 0.428023 0.802029 0.158208
O11   O     O_R   0.056480 0.288780 0.942210 -0.533404
O12   O     O_R   0.943520 0.788780 0.057790 -0.533424
O13   O     O_R   0.058700 0.616820 0.085490 -0.540729
O14   O     O_R   0.941300 0.116820 0.914510 -0.540703
C57   C     C_R   0.073320 0.447845 0.111077 0.696133
C58   C     C_R   0.926652 0.947902 0.888945 0.696099
O15   O     O_R   0.063520 0.618570 0.944410 -0.537635
O16   O     O_R   0.936480 0.118570 0.055590 -0.537658
O17   O     O_R   0.948420 0.787670 0.915740 -0.537612
O18   O     O_R   0.051580 0.287670 0.084260 -0.537598
C59   C     C_R   0.079036 0.449765 0.924088 0.721477
C60   C     C_R   0.920962 0.949763 0.075910 0.721361
O19   O     O_3   0.962260 0.453430 0.990800 -0.365294
O20   O     O_3   0.037740 0.953430 0.009200 -0.365266
V3    V     V_3+5 0.007000 0.728750 0.001710 1.464894
V4    V     V_3+5 0.993000 0.228750 0.998290 1.464946
Br1   Br    Br    0.731686 0.610564 0.112801 -0.549901
Br2   Br    Br    0.268303 0.110435 0.887158 -0.549836
Br3   Br    Br    0.586809 0.010141 0.874680 -0.431579
Br4   Br    Br    0.413059 0.516050 0.125805 -0.431869
Br5   Br    Br    0.681149 0.653600 0.545611 -0.587680
Br6   Br    Br    0.319030 0.151363 0.454174 -0.587216

loop_
_geom_bond_atom_site_label_1
_geom_bond_atom_site_label_2
_ccdc_geom_bond_type
O18   V4    S    
C25   Br5   S    
C9    C11   A    
C48   H34   S    
C57   O18   A    
C33   C43   S    
O1    C3    A    
O2    C4    A    
C35   C41   S    
C2    O7    A    
C4    C31   S    
O15   V3    S    
C2    C39   S    
C21   C23   A    
H13   C43   S    
C42   C54   S    
O5    C3    A    
O13   C57   A    
C41   C53   S    
C5    H5    S    
C6    H6    S    
C43   H31   S    
O11   C59   A    
C48   C50   S    
C5    C21   A    
H1    C29   S    
C27   H7    S    
C28   H8    S    
O20   V3    S    
C36   C38   S    
C48   H28   S    
C49   Br1   S    
C6    C22   A    
C50   H26   S    
C35   H17   S    
H14   C44   S    
C49   H25   S    
C34   H16   S    
C33   H29   S    
C12   Br4   S    
O19   V3    S    
C11   Br3   S    
C17   C31   A    
O13   V3    S    
C13   C15   A    
C58   O17   A    
C53   C55   T    
C17   C25   A    
C56   C59   S    
C40   C52   T    
C16   C18   A    
C8    C30   A    
C42   C50   S    
O5    V1    S    
C38   C46   S    
C41   C49   S    
O6    V2    S    
O14   V4    S    
C23   C25   A    
O16   V4    S    
C24   C26   A    
C45   C47   S    
C35   C37   S    
C12   C14   A    
C33   C41   S    
C44   C46   S    
C43   C45   S    
C10   C32   A    
C37   H23   S    
C26   Br6   S    
C15   C19   A    
C14   C16   A    
C37   C45   S    
O4    V2    S    
C54   C56   T    
C36   H20   S    
O6    C4    A    
O19   V4    S    
C36   C42   S    
C38   H22   S    
O1    V2    S    
C45   C51   S    
C47   H27   S    
O2    V1    S    
H2    C30   S    
C35   H19   S    
O12   C60   A    
O4    C2    A    
C47   C49   S    
C46   C48   S    
O9    V1    S    
H3    C23   S    
C18   C26   A    
O11   V4    S    
C19   C27   A    
C7    C27   A    
C18   C32   A    
O12   V3    S    
C39   C51   T    
O16   C60   A    
C7    C29   A    
C10   H10   S    
C47   H33   S    
C16   C20   A    
C5    C29   A    
C33   H15   S    
O3    C1    A    
C6    C30   A    
C8    C57   S    
C9    H9    S    
O15   C59   A    
C34   H30   S    
C55   C60   S    
O17   V3    S    
C34   C44   S    
C1    C40   S    
C10   C12   A    
O7    V1    S    
C1    O8    A    
C11   C13   A    
C3    C32   S    
O8    V2    S    
C20   C22   A    
C37   H21   S    
H4    C24   S    
O14   C58   A    
C46   C52   S    
C22   C24   A    
C15   C17   A    
O20   V4    S    
O10   V2    S    
C20   C28   A    
C34   C42   S    
C36   H18   S    
C19   C21   A    
O9    V2    S    
O10   V1    S    
C38   H24   S    
O3    V1    S    
C50   Br2   S    
C13   H11   S    
C8    C28   A    
C14   H12   S    
C44   H32   S    
C9    C31   A    
C7    C58   S    
