data_mof_unit_49004.cif
_audit_creation_date              2012-12-10T17:31:05-0500
_audit_creation_method            fapswitch 2.2
_symmetry_space_group_name_H-M    P1
_symmetry_Int_Tables_number       1
_space_group_crystal_system       triclinic
_cell_length_a                    12.167508
_cell_length_b                    12.801365
_cell_length_c                    15.168218
_cell_angle_alpha                 85.531379
_cell_angle_beta                  115.076724
_cell_angle_gamma                 94.083858
_cell_volume                      2131.5007461

loop_
_atom_site_label
_atom_site_type_symbol
_atom_type_description
_atom_site_fract_x
_atom_site_fract_y
_atom_site_fract_z
_atom_type_partial_charge
C1    C     C_R   0.477368 0.299888 0.499269 0.880409
C2    C     C_R   0.585299 0.972925 0.427827 -0.190887
C3    C     C_R   0.411221 0.135085 0.559165 -0.163746
C4    C     C_R   0.588749 0.864789 0.440713 -0.161731
C5    C     C_R   0.520962 0.134494 0.457337 -0.277765
C6    C     C_R   0.479203 0.865407 0.542725 -0.275830
C7    C     C_R   0.526673 0.027014 0.470929 0.173487
C8    C     C_R   0.473447 0.972872 0.529088 0.176423
C9    C     C_R   0.013552 0.611903 0.421742 -0.217603
C10   C     C_R   0.987226 0.388888 0.579668 -0.220487
C11   C     C_R   0.130190 0.600765 0.427050 0.294872
C12   C     C_R   0.522630 0.700089 0.500708 0.874582
C13   C     C_R   0.869792 0.399230 0.573068 0.300934
C14   C     C_R   0.153521 0.446883 0.530587 0.082969
C15   C     C_R   0.847626 0.554127 0.471195 0.034147
C16   C     C_R   0.575607 0.496945 0.680978 0.845956
C17   C     C_R   0.424837 0.508283 0.319001 0.854513
C18   C     C_R   0.035566 0.458183 0.527795 0.045808
C19   C     C_R   0.965314 0.542545 0.473604 0.025468
C20   C     C_R   0.621627 0.518453 0.784349 -0.061821
C21   C     C_R   0.380191 0.531161 0.213560 -0.056787
C22   C     C_R   0.776193 0.591968 0.930289 -0.190945
C23   C     C_R   0.631664 0.657411 0.090178 -0.021085
C24   C     C_R   0.215806 0.555232 0.052973 -0.189544
C25   C     C_R   0.742969 0.550137 0.839571 -0.180363
C26   C     C_R   0.255500 0.531409 0.152711 -0.189441
C27   C     C_R   0.535887 0.526706 0.821752 -0.264403
C28   C     C_R   0.464074 0.560356 0.174508 -0.278711
C29   C     C_R   0.563830 0.581204 0.905166 0.085580
C30   C     C_R   0.425771 0.591120 0.075734 0.089515
C31   C     C_R   0.687134 0.607564 0.963563 0.134562
C32   C     C_R   0.300441 0.581196 0.013623 0.136323
C33   C     C_R   0.472952 0.602096 0.935743 -0.035868
C34   C     C_R   0.346511 0.605320 0.872437 -0.027838
C35   C     C_R   0.510548 0.618312 0.035510 -0.033552
C36   C     C_3   0.826044 0.317309 0.628874 -0.800039
C37   C     C_3   0.173405 0.682255 0.370544 -0.793469
C38   C     C_2   0.663483 0.719972 0.176855 0.354842
C39   C     C_2   0.301967 0.632582 0.766119 0.373759
C40   C     C_2   0.779032 0.648260 0.423631 0.470959
C41   C     C_2   0.224217 0.354629 0.581842 0.396044
C42   C     C_R   0.718937 0.650655 0.053269 -0.207196
C43   C     C_R   0.261717 0.595413 0.912989 -0.208777
C44   C     C_R   0.534991 0.811814 0.497500 -0.054056
C45   C     C_R   0.465052 0.188103 0.502462 -0.055140
C46   C     C_R   0.414746 0.026949 0.572122 -0.192287
H1    H     H_    0.812023 0.678129 0.094718 0.182174
H2    H     H_    0.119305 0.550762 0.006357 0.132770
H3    H     H_    0.437602 0.822930 0.586394 0.153246
H4    H     H_    0.562656 0.176963 0.413748 0.156274
H5    H     H_    0.627655 0.822493 0.402688 0.183590
H6    H     H_    0.372265 0.177390 0.597117 0.187721
H7    H     H_    0.374278 0.986063 0.617132 0.155452
H8    H     H_    0.625741 0.013798 0.382797 0.158203
H9    H     H_    0.903274 0.278108 0.688901 0.199100
H10   H     H_    0.775650 0.351375 0.664274 0.261725
H11   H     H_    0.770705 0.255235 0.579884 0.247963
H12   H     H_    0.165257 0.595334 0.866012 0.185641
H13   H     H_    0.095800 0.720787 0.310278 0.209840
H14   H     H_    0.228605 0.744783 0.419012 0.252235
H15   H     H_    0.223871 0.647998 0.335335 0.256969
H16   H     H_    0.593573 0.741258 0.197901 0.068234
H17   H     H_    0.364185 0.666099 0.736217 0.081357
H18   H     H_    0.684531 0.641365 0.373317 0.064189
H19   H     H_    0.317694 0.363686 0.634008 0.086425
H20   H     H_    0.961016 0.675675 0.376053 0.226615
H21   H     H_    0.040123 0.325604 0.626136 0.188017
H22   H     H_    0.559923 0.555304 0.220936 0.143662
H23   H     H_    0.445481 0.492442 0.783476 0.147823
H24   H     H_    0.188929 0.510997 0.181763 0.158922
H25   H     H_    0.810954 0.545139 0.811800 0.160499
H26   H     H_    0.870585 0.614568 0.973148 0.133578
N1    N     N_R   0.799120 0.480200 0.517090 -0.136713
N2    N     N_R   0.200880 0.519800 0.482910 -0.133514
O1    O     O_R   0.580150 0.341050 0.504560 -0.616876
O2    O     O_2   0.194956 0.619473 0.710847 -0.571562
O3    O     O_2   0.827439 0.735507 0.442881 -0.557195
O4    O     O_2   0.178282 0.266359 0.564391 -0.599973
O5    O     O_R   0.419850 0.658950 0.495440 -0.616901
O6    O     O_R   0.388090 0.353760 0.493600 -0.610435
O7    O     O_R   0.611910 0.646240 0.506400 -0.617087
O8    O     O_R   0.650890 0.490020 0.640860 -0.614179
O9    O     O_R   0.349110 0.509980 0.359140 -0.618005
O10   O     O_R   0.458830 0.502730 0.629890 -0.638235
O11   O     O_R   0.541170 0.497270 0.370110 -0.635518
O12   O     O_2   0.767753 0.751957 0.223897 -0.574910
Zn1   Zn    Zn3+2 0.628240 0.491510 0.507320 0.937591
Zn2   Zn    Zn3+2 0.371760 0.508490 0.492680 0.939507

loop_
_geom_bond_atom_site_label_1
_geom_bond_atom_site_label_2
_ccdc_geom_bond_type
C21   C26   A    
C31   C42   A    
C27   C29   A    
C14   C18   A    
C2    C7    A    
C7    C8    A    
C10   H21   S    
C15   C19   A    
C23   C42   A    
C30   C35   A    
C38   O12   D    
C17   O11   A    
C14   N2    A    
C28   H22   S    
C24   C26   A    
C20   C25   A    
O8    Zn1   S    
C11   N2    A    
C12   O5    A    
C29   C33   A    
C16   O10   A    
C18   C19   A    
C11   C37   S    
C9    H20   S    
N1    Zn1   S    
C43   H12   S    
C9    C19   A    
C22   C25   A    
C25   H25   S    
C27   H23   S    
O9    Zn2   S    
C6    C44   A    
C29   C31   A    
C22   H26   S    
O5    Zn2   S    
O11   Zn1   S    
C22   C31   A    
C4    H5    S    
C34   C39   S    
C1    O1    A    
C13   C36   S    
C36   H11   S    
C2    H8    S    
C41   O4    D    
C5    C7    A    
C6    C8    A    
C4    C44   A    
C5    C45   A    
C3    C45   A    
C17   C21   S    
C17   O9    A    
C24   H2    S    
C2    C4    A    
C24   C32   A    
C36   H10   S    
C16   C20   S    
C16   O8    A    
C33   C34   A    
C37   H13   S    
C39   O2    D    
C9    C11   A    
O7    Zn1   S    
C14   C41   S    
O1    Zn1   S    
C15   N1    A    
C21   C28   A    
C13   N1    A    
C23   C35   A    
C26   H24   S    
C5    H4    S    
C34   C43   A    
O10   Zn2   S    
C10   C13   A    
C37   H15   S    
C3    H6    S    
C20   C27   A    
C23   C38   S    
C39   H17   S    
C3    C46   A    
C40   H18   S    
C28   C30   A    
O6    Zn2   S    
C36   H9    S    
C30   C32   A    
C1    C45   S    
C10   C18   A    
C46   H7    S    
C33   C35   A    
C32   C43   A    
C12   O7    A    
C42   H1    S    
C6    H3    S    
C41   H19   S    
C8    C46   A    
C15   C40   S    
C37   H14   S    
C12   C44   S    
C1    O6    A    
C40   O3    D    
N2    Zn2   S    
C38   H16   S    
