data_mof_unit_65110.cif
_audit_creation_date              2012-12-10T18:30:08-0500
_audit_creation_method            fapswitch 2.2
_symmetry_space_group_name_H-M    P1
_symmetry_Int_Tables_number       1
_space_group_crystal_system       triclinic
_cell_length_a                    21.34626
_cell_length_b                    24.929012
_cell_length_c                    24.986149
_cell_angle_alpha                 100.519124
_cell_angle_beta                  115.426239
_cell_angle_gamma                 64.760387
_cell_volume                      10861.8735457

loop_
_atom_site_label
_atom_site_type_symbol
_atom_type_description
_atom_site_fract_x
_atom_site_fract_y
_atom_site_fract_z
_atom_type_partial_charge
C1    C     C_R   0.000029 0.918808 0.418815 0.900191
C2    C     C_3   0.696874 0.054817 0.489288 -0.135936
C3    C     C_3   0.734922 0.017572 0.447361 0.623195
C4    C     C_3   0.811262 0.999825 0.499950 -0.148688
C5    C     C_3   0.057248 0.730412 0.318009 -0.503517
C6    C     C_3   0.016813 0.806210 0.243738 -0.350511
C7    C     C_3   0.018289 0.757352 0.195105 -0.142908
C8    C     C_1   0.999870 0.625638 0.125228 -0.147505
C9    C     C_3   0.996696 0.791708 0.290662 0.123518
C10   C     C_3   0.054549 0.681509 0.270199 -0.375495
C11   C     C_3   0.997627 0.709302 0.208194 0.131669
C12   C     C_R   0.878307 0.999515 0.499498 0.955541
C13   C     C_3   0.916673 0.741359 0.208586 -0.324413
C14   C     C_3   0.916537 0.789315 0.259439 0.509191
C15   C     C_1   0.999140 0.663232 0.162568 -0.065479
C16   C     C_1   0.998405 0.837145 0.336749 -0.009910
C17   C     C_1   0.999396 0.874444 0.374379 -0.126869
C18   C     C_3   0.231709 0.036634 0.540462 0.702356
C19   C     C_3   0.237161 0.054768 0.487546 -0.225630
C20   C     C_3   0.310750 0.999639 0.499719 -0.064587
C21   C     C_3   0.306371 0.982177 0.553362 -0.229573
C22   C     C_3   0.262979 0.944301 0.511438 -0.236627
C23   C     C_R   0.999952 0.081205 0.581197 0.949754
C24   C     C_3   0.268720 0.961650 0.457868 -0.125026
C25   C     C_3   0.193971 0.016720 0.445804 -0.245839
C26   C     C_3   0.189270 0.999305 0.499318 -0.091231
C27   C     C_3   0.961479 0.201330 0.749473 -0.251541
C28   C     C_3   0.953238 0.271022 0.680909 -0.379214
C29   C     C_3   0.953195 0.319395 0.729597 0.500252
C30   C     C_1   0.999518 0.374409 0.874575 -0.118564
C31   C     C_3   0.997052 0.208365 0.709314 0.191051
C32   C     C_3   0.959055 0.251667 0.797275 -0.123683
C33   C     C_3   0.997844 0.290332 0.792084 0.101329
C34   C     C_R   0.121859 0.999761 0.499772 0.916659
C35   C     C_3   0.079542 0.250513 0.797719 -0.539501
C36   C     C_3   0.079070 0.201953 0.749322 -0.423639
C37   C     C_1   0.998879 0.336618 0.837378 -0.001451
C38   C     C_1   0.998233 0.162927 0.663260 -0.057869
C39   C     C_1   0.999111 0.125599 0.625642 -0.118305
C40   C     C_R   0.418880 0.081231 0.418816 0.888970
C41   C     C_R   0.621841 0.999921 0.500174 0.971098
C42   C     C_R   0.581318 0.918707 0.581247 0.940198
C43   C     C_R   0.378190 0.999870 0.499972 0.882807
C44   C     C_R   0.081018 0.418975 0.080932 0.895845
C45   C     C_3   0.804420 0.944346 0.511352 -0.294541
C46   C     C_R   0.999954 0.581142 0.080908 0.892489
C47   C     C_R   0.918771 0.581237 0.918863 0.897836
C48   C     C_R   0.999752 0.419079 0.918814 0.899002
C49   C     C_3   0.232281 0.262089 0.310239 0.517060
C50   C     C_3   0.248642 0.183789 0.232293 -0.513407
C51   C     C_3   0.200010 0.232285 0.183682 -0.394361
C52   C     C_1   0.125593 0.374493 0.125484 -0.160325
C53   C     C_3   0.291190 0.209285 0.291286 0.211132
C54   C     C_3   0.183998 0.310697 0.261625 -0.432559
C55   C     C_3   0.208932 0.291371 0.208923 0.251246
C56   C     C_3   0.726809 0.962329 0.457975 -0.218086
C57   C     C_3   0.293229 0.280849 0.232025 -0.387076
C58   C     C_3   0.341865 0.232209 0.280493 -0.349598
C59   C     C_1   0.163180 0.337012 0.163083 -0.071403
C60   C     C_1   0.336974 0.163395 0.336897 -0.036956
C61   C     C_1   0.374469 0.125777 0.374350 -0.139302
C62   C     C_3   0.776895 0.803244 0.754387 -0.410396
C63   C     C_3   0.736746 0.729221 0.680806 -0.399116
C64   C     C_3   0.783659 0.680438 0.729132 0.514516
C65   C     C_1   0.874233 0.625664 0.874406 -0.136437
C66   C     C_3   0.707348 0.790915 0.708746 0.196083
C67   C     C_3   0.689311 0.999838 0.500554 -0.133987
C68   C     C_3   0.825754 0.754784 0.802991 -0.376301
C69   C     C_3   0.790313 0.708709 0.791070 0.178499
C70   C     C_3   0.710070 0.741125 0.790912 -0.499056
C71   C     C_3   0.660713 0.790526 0.742665 -0.145999
C72   C     C_1   0.836489 0.663116 0.836863 -0.022359
C73   C     C_1   0.662507 0.836744 0.663095 -0.080341
C74   C     C_1   0.625479 0.874267 0.625649 -0.134867
C75   C     C_3   0.765867 0.982002 0.553418 -0.016052
C76   C     C_3   0.773857 0.036973 0.542149 -0.113233
H1    H     H_    0.706303 0.932090 0.423127 0.196990
H2    H     H_    0.071930 0.810957 0.265928 0.197837
H3    H     H_    0.974104 0.778973 0.152126 0.103428
H4    H     H_    0.049299 0.719295 0.355128 0.169976
H5    H     H_    0.038538 0.649484 0.281575 0.155568
H6    H     H_    0.879079 0.765542 0.165608 0.226359
H7    H     H_    0.228515 0.099887 0.478371 0.161895
H8    H     H_    0.849949 0.899226 0.520567 0.184562
H9    H     H_    0.353653 0.968638 0.597339 0.151944
H10   H     H_    0.271702 0.899263 0.520932 0.174779
H11   H     H_    0.285505 0.930754 0.423819 0.166077
H12   H     H_    0.146618 0.030546 0.401904 0.173231
H13   H     H_    0.899399 0.281498 0.789221 0.248549
H14   H     H_    0.980324 0.275873 0.653668 0.137410
H15   H     H_    0.894561 0.277266 0.650188 0.255677
H16   H     H_    0.979942 0.347135 0.724975 0.088210
H17   H     H_    0.112611 0.157431 0.770661 0.194004
H18   H     H_    0.106958 0.205641 0.722160 0.208041
H19   H     H_    0.114713 0.229620 0.842287 0.198187
H20   H     H_    0.998921 0.157475 0.771982 0.096399
H21   H     H_    0.106429 0.278023 0.792891 0.198203
H22   H     H_    0.123437 0.318664 0.246044 0.141852
H23   H     H_    0.194666 0.246262 0.316980 0.071970
H24   H     H_    0.289599 0.145745 0.217624 0.209466
H25   H     H_    0.211801 0.166853 0.238734 0.178835
H26   H     H_    0.139801 0.238716 0.166857 0.186397
H27   H     H_    0.217573 0.217503 0.145658 0.192269
H28   H     H_    0.373638 0.250518 0.322228 0.223525
H29   H     H_    0.384124 0.194940 0.266408 0.173176
H30   H     H_    0.301114 0.322717 0.250619 0.190974
H31   H     H_    0.189805 0.353222 0.280352 0.215290
H32   H     H_    0.312469 0.267089 0.194869 0.181375
H33   H     H_    0.883807 0.732538 0.803868 0.223889
H34   H     H_    0.811492 0.804147 0.731830 0.202972
H35   H     H_    0.689211 0.719116 0.645736 0.189592
H36   H     H_    0.772225 0.729393 0.658741 0.210051
H37   H     H_    0.755429 0.649073 0.719276 0.113054
H38   H     H_    0.645955 0.833924 0.765815 0.116503
H39   H     H_    0.713573 0.761516 0.835111 0.185125
H40   H     H_    0.758391 0.847495 0.775230 0.186211
H41   H     H_    0.830389 0.775756 0.847129 0.171882
H42   H     H_    0.684563 0.708337 0.783808 0.214688
H43   H     H_    0.111850 0.655640 0.270405 0.239303
H44   H     H_    0.114282 0.731703 0.337160 0.237572
H45   H     H_    0.974605 0.849907 0.222765 0.202734
O1    O     O_R   0.034680 0.903860 0.473250 -0.628475
O2    O     O_R   0.438620 0.026720 0.403950 -0.626391
O3    O     O_R   0.593070 0.034630 0.534720 -0.561670
O4    O     O_R   0.593090 0.965250 0.465380 -0.638655
O5    O     O_R   0.561490 0.973170 0.596160 -0.599627
O6    O     O_R   0.561500 0.903790 0.526820 -0.620313
O7    O     O_R   0.407020 0.034640 0.534730 -0.623299
O8    O     O_R   0.407040 0.965260 0.465390 -0.629799
O9    O     O_R   0.113850 0.438650 0.061280 -0.616116
O10   O     O_R   0.008840 0.438630 0.061310 -0.609424
O11   O     O_R   0.052380 0.561560 0.061290 -0.619987
O12   O     O_R   0.965310 0.973280 0.403900 -0.600713
O13   O     O_R   0.947370 0.561540 0.061320 -0.599708
O14   O     O_R   0.990910 0.561610 0.938440 -0.608600
O15   O     O_R   0.885900 0.561600 0.938470 -0.610174
O16   O     O_R   0.052380 0.438700 0.938430 -0.619905
O17   O     O_R   0.947370 0.438690 0.938460 -0.593765
O18   O     O_R   0.941660 0.965300 0.534680 -0.650240
O19   O     O_R   0.872290 0.034710 0.465330 -0.560960
O20   O     O_R   0.034690 0.026720 0.596100 -0.628286
O21   O     O_R   0.965320 0.096140 0.526750 -0.598331
O22   O     O_R   0.127710 0.965290 0.534670 -0.622235
O23   O     O_R   0.058340 0.034700 0.465320 -0.628719
O24   O     O_R   0.438600 0.096100 0.473280 -0.591486
Zn1   Zn    Zn3+2 0.046320 0.953650 0.546300 0.979708
Zn2   Zn    Zn3+2 0.953680 0.046350 0.453700 1.058809
Zn3   Zn    Zn3+2 0.500040 0.046270 0.546350 1.066102
Zn4   Zn    Zn3+2 0.500070 0.953620 0.453760 0.991039
Zn5   Zn    Zn3+2 0.069990 0.500130 0.999860 0.996253
Zn6   Zn    Zn3+2 0.929760 0.500110 0.999900 1.032500
C77   C     C_2   0.092166 0.731615 0.187164 0.413759
H46   H     H_    0.091375 0.725399 0.142776 0.065613
O25   O     O_2   0.152732 0.716151 0.229605 -0.562443
C78   C     C_2   0.892558 0.778643 0.304449 0.445691
H47   H     H_    0.924152 0.737798 0.329803 -0.022832
O26   O     O_2   0.837406 0.815742 0.312595 -0.478438
F1    F     F_    0.864902 0.844187 0.233246 -0.616611
C79   C     C_2   0.884227 0.698062 0.209724 0.419712
H48   H     H_    0.911882 0.667551 0.246442 0.051298
O27   O     O_2   0.826595 0.696997 0.169080 -0.514301
F2    F     F_    0.210483 0.075055 0.582773 -0.670007
C80   C     C_2   0.884870 0.198250 0.714671 0.468322
H49   H     H_    0.879862 0.155878 0.709423 0.066054
O28   O     O_2   0.828780 0.242219 0.691232 -0.491335
F3    F     F_    0.879591 0.356345 0.721886 -0.620812
C81   C     C_2   0.785511 0.960946 0.613247 0.396432
H50   H     H_    0.842270 0.950519 0.646733 0.051679
O29   O     O_2   0.738533 0.955252 0.624633 -0.564857
C82   C     C_2   0.994417 0.225662 0.858626 0.358268
H51   H     H_    0.052164 0.193378 0.875664 0.075865
O30   O     O_2   0.958131 0.240389 0.889372 -0.537120
C83   C     C_2   0.801769 0.078089 0.588617 0.455151
H52   H     H_    0.816573 0.071191 0.634833 0.041232
O31   O     O_2   0.807837 0.119488 0.574632 -0.546249
F4    F     F_    0.267968 0.285784 0.363456 -0.644750
C84   C     C_2   0.636012 0.115838 0.475755 0.482884
H53   H     H_    0.612746 0.135234 0.432451 0.087161
O32   O     O_2   0.611786 0.143618 0.513051 -0.517417
F5    F     F_    0.854618 0.648519 0.728163 -0.650979
C85   C     C_2   0.586567 0.785523 0.702023 0.402064
H54   H     H_    0.534632 0.824886 0.691816 0.062931
O33   O     O_2   0.584125 0.738379 0.679184 -0.563305
F6    F     F_    0.720591 0.035881 0.392765 -0.638449

loop_
_geom_bond_atom_site_label_1
_geom_bond_atom_site_label_2
_ccdc_geom_bond_type
O22   Zn1   S    
C48   O17   A    
O2    Zn4   S    
O18   Zn1   S    
C55   C59   S    
C14   C78   S    
C78   O26   D    
C18   C21   S    
O11   Zn5   S    
C73   C74   T    
C71   C85   S    
O10   Zn6   S    
C19   C20   S    
C18   C26   S    
C9    C14   S    
C20   C43   S    
C6    C9    S    
C41   C67   S    
C85   H54   S    
C44   O10   A    
C7    C11   S    
O3    Zn3   S    
C34   O23   A    
C48   O16   A    
C14   F1    S    
C41   O3    A    
C30   C48   S    
C28   C29   S    
C80   O28   D    
C9    C16   S    
C46   O11   A    
C38   C39   T    
C64   F5    S    
C1    O12   A    
C6    H2    S    
C49   H23   S    
C82   H51   S    
C51   H27   S    
C49   C54   S    
C29   C33   S    
C11   C13   S    
C18   C19   S    
C40   O24   A    
C63   H36   S    
C1    O1    A    
C10   H43   S    
C27   C80   S    
C68   C69   S    
C11   C15   S    
C36   H17   S    
C26   C34   S    
C80   H49   S    
C45   C56   S    
C16   C17   T    
C84   O32   D    
O9    Zn5   S    
C79   O27   D    
C23   O21   A    
C70   C71   S    
O12   Zn2   S    
C2    C84   S    
C13   C14   S    
C4    C12   S    
C3    F6    S    
C44   C52   S    
C85   O33   D    
C57   H30   S    
C29   H16   S    
C63   C66   S    
C21   C22   S    
C27   H20   S    
C65   C72   T    
O23   Zn2   S    
C19   H7    S    
O19   Zn2   S    
C53   C60   S    
C4    C45   S    
C83   O31   D    
C21   H9    S    
C34   O22   A    
C42   C74   S    
C50   C53   S    
C62   C66   S    
C5    H44   S    
C27   C31   S    
C20   C24   S    
C43   O8    A    
C24   C25   S    
C81   O29   D    
C2    C67   S    
C10   C11   S    
C81   H50   S    
O5    Zn3   S    
O7    Zn3   S    
O1    Zn1   S    
C25   C26   S    
C83   H52   S    
C66   C73   S    
C13   H6    S    
C25   H12   S    
C33   C37   S    
C56   H1    S    
C7    C77   S    
C30   C37   T    
C60   C61   T    
C51   H26   S    
C35   C36   S    
C29   F3    S    
C69   C72   S    
C75   C76   S    
C66   C71   S    
C5    C9    S    
C52   C59   T    
C41   O4    A    
C68   H41   S    
C46   O13   A    
C3    C56   S    
C79   H48   S    
C62   H34   S    
C12   O19   A    
C50   C51   S    
C12   O18   A    
C64   C69   S    
C20   C21   S    
C5    H4    S    
O4    Zn4   S    
C42   O6    A    
C54   H31   S    
C77   O25   D    
C8    C15   T    
C55   C57   S    
C32   H13   S    
C70   H39   S    
C22   C24   S    
O16   Zn5   S    
C45   H8    S    
C58   H28   S    
C42   O5    A    
C3    C4    S    
C56   C67   S    
O15   Zn6   S    
C2    C76   S    
O24   Zn3   S    
C7    H3    S    
C40   O2    A    
C32   C82   S    
C54   C55   S    
C76   C83   S    
C64   H37   S    
C47   O14   A    
C27   C32   S    
C1    C17   S    
O21   Zn2   S    
C28   C31   S    
C23   O20   A    
C43   O7    A    
C75   C81   S    
C53   C58   S    
C6    C7    S    
C35   H19   S    
O17   Zn6   S    
O14   Zn5   S    
C10   H5    S    
C50   H24   S    
C31   C38   S    
C62   C68   S    
C45   C75   S    
C58   H29   S    
C32   C33   S    
C2    C3    S    
C5    C10   S    
O6    Zn4   S    
C18   F2    S    
C47   O15   A    
C57   C58   S    
C82   O30   D    
C70   H42   S    
C23   C39   S    
O13   Zn6   S    
C33   C35   S    
C47   C65   S    
C28   H15   S    
C51   C55   S    
C68   H33   S    
C22   H10   S    
C63   H35   S    
C69   C70   S    
C19   C25   S    
C24   H11   S    
C8    C46   S    
C4    C76   S    
C49   C53   S    
C62   H40   S    
C40   C61   S    
C63   C64   S    
C36   H18   S    
C57   H32   S    
C67   C75   S    
C77   H46   S    
C71   H38   S    
C50   H25   S    
C84   H53   S    
C22   C26   S    
C78   H47   S    
O20   Zn1   S    
C31   C36   S    
C54   H22   S    
C28   H14   S    
C6    H45   S    
O8    Zn4   S    
C35   H21   S    
C44   O9    A    
C13   C79   S    
C49   F4    S    
