data_mof_unit_39006.cif
_audit_creation_date              2012-12-10T17:24:44-0500
_audit_creation_method            fapswitch 2.2
_symmetry_space_group_name_H-M    P1
_symmetry_Int_Tables_number       1
_space_group_crystal_system       triclinic
_cell_length_a                    23.337231
_cell_length_b                    10.82388
_cell_length_c                    9.602338
_cell_angle_alpha                 89.229594
_cell_angle_beta                  88.009395
_cell_angle_gamma                 91.009295
_cell_volume                      2423.46502196

loop_
_atom_site_label
_atom_site_type_symbol
_atom_type_description
_atom_site_fract_x
_atom_site_fract_y
_atom_site_fract_z
_atom_type_partial_charge
C1    C     C_R   0.496845 0.262150 0.502256 0.776761
C2    C     C_R   0.959725 0.394136 0.756476 -0.183995
C3    C     C_R   0.019431 0.386884 0.766103 0.327248
C4    C     C_R   0.055942 0.454530 0.668014 -0.151061
C5    C     C_R   0.030258 0.529689 0.566537 -0.036333
C6    C     C_R   0.064850 0.605836 0.477148 -0.013685
C7    C     C_R   0.039491 0.685372 0.381245 -0.136708
C8    C     C_R   0.980202 0.684411 0.368396 -0.125465
C9    C     C_R   0.116900 0.451168 0.664277 0.666696
C10   C     C_R   0.124414 0.597764 0.482687 0.610080
C11   C     C_R   0.237518 0.506361 0.392642 0.423659
C12   C     C_R   0.390848 0.495596 0.502115 0.832991
C13   C     C_R   0.297037 0.521849 0.393295 -0.283990
C14   C     C_R   0.327926 0.478641 0.505974 -0.257335
C15   C     C_R   0.299020 0.400998 0.606812 0.327165
C16   C     C_R   0.239300 0.383432 0.601293 0.391032
C17   C     C_R   0.207706 0.463746 0.516179 0.011903
C18   C     C_R   0.764659 0.406577 0.474921 0.447890
C19   C     C_R   0.704321 0.396469 0.476178 0.381100
C20   C     C_R   0.671384 0.503847 0.497436 -0.167187
C21   C     C_R   0.698361 0.616045 0.527975 -0.269740
C22   C     C_R   0.757551 0.623457 0.537221 -0.129519
C23   C     C_R   0.496849 0.736845 0.499201 0.763605
C24   C     C_R   0.791096 0.519807 0.511693 0.143907
C25   C     C_R   0.436473 0.111656 0.736450 -0.298597
C26   C     C_R   0.404350 0.040543 0.835310 0.299150
C27   C     C_R   0.391337 0.916315 0.806515 0.371336
C28   C     C_R   0.418751 0.861223 0.693078 -0.194374
C29   C     C_R   0.457197 0.928726 0.602750 0.017768
C30   C     C_R   0.462034 0.058300 0.615617 0.047419
C31   C     C_R   0.492612 0.127201 0.507315 -0.055764
C32   C     C_R   0.519270 0.065602 0.396123 -0.139311
C33   C     C_R   0.519230 0.938426 0.393141 -0.180127
C34   C     C_R   0.608818 0.500562 0.498448 0.804722
C35   C     C_R   0.489937 0.869713 0.497550 -0.053863
C36   C     C_R   0.603313 0.547973 0.115303 0.426402
C37   C     C_R   0.639378 0.642699 0.060747 -0.212918
C38   C     C_R   0.628289 0.693520 0.930485 -0.236937
C39   C     C_R   0.582356 0.646740 0.856504 -0.119481
C40   C     C_R   0.542549 0.562664 0.921814 0.222365
C41   C     C_R   0.547301 0.542015 0.066969 0.084758
C42   C     C_R   0.454715 0.455053 0.078423 0.080404
C43   C     C_R   0.456066 0.449269 0.930373 0.018378
C44   C     C_R   0.885336 0.602094 0.441573 0.623356
C45   C     C_R   0.875138 0.466229 0.638970 0.644770
C46   C     C_R   0.934850 0.464464 0.652170 -0.092358
C47   C     C_R   0.970046 0.533691 0.557960 0.001324
C48   C     C_R   0.945037 0.607701 0.455258 -0.013625
Cu1   Cu    Cu3+1 0.500000 0.499990 0.640660 0.970365
Cu2   Cu    Cu3+1 0.500000 0.500010 0.359340 1.015915
H1    H     H_    0.932143 0.341847 0.829415 0.238101
H2    H     H_    0.673265 0.697665 0.547912 0.161513
H3    H     H_    0.777567 0.710103 0.565689 0.191181
H4    H     H_    0.542553 0.116039 0.313369 0.201903
H5    H     H_    0.441846 0.207291 0.760846 0.208614
H6    H     H_    0.408183 0.765285 0.674472 0.194993
H7    H     H_    0.543401 0.893491 0.310381 0.160954
H8    H     H_    0.417849 0.417089 0.136492 0.191598
H9    H     H_    0.680823 0.660199 0.104580 0.199771
H10   H     H_    0.658252 0.759530 0.881394 0.186865
H11   H     H_    0.578915 0.680224 0.751944 0.188565
H12   H     H_    0.420491 0.406473 0.879045 0.186456
H13   H     H_    0.065544 0.744562 0.311628 0.210287
H14   H     H_    0.962085 0.743586 0.290087 0.202804
H15   H     H_    0.319431 0.562240 0.302469 0.219363
N1    N     N_R   0.851855 0.529356 0.530683 -0.439848
N2    N     N_R   0.148496 0.501003 0.552298 -0.437244
N3    N     N_R   0.500540 0.501210 0.147910 -0.218122
N4    N     N_R   0.500560 0.501290 0.852040 -0.208948
O1    O     O_R   0.500000 0.319640 0.618810 -0.594785
O2    O     O_2   0.840564 0.404519 0.732704 -0.477406
O3    O     O_2   0.144086 0.408145 0.775158 -0.379541
O4    O     O_2   0.157628 0.687893 0.422301 -0.469523
O5    O     O_R   0.500000 0.319660 0.381240 -0.526393
O6    O     O_R   0.417880 0.499950 0.618810 -0.583766
O7    O     O_R   0.417880 0.499980 0.381240 -0.582211
O8    O     O_R   0.500000 0.680340 0.618760 -0.613910
O9    O     O_R   0.500000 0.680360 0.381190 -0.578260
O10   O     O_R   0.582120 0.500020 0.618760 -0.567935
O11   O     O_R   0.582120 0.500050 0.381190 -0.554522
O12   O     O_2   0.861054 0.667112 0.339006 -0.499125
O13   O     O_3   0.679527 0.281119 0.456943 -0.626522
H16   H     H_    0.637580 0.283947 0.474546 0.327477
S1    S     S_3+6 0.387488 0.107164 0.999021 0.016016
O14   O     O_2   0.342014 0.202105 0.981810 -0.214898
O15   O     O_2   0.367032 0.012584 0.106434 -0.234977
O16   O     O_3   0.446821 0.177321 0.056293 -0.543266
H17   H     H_    0.474774 0.110340 0.067078 0.353058
O17   O     O_3   0.352920 0.845253 0.886470 -0.662722
H18   H     H_    0.322648 0.900232 0.923150 0.383187
S2    S     S_3+6 0.044198 0.285381 0.897402 0.116659
O18   O     O_2   0.077652 0.357911 0.000194 -0.153146
O19   O     O_2   0.994965 0.220708 0.974855 -0.267556
O20   O     O_3   0.086450 0.177974 0.825190 -0.375964
H19   H     H_    0.061820 0.134191 0.759132 0.356186
S3    S     S_3+6 0.638123 0.404108 0.121669 0.047951
O21   O     O_2   0.697062 0.420244 0.177476 -0.262446
O22   O     O_2   0.603837 0.310964 0.208452 -0.284182
O23   O     O_3   0.644520 0.351630 0.957883 -0.508274
H20   H     H_    0.665029 0.272662 0.966101 0.393233
S4    S     S_3+6 0.205888 0.504475 0.227359 0.117759
O24   O     O_2   0.205846 0.633347 0.166799 -0.227354
O25   O     O_2   0.241122 0.425142 0.131218 -0.172406
O26   O     O_3   0.138694 0.445432 0.239613 -0.458348
H21   H     H_    0.114267 0.509014 0.197949 0.377739
O27   O     O_3   0.327942 0.328911 0.699816 -0.665096
H22   H     H_    0.365344 0.307307 0.656272 0.320254
S5    S     S_3+6 0.214003 0.229345 0.633483 0.144273
O28   O     O_2   0.156227 0.208563 0.572565 -0.222192
O29   O     O_2   0.255336 0.141349 0.565951 -0.254590
O30   O     O_3   0.210019 0.199719 0.806126 -0.355382
H23   H     H_    0.246626 0.160042 0.827769 0.395182
S6    S     S_3+6 0.806185 0.276903 0.426363 0.103748
O31   O     O_2   0.812508 0.195070 0.552378 -0.243520
O32   O     O_2   0.776501 0.204860 0.316246 -0.172023
O33   O     O_3   0.871524 0.321554 0.363068 -0.528548
H24   H     H_    0.893915 0.244749 0.358286 0.389167

loop_
_geom_bond_atom_site_label_1
_geom_bond_atom_site_label_2
_ccdc_geom_bond_type
O16   H17   S    
S4    O24   D    
C45   O2    S    
C44   N1    A    
C19   C20   A    
S1    O16   S    
C42   H8    S    
C9    N2    A    
C28   H6    S    
C7    C8    A    
C13   H15   S    
C10   N2    A    
O33   H24   S    
C5    C47   A    
C26   C27   A    
C29   C30   A    
C18   C24   A    
C1    O5    A    
C15   O27   S    
C28   C29   A    
S1    O15   D    
Cu2   O5    S    
C30   C31   A    
C10   O4    S    
O27   H22   S    
C15   C16   A    
S3    O23   S    
C1    C31   S    
S5    O28   D    
C3    S2    S    
C18   C19   A    
C34   O11   A    
C47   C48   A    
S5    O29   D    
C16   C17   A    
S3    O22   D    
C33   H7    S    
Cu1   O6    S    
C13   C14   A    
C41   N3    A    
C19   O13   S    
C24   N1    S    
S6    O33   S    
C20   C34   S    
S4    O25   D    
Cu1   N4    S    
C21   C22   A    
C42   N3    A    
C36   C41   A    
Cu2   O9    S    
C18   S6    S    
C32   H4    S    
O26   H21   S    
C22   H3    S    
C38   C39   A    
C39   H11   S    
C17   N2    S    
C40   N4    A    
S1    O14   D    
C44   O12   S    
S2    O18   D    
C9    O3    S    
C25   C26   A    
C45   C46   A    
C2    C46   A    
Cu1   O10   S    
C8    C48   A    
C37   C38   A    
Cu2   O7    S    
C34   O10   A    
S2    O19   D    
C36   S3    S    
O23   H20   S    
S3    O21   D    
C11   S4    S    
C23   O8    A    
C7    H13   S    
C37   H9    S    
C8    H14   S    
C38   H10   S    
C40   C41   A    
C12   C14   S    
Cu1   Cu2   S    
S4    O26   S    
C23   C35   S    
Cu1   O1    S    
C12   O7    A    
C22   C24   A    
C42   C43   A    
C3    C4    A    
C39   C40   A    
S6    O31   D    
C25   C30   A    
C46   C47   A    
C11   C17   A    
C26   S1    S    
O30   H23   S    
C31   C32   A    
C25   H5    S    
C4    C5    A    
Cu2   O11   S    
C6    C10   A    
C6    C7    A    
C29   C35   A    
C1    O1    A    
S5    O30   S    
C32   C33   A    
C2    C3    A    
O17   H18   S    
S2    O20   S    
C11   C13   A    
C5    C6    A    
C33   C35   A    
Cu1   O8    S    
C27   O17   S    
C23   O9    A    
O20   H19   S    
C2    H1    S    
C16   S5    S    
C20   C21   A    
C36   C37   A    
O13   H16   S    
C12   O6    A    
C45   N1    A    
C14   C15   A    
S6    O32   D    
C4    C9    A    
C43   N4    A    
Cu2   N3    S    
C21   H2    S    
C44   C48   A    
C43   H12   S    
C27   C28   A    
