data_mof_unit_61972.cif
_audit_creation_date              2012-12-10T20:46:43-0500
_audit_creation_method            fapswitch 2.2
_symmetry_space_group_name_H-M    P1
_symmetry_Int_Tables_number       1
_space_group_crystal_system       triclinic
_cell_length_a                    15.452082
_cell_length_b                    19.217565
_cell_length_c                    19.190998
_cell_angle_alpha                 94.852152
_cell_angle_beta                  101.870627
_cell_angle_gamma                 97.381798
_cell_volume                      5494.39856417

loop_
_atom_site_label
_atom_site_type_symbol
_atom_type_description
_atom_site_fract_x
_atom_site_fract_y
_atom_site_fract_z
_atom_type_partial_charge
C1    C     C_R   0.509424 0.311940 0.493112 0.590044
C2    C     C_R   0.882787 0.516356 0.505930 0.364608
C3    C     C_R   0.886194 0.589561 0.616582 -0.004987
C4    C     C_R   0.491409 0.688505 0.506750 0.563402
C5    C     C_R   0.159018 0.455093 0.448644 0.038898
C6    C     C_R   0.491701 0.765798 0.511454 -0.064672
C7    C     C_R   0.512065 0.801522 0.454638 0.396047
C8    C     C_R   0.519160 0.874542 0.458341 0.461718
C9    C     C_R   0.504421 0.914324 0.518954 0.144239
C10   C     C_R   0.484332 0.879514 0.576925 -0.031262
C11   C     C_R   0.477565 0.804948 0.573148 -0.074649
C12   C     C_R   0.029835 0.450906 0.350663 0.022052
C13   C     C_R   0.440021 0.119325 0.509808 -0.076587
C14   C     C_R   0.445608 0.193666 0.518416 -0.038161
C15   C     C_R   0.498403 0.087944 0.473169 0.192273
C16   C     C_R   0.508964 0.508578 0.690755 0.607456
C17   C     C_R   0.510099 0.235609 0.490632 -0.056287
C18   C     C_R   0.566988 0.203595 0.452764 -0.003251
C19   C     C_R   0.559378 0.129687 0.443904 0.423079
C20   C     C_R   0.488465 0.486774 0.232087 -0.098110
C21   C     C_R   0.482761 0.547174 0.194695 -0.052853
C22   C     C_R   0.493004 0.542455 0.123460 0.363338
C23   C     C_R   0.989783 0.491097 0.396800 0.039940
C24   C     C_R   0.507082 0.478333 0.089219 0.170555
C25   C     C_R   0.512491 0.419327 0.126756 0.420074
C26   C     C_R   0.502190 0.423099 0.197353 0.388054
C27   C     C_R   0.497011 0.439298 0.867711 -0.016885
C28   C     C_R   0.490181 0.491168 0.309057 0.600121
C29   C     C_R   0.513286 0.444286 0.798650 0.307442
C30   C     C_R   0.477137 0.499793 0.905983 0.092448
C31   C     C_R   0.505205 0.506863 0.766451 -0.022360
C32   C     C_R   0.482954 0.565298 0.804132 0.364730
C33   C     C_R   0.469254 0.561600 0.873148 0.455536
C34   C     C_R   0.024164 0.496694 0.472503 0.004137
C35   C     C_R   0.741198 0.535007 0.535163 0.609126
C36   C     C_R   0.257836 0.465260 0.466535 0.559229
C37   C     C_R   0.978609 0.588025 0.637475 0.397278
C38   C     C_R   0.838315 0.549973 0.551857 -0.015695
C39   C     C_R   0.114911 0.433959 0.376946 0.366280
C40   C     C_2   0.839987 0.629927 0.663920 0.641125
C41   C     C_2   0.372780 0.073844 0.538195 0.688388
C42   C     C_2   0.469394 0.921855 0.641039 0.671637
C43   C     C_2   0.462483 0.769110 0.635859 0.669269
C44   C     C_2   0.633521 0.246117 0.420855 0.654240
C45   C     C_R   0.110189 0.478854 0.498784 -0.073205
C46   C     C_2   0.494288 0.369500 0.895672 0.706936
C47   C     C_2   0.153174 0.547710 0.696538 0.710822
C48   C     C_2   0.464460 0.614996 0.228132 0.693215
C49   C     C_2   0.927859 0.540016 0.366146 0.663502
C50   C     C_2   0.987582 0.430748 0.273711 0.681686
C51   C     C_2   0.212625 0.441936 0.605587 0.597590
C52   C     C_2   0.380827 0.227203 0.552934 0.587765
C53   C     C_R   0.976484 0.521880 0.522781 0.009830
C54   C     C_R   0.022678 0.548481 0.593622 -0.047862
C55   C     C_R   0.108585 0.530522 0.619739 0.045926
C56   C     C_R   0.146102 0.487196 0.574154 0.038221
F1    F     F_    0.542133 0.906076 0.402665 -0.474942
F2    F     F_    0.025195 0.626375 0.699658 -0.521848
F3    F     F_    0.833311 0.471459 0.448902 -0.603724
F4    F     F_    0.157737 0.402251 0.330712 -0.534687
F5    F     F_    0.614244 0.097464 0.409034 -0.485762
F6    F     F_    0.525149 0.765497 0.394552 -0.531624
F7    F     F_    0.529127 0.386320 0.760256 -0.524642
F8    F     F_    0.527719 0.357823 0.094535 -0.491306
F9    F     F_    0.509777 0.365311 0.233050 -0.511877
F10   F     F_    0.474640 0.626281 0.774086 -0.523985
F11   F     F_    0.489709 0.600218 0.087253 -0.477922
F12   F     F_    0.448791 0.619080 0.908979 -0.454031
H1    H     H_    0.736306 0.681924 0.672256 0.363217
H2    H     H_    0.877790 0.385346 0.199867 0.378213
H3    H     H_    0.254628 0.347139 0.600373 0.360544
H4    H     H_    0.252856 0.224865 0.562743 0.368814
H5    H     H_    0.417202 0.120648 0.639889 0.325232
H6    H     H_    0.506927 0.010229 0.711241 0.373524
H7    H     H_    0.375014 0.712644 0.681982 0.409090
H8    H     H_    0.719077 0.336285 0.426929 0.390804
H9    H     H_    0.545915 0.278493 0.903412 0.376536
H10   H     H_    0.151044 0.533027 0.798972 0.383201
H11   H     H_    0.484050 0.721492 0.235688 0.399369
H12   H     H_    0.891696 0.637124 0.374922 0.373505
N1    N     N_2   0.508029 0.989031 0.523613 -0.161896
N2    N     N_2   0.497328 0.013894 0.465052 -0.045025
N3    N     N_2   0.519078 0.472808 0.017830 -0.126612
N4    N     N_2   0.464181 0.501446 0.977100 -0.061990
O1    O     O_3   0.500000 0.500000 0.500000 -0.523632
O2    O     O_R   0.703360 0.489010 0.567610 -0.518583
O3    O     O_R   0.300660 0.429640 0.429680 -0.454766
O4    O     O_R   0.695340 0.566530 0.487850 -0.484615
O5    O     O_R   0.300650 0.514820 0.514850 -0.542151
O6    O     O_2   0.870849 0.641184 0.728521 -0.355281
O7    O     O_R   0.761344 0.655666 0.634668 -0.699440
O8    O     O_2   0.321391 0.026596 0.498177 -0.362923
O9    O     O_R   0.367895 0.083525 0.610241 -0.583353
O10   O     O_2   0.409000 0.900764 0.669914 -0.395895
O11   O     O_R   0.524104 0.986231 0.668036 -0.628564
O12   O     O_R   0.453370 0.540700 0.651360 -0.466636
O13   O     O_2   0.524514 0.770304 0.687270 -0.413904
O14   O     O_R   0.377057 0.735089 0.636293 -0.583921
O15   O     O_2   0.652506 0.222190 0.365737 -0.332850
O16   O     O_R   0.675486 0.313032 0.453956 -0.664587
O17   O     O_2   0.437791 0.350348 0.929072 -0.405499
O18   O     O_R   0.554905 0.324709 0.882126 -0.560575
O19   O     O_2   0.223688 0.588315 0.713949 -0.388012
O20   O     O_R   0.114373 0.517336 0.748604 -0.601450
O21   O     O_2   0.415817 0.614858 0.271007 -0.465465
O22   O     O_R   0.501716 0.679226 0.209666 -0.527208
O23   O     O_R   0.442100 0.444740 0.334100 -0.462947
O24   O     O_2   0.869195 0.520854 0.312184 -0.401654
O25   O     O_R   0.937496 0.608883 0.399870 -0.663948
O26   O     O_2   0.030751 0.441813 0.227990 -0.385877
O27   O     O_R   0.899021 0.396987 0.253709 -0.585280
O28   O     O_2   0.273011 0.464964 0.657457 -0.468076
O29   O     O_R   0.205741 0.372310 0.574854 -0.669938
O30   O     O_2   0.406867 0.279027 0.597468 -0.473721
O31   O     O_R   0.289999 0.199030 0.534478 -0.609484
O32   O     O_R   0.561930 0.354050 0.543340 -0.459075
O33   O     O_R   0.542600 0.660510 0.471200 -0.461261
O34   O     O_R   0.453390 0.335660 0.446330 -0.512826
O35   O     O_R   0.442080 0.649780 0.539130 -0.515692
O36   O     O_R   0.561920 0.473910 0.663190 -0.479469
O37   O     O_R   0.542610 0.540650 0.351350 -0.510893
Zn1   Zn    Zn3+2 0.425320 0.550450 0.550460 1.052529
Zn2   Zn    Zn3+2 0.580410 0.455020 0.567370 1.084403
Zn3   Zn    Zn3+2 0.568940 0.565780 0.453410 1.082679
Zn4   Zn    Zn3+2 0.425330 0.428750 0.428760 1.104231

loop_
_geom_bond_atom_site_label_1
_geom_bond_atom_site_label_2
_ccdc_geom_bond_type
C36   O5    A    
C55   C56   A    
C29   F7    S    
C51   O28   D    
O32   Zn2   S    
C27   C29   A    
O1    Zn4   S    
C43   O14   S    
H5    O9    S    
O4    Zn3   S    
C13   C41   S    
N1    N2    D    
C7    C8    A    
C53   C54   A    
C16   C31   S    
C15   C19   A    
C46   O18   S    
C12   C23   A    
C51   O29   S    
C32   F10   S    
O33   Zn3   S    
C18   C19   A    
C16   O36   A    
C35   O2    A    
C23   C49   S    
C10   C42   S    
O5    Zn1   S    
C28   O23   A    
C5    C36   S    
C50   O26   D    
H3    O29   S    
O1    Zn3   S    
C51   C56   S    
O37   Zn3   S    
C48   O22   S    
N3    N4    D    
C45   C56   A    
C8    C9    A    
H12   O25   S    
C3    C38   A    
C4    O35   A    
C11   C43   S    
C1    O32   A    
C15   N2    S    
C9    C10   A    
C37   F2    S    
O36   Zn2   S    
C21   C48   S    
C21   C22   A    
C27   C30   A    
C14   C17   A    
H9    O18   S    
C49   O24   D    
C36   O3    A    
C46   O17   D    
C14   C52   S    
C16   O12   A    
C47   O19   D    
H10   O20   S    
C42   O11   S    
C35   C38   S    
C24   C25   A    
O23   Zn4   S    
C4    C6    S    
H2    O27   S    
C6    C11   A    
C2    F3    S    
C20   C28   S    
C25   C26   A    
C5    C45   A    
H7    O14   S    
H11   O22   S    
C25   F8    S    
C7    F6    S    
C18   C44   S    
C8    F1    S    
C35   O4    A    
C2    C38   A    
C48   O21   D    
H4    O31   S    
C23   C34   A    
C17   C18   A    
O1    Zn1   S    
C34   C45   A    
C37   C54   A    
C27   C46   S    
O34   Zn4   S    
C3    C40   S    
C5    C39   A    
C22   C24   A    
C4    O33   A    
O3    Zn4   S    
C47   C55   S    
C52   O31   S    
C54   C55   A    
C47   O20   S    
C30   C33   A    
C42   O10   D    
C26   F9    S    
H6    O11   S    
C24   N3    S    
C31   C32   A    
C43   O13   D    
C2    C53   A    
C12   C50   S    
C6    C7    A    
C52   O30   D    
H8    O16   S    
C1    C17   S    
O12   Zn1   S    
C41   O9    S    
C32   C33   A    
C12   C39   A    
C13   C15   A    
C49   O25   S    
C29   C31   A    
H1    O7    S    
C44   O16   S    
C20   C26   A    
C19   F5    S    
C39   F4    S    
C50   O27   S    
O35   Zn1   S    
O1    Zn2   S    
C1    O34   A    
C40   O7    S    
C30   N4    S    
C44   O15   D    
C22   F11   S    
C10   C11   A    
C41   O8    D    
C20   C21   A    
C3    C37   A    
C34   C53   A    
O2    Zn2   S    
C28   O37   A    
C40   O6    D    
C13   C14   A    
C33   F12   S    
C9    N1    S    
