data_mof_unit_61735.cif
_audit_creation_date              2012-10-26T17:27:27-0400
_audit_creation_method            fapswitch 2.2
_symmetry_space_group_name_H-M    P1
_symmetry_Int_Tables_number       1
_space_group_crystal_system       triclinic
_cell_length_a                    18.733023
_cell_length_b                    18.820804
_cell_length_c                    18.83326
_cell_angle_alpha                 109.483379
_cell_angle_beta                  109.384276
_cell_angle_gamma                 109.243529
_cell_volume                      5130.4905579

loop_
_atom_site_label
_atom_site_type_symbol
_atom_type_description
_atom_site_fract_x
_atom_site_fract_y
_atom_site_fract_z
_atom_type_partial_charge
C1    C     C_R   0.119381 0.000358 0.618519 0.537230
C2    C     C_R   0.323344 0.080644 0.821460 -0.130655
C3    C     C_R   0.315078 0.001513 0.815477 0.036571
C4    C     C_R   0.121999 0.118758 0.503137 0.531265
C5    C     C_R   0.248440 0.924413 0.739388 0.019047
C6    C     C_3   0.181773 0.840802 0.722709 -0.025124
C7    C     C_3   0.116722 0.840720 0.648108 -0.248397
C8    C     C_R   0.810229 0.737777 0.486758 0.018355
C9    C     C_R   0.813884 0.816173 0.500214 -0.003226
C10   C     C_R   0.749912 0.830693 0.515758 -0.112462
C11   C     C_R   0.684259 0.766520 0.515700 0.078572
C12   C     C_R   0.258959 0.263836 0.585908 -0.003030
C13   C     C_R   0.684284 0.687888 0.502803 0.044400
C14   C     C_R   0.749668 0.677578 0.489952 0.007761
C15   C     C_3   0.784552 0.616897 0.473840 -0.258167
C16   C     C_R   0.880837 0.999862 0.381550 0.548810
C17   C     C_3   0.854153 0.685941 0.470770 -0.255261
C18   C     C_R   0.744210 0.003498 0.322576 0.054158
C19   C     C_R   0.816440 0.003423 0.316496 0.006435
C20   C     C_R   0.829400 0.014333 0.250797 -0.142889
C21   C     C_R   0.765656 0.015909 0.187201 -0.130711
C22   C     C_R   0.687141 0.002863 0.186953 0.010002
C23   C     C_R   0.192856 0.186106 0.507103 -0.016901
C24   C     C_R   0.679740 0.001393 0.257795 -0.007771
C25   C     C_3   0.608592 0.939653 0.261452 -0.232103
C26   C     C_3   0.679589 0.942431 0.333390 -0.040706
C27   C     C_R   0.501425 0.620377 0.618637 0.554188
C28   C     C_R   0.881313 0.881518 0.500213 0.548399
C29   C     C_R   0.381199 0.381732 0.500441 0.547790
C30   C     C_R   0.499920 0.381017 0.381482 0.566751
C31   C     C_R   0.618503 0.619581 0.500998 0.580062
C32   C     C_R   0.499801 0.118471 0.118503 0.544687
C33   C     C_R   0.381148 0.000883 0.882134 0.549019
C34   C     C_R   0.191144 0.173714 0.429033 -0.117937
C35   C     C_R   0.502593 0.881569 0.883530 0.564167
C36   C     C_R   0.619010 0.999914 0.118630 0.550788
C37   C     C_R   0.428732 0.690865 0.676156 0.004732
C38   C     C_R   0.505802 0.691848 0.684602 0.002191
C39   C     C_R   0.586202 0.763570 0.756068 0.095237
C40   C     C_R   0.269641 0.275041 0.667491 -0.082014
C41   C     C_R   0.586277 0.826123 0.823668 0.080682
C42   C     C_R   0.505918 0.817001 0.817842 -0.005419
C43   C     C_R   0.428746 0.751933 0.741494 -0.010968
C44   C     C_3   0.346187 0.687041 0.727815 -0.256627
C45   C     C_R   0.252155 0.237638 0.426706 0.063012
C46   C     C_3   0.345990 0.619691 0.655338 -0.270273
C47   C     C_R   0.482562 0.308263 0.236004 0.035992
C48   C     C_R   0.499908 0.313762 0.315818 0.027389
C49   C     C_R   0.518303 0.251358 0.330646 -0.132111
C50   C     C_R   0.517316 0.185917 0.265323 -0.134346
C51   C     C_R   0.500605 0.184091 0.185848 0.029566
C52   C     C_R   0.330989 0.354081 0.743875 0.114327
C53   C     C_R   0.484552 0.247421 0.174726 -0.008185
C54   C     C_3   0.460647 0.277634 0.111347 -0.240553
C55   C     C_3   0.458631 0.347531 0.181463 -0.017985
C56   C     C_R   0.314879 0.317110 0.503205 0.016623
C57   C     C_R   0.383803 0.424455 0.740211 0.021966
C58   C     C_R   0.377097 0.412358 0.660291 -0.108176
C59   C     C_R   0.317527 0.331608 0.583131 -0.013099
C60   C     C_3   0.448773 0.512750 0.819023 -0.368083
C61   C     C_R   0.188637 0.924971 0.673187 0.005199
C62   C     C_R   0.188903 0.002027 0.683806 0.024518
C63   C     C_R   0.259209 0.080884 0.756750 -0.131038
Cu1   Cu    Cu3+1 0.000020 0.938200 0.438210 0.973332
Cu2   Cu    Cu3+1 0.999980 0.061800 0.561790 1.027117
Cu3   Cu    Cu3+1 0.438170 0.500030 0.438220 1.049834
Cu4   Cu    Cu3+1 0.561770 0.500000 0.561810 1.001853
Cu5   Cu    Cu3+1 0.561810 0.061820 0.000030 1.014691
Cu6   Cu    Cu3+1 0.438190 0.938280 0.000080 1.003328
H1    H     H_    0.141474 0.113869 0.368979 0.160857
H2    H     H_    0.232152 0.222140 0.673558 0.149506
H3    H     H_    0.775998 0.023212 0.136290 0.170652
H4    H     H_    0.571984 0.969282 0.283171 0.171295
H5    H     H_    0.567375 0.875206 0.201273 0.144410
H6    H     H_    0.678984 0.879534 0.315399 0.134536
H7    H     H_    0.355689 0.675860 0.783833 0.157195
H8    H     H_    0.291928 0.700344 0.704178 0.145106
H9    H     H_    0.355036 0.569348 0.669147 0.125573
H10   H     H_    0.291815 0.594419 0.589905 0.158689
H11   H     H_    0.531920 0.252252 0.391599 0.148683
H12   H     H_    0.095625 0.788512 0.583287 0.123244
H13   H     H_    0.530503 0.137861 0.277146 0.132133
H14   H     H_    0.513871 0.303317 0.097501 0.177495
H15   H     H_    0.395459 0.228903 0.053190 0.135354
H16   H     H_    0.392395 0.339189 0.163356 0.164857
H17   H     H_    0.418729 0.467390 0.659333 0.128893
H18   H     H_    0.263669 0.142055 0.764255 0.149456
H19   H     H_    0.376855 0.141779 0.877812 0.136967
H20   H     H_    0.196383 0.787433 0.700518 0.125762
H21   H     H_    0.448900 0.517143 0.879093 0.184539
H22   H     H_    0.515267 0.529251 0.829076 0.149814
H23   H     H_    0.062885 0.847415 0.656616 0.160023
H24   H     H_    0.433601 0.561998 0.808771 0.122244
H25   H     H_    0.750337 0.891132 0.527132 0.182620
H26   H     H_    0.811308 0.608140 0.530544 0.159477
H27   H     H_    0.738586 0.556047 0.410452 0.170491
H28   H     H_    0.920897 0.716990 0.525814 0.135330
H29   H     H_    0.848439 0.664865 0.405598 0.164364
H30   H     H_    0.887779 0.020220 0.247969 0.143396
I1    I     I_    0.146688 0.852031 0.822125 -0.314463
I2    I     I_    0.590812 0.794645 0.539081 -0.251276
I3    I     I_    0.690788 0.005123 0.457649 -0.325828
I4    I     I_    0.706685 0.778570 0.761090 -0.216630
I5    I     I_    0.707188 0.927444 0.938220 -0.282565
I6    I     I_    0.338873 0.359954 0.861120 -0.390023
I7    I     I_    0.559633 0.476816 0.234652 -0.366963
I8    I     I_    0.247587 0.206975 0.305234 -0.315232
O1    O     O_R   0.090180 0.947810 0.537990 -0.509332
O2    O     O_R   0.447830 0.038100 0.090230 -0.500240
O3    O     O_R   0.462030 0.052220 0.909860 -0.515831
O4    O     O_R   0.090150 0.052180 0.642350 -0.506982
O5    O     O_R   0.357640 0.947890 0.909900 -0.477226
O6    O     O_R   0.552170 0.962000 0.909870 -0.476412
O7    O     O_R   0.447780 0.857670 0.909910 -0.516756
O8    O     O_R   0.642360 0.052210 0.090200 -0.499291
O9    O     O_R   0.537970 0.947880 0.090240 -0.517549
O10   O     O_R   0.090190 0.037990 0.447830 -0.509063
O11   O     O_R   0.090170 0.142360 0.552190 -0.512502
O12   O     O_R   0.552150 0.590170 0.642370 -0.502054
O13   O     O_R   0.909850 0.947820 0.357650 -0.509978
O14   O     O_R   0.909820 0.052190 0.462010 -0.480633
O15   O     O_R   0.909830 0.857640 0.447810 -0.510137
O16   O     O_R   0.909810 0.962010 0.552170 -0.495515
O17   O     O_R   0.447770 0.590190 0.538000 -0.497129
O18   O     O_R   0.357600 0.409850 0.447820 -0.489254
O19   O     O_R   0.461980 0.409830 0.552180 -0.517739
O20   O     O_R   0.447790 0.409860 0.357660 -0.485974
O21   O     O_R   0.552170 0.409840 0.462020 -0.518815
O22   O     O_R   0.537960 0.590200 0.447840 -0.477065
O23   O     O_R   0.642340 0.590180 0.552210 -0.499233
O24   O     O_R   0.552220 0.142430 0.090190 -0.511095

loop_
_geom_bond_atom_site_label_1
_geom_bond_atom_site_label_2
_ccdc_geom_bond_type
Cu6   O9    S    
C12   C40   A    
C40   H2    S    
C29   O18   A    
C41   C42   A    
C19   C20   A    
C18   C26   S    
C43   C44   S    
C1    C62   S    
C1    O1    A    
C54   H15   S    
C28   O16   A    
C39   C41   A    
C53   C54   S    
C12   C23   A    
C62   C63   A    
C18   C24   A    
C30   C48   S    
C44   H8    S    
C18   C19   A    
C31   O23   A    
C16   O13   A    
C15   H26   S    
C46   H10   S    
Cu6   O5    S    
C28   O15   A    
C10   H25   S    
C27   C38   S    
Cu3   O20   S    
C35   O7    A    
C25   H5    S    
C44   H7    S    
C35   C42   S    
Cu2   O4    S    
C21   C22   A    
C30   O20   A    
C12   C59   A    
Cu6   O2    S    
C7    C61   S    
C45   C56   A    
Cu5   Cu6   S    
Cu2   O11   S    
C2    H19   S    
Cu2   O14   S    
C9    C10   A    
C34   H1    S    
C25   H4    S    
Cu5   O6    S    
C47   C53   A    
Cu3   O22   S    
C60   H24   S    
Cu3   Cu4   S    
C29   O19   A    
C4    O11   A    
C58   H17   S    
C54   H14   S    
C44   C46   S    
Cu1   O1    S    
C38   C39   A    
C30   O21   A    
Cu6   O7    S    
C32   O2    A    
C55   I7    S    
C24   C25   S    
C52   C57   A    
Cu4   O19   S    
C15   H27   S    
C46   H9    S    
C4    C23   S    
C8    C9    A    
C57   C60   S    
C21   H3    S    
C25   C26   S    
C40   C52   A    
Cu1   O10   S    
C51   C53   A    
C6    I1    S    
C55   H16   S    
Cu5   O24   S    
C16   O14   A    
C32   C51   S    
C37   C38   A    
C47   C48   A    
Cu3   O18   S    
C23   C34   A    
C50   C51   A    
C5    C61   A    
C11   I2    S    
C33   O5    A    
Cu5   O3    S    
C34   C45   A    
C48   C49   A    
C7    H12   S    
C52   I6    S    
C60   H21   S    
Cu3   O17   S    
C37   C43   A    
Cu4   O23   S    
C42   C43   A    
C36   O9    A    
C2    C63   A    
C50   H13   S    
C47   C55   S    
C17   H29   S    
C60   H22   S    
C15   C17   S    
C54   C55   S    
C8    C14   A    
C63   H18   S    
C13   C31   S    
C3    C5    A    
C27   O17   A    
C56   C59   A    
C39   I4    S    
C6    C7    S    
C29   C56   S    
C27   O12   A    
C6    H20   S    
C22   C36   S    
C8    C17   S    
Cu1   O13   S    
C41   I5    S    
Cu1   Cu2   S    
C2    C3    A    
C58   C59   A    
C31   O22   A    
Cu4   O21   S    
C26   I3    S    
C11   C13   A    
C57   C58   A    
C5    C6    S    
C20   H30   S    
C17   H28   S    
C16   C19   S    
Cu1   O15   S    
C7    H23   S    
C35   O6    A    
C22   C24   A    
Cu2   O16   S    
C61   C62   A    
C4    O10   A    
C10   C11   A    
Cu5   O8    S    
C20   C21   A    
C26   H6    S    
C49   C50   A    
C49   H11   S    
C3    C33   S    
C14   C15   S    
C33   O3    A    
C37   C46   S    
C13   C14   A    
C36   O8    A    
Cu4   O12   S    
C32   O24   A    
C1    O4    A    
C45   I8    S    
C9    C28   S    
