data_mof_unit_58658.cif
_audit_creation_date              2012-12-10T17:37:28-0500
_audit_creation_method            fapswitch 2.2
_symmetry_space_group_name_H-M    P1
_symmetry_Int_Tables_number       1
_space_group_crystal_system       triclinic
_cell_length_a                    12.050674
_cell_length_b                    12.898267
_cell_length_c                    16.78617
_cell_angle_alpha                 92.504592
_cell_angle_beta                  80.931716
_cell_angle_gamma                 93.214804
_cell_volume                      2570.84758111

loop_
_atom_site_label
_atom_site_type_symbol
_atom_type_description
_atom_site_fract_x
_atom_site_fract_y
_atom_site_fract_z
_atom_type_partial_charge
C1    C     C_R   0.522341 0.700445 0.499463 0.943258
C2    C     C_R   0.477795 0.299635 0.500261 0.922472
C3    C     C_R   0.463168 0.188212 0.499959 -0.253353
C4    C     C_R   0.536555 0.812093 0.501713 -0.260668
C5    C     C_R   0.634452 0.972312 0.536701 0.457380
C6    C     C_R   0.359540 0.027504 0.474329 0.450445
C7    C     C_R   0.633076 0.864376 0.524736 0.411986
C8    C     C_R   0.368787 0.135835 0.474005 0.421456
C9    C     C_R   0.448004 0.866734 0.483655 -0.309467
C10   C     C_R   0.548613 0.133849 0.523166 -0.303722
C11   C     C_R   0.450295 0.973430 0.491872 -0.071861
C12   C     C_R   0.544666 0.026781 0.517776 -0.075171
C13   C     C_R   0.965285 0.394236 0.430909 -0.311401
C14   C     C_R   0.034251 0.604350 0.570252 -0.327854
C15   C     C_R   0.849578 0.407464 0.432715 0.267571
C16   C     C_R   0.151828 0.596565 0.564234 0.239531
C17   C     C_R   0.853662 0.544091 0.531815 -0.083048
C18   C     C_R   0.145223 0.451549 0.472063 -0.049899
C19   C     C_R   0.971466 0.536014 0.527032 0.047053
C20   C     C_R   0.027516 0.459469 0.476875 0.058921
C21   C     C_R   0.483488 0.495786 0.653779 0.893215
C22   C     C_R   0.515622 0.497687 0.346214 0.885378
C23   C     C_R   0.470423 0.464336 0.737376 -0.139536
C24   C     C_R   0.522842 0.475648 0.260331 -0.141528
C25   C     C_R   0.556841 0.409077 0.760221 -0.287061
C26   C     C_R   0.439568 0.408416 0.234431 -0.306603
C27   C     C_R   0.546633 0.371774 0.837010 -0.170410
C28   C     C_R   0.449528 0.373851 0.154745 -0.163208
C29   C     C_R   0.451900 0.393116 0.893709 0.131191
C30   C     C_R   0.540715 0.410051 0.098848 0.126960
C31   C     C_R   0.362430 0.442912 0.870450 -0.274922
C32   C     C_R   0.624895 0.476946 0.124539 -0.267530
C33   C     C_R   0.369522 0.476315 0.791531 0.520819
C34   C     C_R   0.615735 0.511474 0.205108 0.528383
C35   C     C_2   0.449934 0.376025 0.979392 -0.202446
C36   C     C_2   0.544598 0.388161 0.012321 -0.202822
H1    H     H_    0.632470 0.393115 0.718330 0.184760
H2    H     H_    0.367841 0.380389 0.276443 0.166630
H3    H     H_    0.007295 0.334433 0.391847 0.145711
H4    H     H_    0.990748 0.665109 0.606745 0.147904
H5    H     H_    0.625421 0.401450 0.974393 0.145992
H6    H     H_    0.368144 0.373868 0.017274 0.145220
H7    H     H_    0.288862 0.459499 0.914259 0.143672
H8    H     H_    0.695757 0.505249 0.081673 0.147940
H9    H     H_    0.385359 0.319370 0.137257 0.137523
H10   H     H_    0.614530 0.328951 0.852454 0.138347
H11   H     H_    0.620112 0.175643 0.543613 0.232053
H12   H     H_    0.376877 0.825511 0.462378 0.228872
H13   H     H_    0.188399 0.392526 0.433208 0.155632
H14   H     H_    0.810085 0.601815 0.571944 0.166481
N1    N     N_R   0.206400 0.519440 0.514690 -0.120399
N2    N     N_R   0.793600 0.480560 0.485310 -0.112703
O1    O     O_R   0.421320 0.658850 0.503920 -0.662645
O2    O     O_R   0.578680 0.341150 0.496080 -0.664212
O3    O     O_R   0.609840 0.646370 0.494500 -0.568869
O4    O     O_R   0.390160 0.353630 0.505500 -0.571302
O5    O     O_R   0.394600 0.506990 0.621070 -0.606211
O6    O     O_R   0.605400 0.493010 0.378930 -0.600762
O7    O     O_R   0.583120 0.494520 0.611640 -0.625506
O8    O     O_R   0.416880 0.505480 0.388360 -0.624436
Zn1   Zn    Zn3+2 0.374120 0.508330 0.506290 0.946478
Zn2   Zn    Zn3+2 0.625880 0.491670 0.493710 0.951937
C37   C     C_3   0.216931 0.680608 0.606777 -0.352740
C38   C     C_3   0.151809 0.733879 0.682561 -0.417181
C39   C     C_3   0.231450 0.798805 0.729536 -0.839231
H15   H     H_    0.290494 0.748265 0.752136 0.289590
H16   H     H_    0.280511 0.857969 0.690390 0.248053
H17   H     H_    0.182014 0.839218 0.782050 0.246915
H18   H     H_    0.091257 0.787086 0.664813 0.212357
H19   H     H_    0.104908 0.674851 0.722873 0.246329
H20   H     H_    0.289217 0.647423 0.626313 0.281885
H21   H     H_    0.247266 0.741624 0.563002 0.198485
C40   C     C_3   0.793242 0.337722 0.374386 -0.400822
C41   C     C_3   0.840153 0.360950 0.286113 -0.365966
C42   C     C_3   0.779392 0.293025 0.228039 -0.859233
H22   H     H_    0.793511 0.209771 0.235039 0.254865
H23   H     H_    0.687598 0.304774 0.239848 0.263861
H24   H     H_    0.812339 0.313889 0.164922 0.252617
H25   H     H_    0.829849 0.443941 0.275465 0.280043
H26   H     H_    0.931263 0.346342 0.272654 0.211365
H27   H     H_    0.806489 0.255357 0.385808 0.189790
H28   H     H_    0.702820 0.345227 0.381911 0.263510
O9    O     O_3   0.699795 0.576769 0.229593 -0.615440
C43   C     C_3   0.666514 0.679934 0.230734 -0.327827
H29   H     H_    0.589431 0.692134 0.275529 0.149906
H30   H     H_    0.653231 0.702242 0.169720 0.162780
H31   H     H_    0.734748 0.732506 0.249140 0.189972
O10   O     O_3   0.281771 0.527300 0.769299 -0.615576
C44   C     C_3   0.192319 0.454024 0.761400 -0.294263
H32   H     H_    0.152307 0.425338 0.821174 0.148208
H33   H     H_    0.220362 0.387677 0.719698 0.169186
H34   H     H_    0.127147 0.492268 0.735036 0.185437
O11   O     O_3   0.285190 0.190048 0.449188 -0.588800
C45   C     C_3   0.303091 0.189079 0.364069 -0.288872
H35   H     H_    0.289352 0.109540 0.338018 0.200784
H36   H     H_    0.388967 0.220973 0.339783 0.134370
H37   H     H_    0.241228 0.238655 0.344017 0.160890
O12   O     O_3   0.721382 0.810088 0.542605 -0.599333
C46   C     C_3   0.808718 0.813325 0.475859 -0.252178
H38   H     H_    0.842710 0.894093 0.464049 0.185010
H39   H     H_    0.780297 0.776879 0.420681 0.159496
H40   H     H_    0.878856 0.768474 0.489569 0.172559
O13   O     O_3   0.726553 0.024599 0.562479 -0.612006
C47   C     C_3   0.709741 0.027339 0.647581 -0.312738
H41   H     H_    0.705706 0.947795 0.671362 0.191914
H42   H     H_    0.632506 0.068320 0.673247 0.150679
H43   H     H_    0.782334 0.071131 0.668414 0.187035
O14   O     O_3   0.266046 0.974627 0.451017 -0.614352
C48   C     C_3   0.180052 0.969988 0.518462 -0.302853
H44   H     H_    0.149179 0.048464 0.536870 0.202298
H45   H     H_    0.208326 0.933745 0.570310 0.148389
H46   H     H_    0.108162 0.920878 0.501677 0.189213

loop_
_geom_bond_atom_site_label_1
_geom_bond_atom_site_label_2
_ccdc_geom_bond_type
O6    Zn2   S    
C5    O13   S    
O11   C45   S    
C7    O12   S    
C27   C29   A    
C40   C41   S    
C19   C20   A    
N1    Zn1   S    
C43   H31   S    
C47   H42   S    
C31   H7    S    
C33   O10   S    
C43   H30   S    
C21   O7    A    
C48   H45   S    
C22   O8    A    
O3    Zn2   S    
O14   C48   S    
C35   H6    S    
C1    O1    A    
C25   H1    S    
O1    Zn1   S    
C35   C36   D    
C39   H16   S    
C31   C33   A    
C16   C37   S    
C38   H19   S    
C44   H33   S    
C18   C20   A    
C41   H26   S    
C36   H5    S    
C4    C7    A    
C17   N2    A    
C40   H27   S    
C47   H41   S    
C18   N1    A    
C28   H9    S    
C41   C42   S    
C43   H29   S    
C5    C12   A    
C3    C8    A    
C2    O2    A    
C48   H46   S    
C44   H32   S    
C6    C11   A    
C5    C7    A    
C26   H2    S    
C6    C8    A    
O2    Zn2   S    
C45   H37   S    
C23   C33   A    
C38   H18   S    
C24   C34   A    
O8    Zn1   S    
C32   C34   A    
C42   H22   S    
C21   O5    A    
C42   H23   S    
O9    C43   S    
C39   H17   S    
C32   H8    S    
C15   N2    A    
C37   H21   S    
C44   H34   S    
C45   H36   S    
C9    C11   A    
C10   C12   A    
C27   H10   S    
C46   H39   S    
C37   H20   S    
C39   H15   S    
C41   H25   S    
C13   C15   A    
C14   C16   A    
C34   O9    S    
O7    Zn2   S    
C40   H28   S    
C10   H11   S    
C16   N1    A    
C13   C20   A    
C15   C40   S    
C14   C19   A    
C8    O11   S    
C24   C26   A    
C17   H14   S    
C22   O6    A    
C11   C12   A    
O5    Zn1   S    
C25   C27   A    
C29   C35   S    
C26   C28   A    
C46   H38   S    
C30   C36   S    
C1    C4    S    
C38   C39   S    
C21   C23   S    
C2    C3    S    
C1    O3    A    
C29   C31   A    
C3    C10   A    
N2    Zn2   S    
C48   H44   S    
C30   C32   A    
C28   C30   A    
C17   C19   A    
C22   C24   S    
C23   C25   A    
C45   H35   S    
C42   H24   S    
C13   H3    S    
C14   H4    S    
C37   C38   S    
C46   H40   S    
O10   C44   S    
C9    H12   S    
O12   C46   S    
O13   C47   S    
C6    O14   S    
O4    Zn1   S    
C2    O4    A    
C4    C9    A    
C47   H43   S    
C18   H13   S    
