data_mof_unit_10300.cif
_audit_creation_date              2012-12-11T17:29:46-0500
_audit_creation_method            fapswitch 2.2
_symmetry_space_group_name_H-M    P1
_symmetry_Int_Tables_number       1
_space_group_crystal_system       triclinic
_cell_length_a                    18.843981
_cell_length_b                    18.814954
_cell_length_c                    20.398109
_cell_angle_alpha                 106.818635
_cell_angle_beta                  106.251852
_cell_angle_gamma                 111.129653
_cell_volume                      5829.07782398

loop_
_atom_site_label
_atom_site_type_symbol
_atom_type_description
_atom_site_fract_x
_atom_site_fract_y
_atom_site_fract_z
_atom_type_partial_charge
C1    C     C_R   0.080905 0.087878 0.351092 -0.154281
C2    C     C_R   0.751671 0.991547 0.541346 0.102919
C3    C     C_R   0.772259 0.726940 0.289650 0.045803
C4    C     C_R   0.964786 0.221597 0.466831 0.070994
C5    C     C_R   0.236097 0.218819 0.651287 -0.151953
C6    C     C_R   0.919016 0.755777 0.493373 -0.148126
C7    C     C_R   0.174317 0.927856 0.481566 -0.129479
C8    C     C_R   0.032811 0.050212 0.717869 -0.117024
C9    C     C_R   0.965503 0.909877 0.652021 -0.139415
C10   C     C_R   0.244671 0.068466 0.544747 -0.135223
C11   C     C_R   0.158329 0.212377 0.715581 -0.139592
C12   C     C_R   0.759962 0.924224 0.501058 -0.116588
C13   C     C_R   0.996608 0.762494 0.429251 -0.151481
C14   C     C_R   0.239998 0.252106 0.723019 0.037440
C15   C     C_R   0.943276 0.708096 0.448160 0.088238
C16   C     C_R   0.251275 0.995671 0.537047 0.069468
C17   C     C_R   0.021642 0.975188 0.723319 0.073534
C18   C     C_R   0.856287 0.568435 0.442388 -0.256729
C19   C     C_R   0.910213 0.615867 0.417737 0.114183
C20   C     C_R   0.939626 0.576348 0.370331 -0.260878
C21   C     C_R   0.927418 0.495286 0.358244 0.143299
C22   C     C_R   0.882639 0.452309 0.391786 0.027188
C23   C     C_R   0.847662 0.777839 0.290510 -0.122666
C24   C     C_R   0.843045 0.487049 0.430445 0.142406
C25   C     C_R   0.966813 0.460450 0.320077 -0.207421
C26   C     C_R   0.969811 0.388258 0.322486 -0.204985
C27   C     C_R   0.933250 0.350477 0.362917 0.140913
C28   C     C_R   0.885361 0.379557 0.393936 0.026534
C29   C     C_R   0.848011 0.341647 0.434333 0.141966
C30   C     C_R   0.800685 0.371037 0.465198 -0.207225
C31   C     C_R   0.798361 0.443690 0.463397 -0.204815
C32   C     C_R   0.951466 0.290716 0.379991 -0.258730
C33   C     C_R   0.924600 0.262203 0.429584 0.117006
C34   C     C_R   0.949229 0.196497 0.521275 -0.126956
C35   C     C_R   0.866357 0.281554 0.450380 -0.258988
C36   C     C_R   0.403311 0.065777 0.625676 -0.215671
C37   C     C_R   0.326519 0.991263 0.576932 0.103902
C38   C     C_R   0.325028 0.912744 0.556809 -0.270299
C39   C     C_R   0.399711 0.909435 0.567976 0.171636
C40   C     C_R   0.476640 0.985550 0.604774 0.066790
C41   C     C_R   0.478946 0.063446 0.638979 0.065686
C42   C     C_R   0.397380 0.832067 0.534185 -0.238374
C43   C     C_R   0.468367 0.831086 0.527396 -0.170469
C44   C     C_R   0.542582 0.907527 0.555350 0.021213
C45   C     C_R   0.770285 0.771906 0.355477 -0.127593
C46   C     C_R   0.548900 0.984487 0.599724 -0.076831
C47   C     C_R   0.624403 0.061200 0.631879 -0.058040
C48   C     C_R   0.628513 0.138359 0.673353 0.595974
C49   C     C_R   0.555733 0.138615 0.677415 -0.354405
C50   C     C_R   0.606904 0.908991 0.533282 0.468703
C51   C     C_R   0.683113 0.985969 0.565039 -0.057541
C52   C     C_R   0.692228 0.060009 0.617512 -0.284524
C53   C     C_R   0.317024 0.303603 0.794628 0.140006
C54   C     C_R   0.310918 0.325277 0.863891 -0.154823
C55   C     C_R   0.381660 0.360656 0.931465 -0.181145
C56   C     C_R   0.027156 0.203168 0.456257 -0.128378
C57   C     C_R   0.460299 0.375326 0.931172 0.218198
C58   C     C_R   0.467261 0.356951 0.862675 -0.172080
C59   C     C_R   0.396203 0.320830 0.794727 -0.193330
C60   C     C_R   0.675422 0.510444 0.130267 -0.156503
C61   C     C_R   0.735859 0.590850 0.186961 -0.182361
C62   C     C_R   0.592885 0.475504 0.124513 0.220165
C63   C     C_R   0.714521 0.636776 0.238444 0.143985
C64   C     C_R   0.635528 0.596588 0.238393 -0.176821
C65   C     C_R   0.575570 0.515802 0.182231 -0.182080
C66   C     C_R   0.078340 0.024890 0.220861 0.086000
C67   C     C_R   0.827094 0.064247 0.565318 -0.158389
C68   C     C_R   0.025306 0.960484 0.147339 -0.356746
C69   C     C_R   0.047899 0.960984 0.088092 0.548492
C70   C     C_R   0.127606 0.024240 0.103269 0.069138
C71   C     C_R   0.179681 0.089803 0.176431 -0.248777
C72   C     C_R   0.155403 0.090194 0.235157 -0.176447
C73   C     C_R   0.173558 0.027463 0.917900 -0.333613
C74   C     C_R   0.144659 0.031407 0.848769 0.554253
C75   C     C_R   0.127624 0.955567 0.926211 0.190285
C76   C     C_R   0.065526 0.965654 0.789758 -0.033087
C77   C     C_R   0.026841 0.890029 0.795624 -0.265129
C78   C     C_R   0.008503 0.947395 0.286374 -0.130717
C79   C     C_R   0.059374 0.884474 0.862872 -0.160008
C80   C     C_R   0.052710 0.021278 0.281819 0.085592
H1    H     H_    0.127136 0.152967 0.371003 0.089640
H2    H     H_    0.867980 0.731831 0.508813 0.088475
H3    H     H_    0.156292 0.861534 0.460656 0.097624
H4    H     H_    0.070594 0.112733 0.763781 0.140783
H5    H     H_    0.944853 0.843290 0.635069 0.104501
H6    H     H_    0.293939 0.132291 0.580837 0.089745
H7    H     H_    0.135582 0.229648 0.757421 0.095558
H8    H     H_    0.017289 0.745168 0.385688 0.086835
H9    H     H_    0.830432 0.596677 0.476597 0.117030
H10   H     H_    0.978436 0.610531 0.348146 0.115604
H11   H     H_    0.000246 0.492227 0.292982 0.129703
H12   H     H_    0.723133 0.858111 0.485804 0.156886
H13   H     H_    0.005558 0.365574 0.297280 0.130355
H14   H     H_    0.992808 0.272931 0.360115 0.118880
H15   H     H_    0.841139 0.256472 0.485058 0.114397
H16   H     H_    0.770589 0.341541 0.495378 0.125886
H17   H     H_    0.766449 0.468998 0.492144 0.129743
H18   H     H_    0.405268 0.126582 0.646358 0.115129
H19   H     H_    0.266107 0.854228 0.524125 0.121133
H20   H     H_    0.338985 0.772982 0.507259 0.132409
H21   H     H_    0.463213 0.770765 0.495947 0.165822
H22   H     H_    0.875567 0.759189 0.253643 0.085891
H23   H     H_    0.750340 0.118611 0.643599 0.164687
H24   H     H_    0.558206 0.198299 0.706260 0.161946
H25   H     H_    0.797338 0.618160 0.187438 0.112517
H26   H     H_    0.690684 0.478897 0.087082 0.124649
H27   H     H_    0.527933 0.370427 0.862014 0.124061
H28   H     H_    0.403466 0.304442 0.742555 0.111032
H29   H     H_    0.617330 0.629321 0.277980 0.114391
H30   H     H_    0.374955 0.377711 0.983984 0.130299
H31   H     H_    0.512353 0.489090 0.178551 0.119132
H32   H     H_    0.904781 0.200830 0.543694 0.092339
H33   H     H_    0.251484 0.313618 0.866456 0.124126
H34   H     H_    0.228872 0.081891 0.965946 0.155337
H35   H     H_    0.239077 0.140506 0.187851 0.148163
H36   H     H_    0.197474 0.140622 0.291674 0.124574
H37   H     H_    0.967988 0.837121 0.750493 0.144865
H38   H     H_    0.024563 0.828329 0.868556 0.152936
H39   H     H_    0.964732 0.910800 0.135021 0.151124
H40   H     H_    0.728680 0.746814 0.379688 0.080560
H41   H     H_    0.054856 0.214229 0.418246 0.095633
H42   H     H_    0.848876 0.127100 0.607099 0.090455
H43   H     H_    0.988514 0.883587 0.247335 0.098718
H44   H     H_    0.285005 0.243245 0.633712 0.090527
N1    N     N_R   0.052570 0.055840 0.395080 -0.038372
N2    N     N_R   0.954640 0.834860 0.500130 -0.039260
N3    N     N_R   0.122510 0.958410 0.460270 -0.041612
N4    N     N_R   0.990190 0.031260 0.644790 -0.047151
N5    N     N_R   0.947430 0.944160 0.604920 -0.041802
N6    N     N_R   0.165270 0.045500 0.500140 -0.040126
N7    N     N_R   0.109810 0.150880 0.644800 -0.041940
N8    N     N_R   0.002890 0.838790 0.460260 -0.038435
N9    N     N_2   0.534861 0.420016 0.999299 -0.099449
N10   N     N_2   0.522980 0.414037 0.055042 -0.107047
N11   N     N_2   0.149424 0.028939 0.043249 -0.087131
N12   N     N_R   0.834730 0.954500 0.499860 -0.050915
N13   N     N_2   0.133425 0.958559 0.997546 -0.045744
N14   N     N_R   0.890190 0.849120 0.355200 -0.037858
N15   N     N_R   0.997110 0.161210 0.539740 -0.039772
N16   N     N_R   0.841940 0.845190 0.395070 -0.038805
N17   N     N_R   0.045360 0.165140 0.499870 -0.040171
N18   N     N_R   0.877490 0.041590 0.539730 -0.038860
N19   N     N_R   0.009810 0.968740 0.355210 -0.040102
N20   N     N_R   0.158060 0.154810 0.604930 -0.037674
Ni1   Ni    Ni4+2 0.104370 0.104380 0.500010 0.212013
Ni2   Ni    Ni4+2 0.895630 0.895620 0.499990 0.207100
Ni3   Ni    Ni4+2 0.006290 0.904630 0.408560 0.208276
Ni4   Ni    Ni4+2 0.993710 0.095370 0.591440 0.212141
O1    O     O_3   0.592551 0.835554 0.477980 -0.690015
C81   C     C_3   0.553360 0.831470 0.405836 0.143962
H45   H     H_    0.594856 0.886456 0.399759 0.110681
H46   H     H_    0.492008 0.830915 0.396876 0.107530
C82   C     C_3   0.536799 0.749964 0.344759 -0.258425
H47   H     H_    0.597131 0.748723 0.353989 0.190175
H48   H     H_    0.493769 0.694554 0.349073 0.198317
C83   C     C_3   0.497471 0.743138 0.265380 -1.013194
H49   H     H_    0.436178 0.742872 0.254233 0.267381
H50   H     H_    0.486464 0.683296 0.222630 0.270271
H51   H     H_    0.540403 0.797084 0.259414 0.271607
O2    O     O_3   0.702675 0.214303 0.708094 -0.636040
C84   C     C_3   0.709486 0.249825 0.656135 0.254340
H52   H     H_    0.669606 0.203525 0.595138 0.066182
H53   H     H_    0.775825 0.275651 0.663680 0.117100
C85   C     C_3   0.689219 0.322676 0.673252 -0.935642
H54   H     H_    0.728294 0.368953 0.733839 0.271283
H55   H     H_    0.702891 0.355265 0.637271 0.216431
H56   H     H_    0.621560 0.298526 0.660790 0.241857
O3    O     O_3   0.191536 0.102505 0.842044 -0.684643
C86   C     C_3   0.231053 0.082257 0.795070 0.178830
H57   H     H_    0.225016 0.113164 0.756658 0.147805
H58   H     H_    0.201834 0.013232 0.757466 0.081531
C87   C     C_3   0.324642 0.116842 0.843724 -0.292352
H59   H     H_    0.353133 0.184907 0.882401 0.224964
H60   H     H_    0.331612 0.082117 0.878772 0.192171
C88   C     C_3   0.371627 0.107372 0.794544 -0.977470
H61   H     H_    0.345216 0.039571 0.756166 0.270821
H62   H     H_    0.439316 0.133165 0.831300 0.272327
H63   H     H_    0.366450 0.142908 0.760023 0.264835
O4    O     O_3   0.991374 0.899405 0.015239 -0.630401
C89   C     C_3   0.937393 0.928116 0.982543 0.257934
H64   H     H_    0.973157 0.983279 0.973528 0.101544
H65   H     H_    0.906468 0.946415 0.018813 0.086790
C90   C     C_3   0.868281 0.857404 0.906027 -0.873923
H66   H     H_    0.831440 0.801497 0.913361 0.255570
H67   H     H_    0.825233 0.879352 0.880271 0.210374
H68   H     H_    0.896051 0.838720 0.867149 0.252907

loop_
_geom_bond_atom_site_label_1
_geom_bond_atom_site_label_2
_ccdc_geom_bond_type
C7    H3    S    
C79   H38   S    
C52   H23   S    
C6    H2    S    
C56   H41   S    
C34   H32   S    
C73   C74   A    
C23   N14   A    
C66   C68   A    
C19   C20   A    
C83   H51   S    
C90   H66   S    
C2    C12   A    
N4    N5    A    
C49   H24   S    
C74   O3    S    
C84   H52   S    
C53   C59   A    
C88   H62   S    
C53   C54   A    
C89   H64   S    
C15   C19   S    
C48   O2    S    
C5    H44   S    
C28   C29   A    
C26   C27   A    
C29   C30   A    
C74   C76   A    
C18   C24   A    
C85   H54   S    
C1    N1    A    
C18   C19   A    
C77   H37   S    
C90   H67   S    
C68   H39   S    
C38   C39   A    
C11   C14   A    
C78   C80   A    
C23   H22   S    
C4    C33   S    
C1    H1    S    
C54   H33   S    
C34   N15   A    
C13   H8    S    
C60   C62   A    
C58   H27   S    
C86   H57   S    
C61   C63   A    
C65   H31   S    
C30   H16   S    
C9    H5    S    
C6    C15   A    
C46   C47   A    
C3    C23   A    
C83   H50   S    
C8    N4    A    
C66   C72   A    
C47   C48   A    
C89   H65   S    
C68   C69   A    
C81   C82   S    
C17   C76   S    
N12   N18   A    
C70   C71   A    
C39   C42   A    
C61   H25   S    
C32   H14   S    
C43   H21   S    
C89   C90   S    
N17   Ni1   S    
C16   C37   S    
C26   H13   S    
C22   C28   A    
C21   C22   A    
C4    C56   A    
N6    Ni1   S    
C73   C75   A    
C57   N9    S    
C36   C41   A    
C41   C49   A    
C84   H53   S    
C87   H60   S    
C88   H63   S    
C57   C58   A    
C77   C79   A    
N2    Ni2   S    
C4    C34   A    
N15   Ni4   S    
C25   H11   S    
C51   C52   A    
N18   Ni4   S    
C76   C77   A    
C6    N2    A    
C2    C67   A    
C75   N13   S    
C90   H68   S    
C11   H7    S    
C39   C40   A    
N4    Ni4   S    
C5    N20   A    
C44   C46   A    
C58   C59   A    
C20   H10   S    
C3    C45   A    
C45   N16   A    
C73   H34   S    
O4    C89   S    
C60   C61   A    
C83   H49   S    
N19   Ni3   S    
C43   C44   A    
C10   N6    A    
C37   C38   A    
C42   H20   S    
C88   H61   S    
N2    N8    A    
N14   Ni3   S    
C50   C51   A    
C5    C14   A    
C71   H35   S    
N7    Ni4   S    
C82   C83   S    
C78   H43   S    
N5    Ni2   S    
N14   N16   A    
C56   N17   A    
C45   H40   S    
C9    C17   A    
C40   C41   A    
C30   C31   A    
C9    N5    A    
C55   C57   A    
C55   H30   S    
N9    N10   D    
C86   C87   S    
C81   H46   S    
C82   H48   S    
C42   C43   A    
C40   C46   A    
N16   Ni2   S    
C67   H42   S    
C84   C85   S    
C60   H26   S    
C87   H59   S    
C86   H58   S    
C44   C50   A    
N11   N13   D    
C21   C25   A    
C54   C55   A    
O3    C86   S    
C62   C65   A    
C27   C32   A    
C8    H4    S    
C18   H9    S    
C12   H12   S    
C85   H56   S    
C7    C16   A    
C59   H28   S    
C38   H19   S    
C11   N7    A    
C36   H18   S    
C87   C88   S    
C47   C52   A    
C3    C63   S    
C66   C80   S    
C29   C35   A    
C72   H36   S    
C8    C17   A    
N20   Ni1   S    
C32   C33   A    
C62   N10   S    
C13   C15   A    
C25   C26   A    
N3    N6    A    
C71   C72   A    
C10   C16   A    
O1    C81   S    
C69   O4    S    
N15   N17   A    
C50   O1    S    
C10   H6    S    
C64   H29   S    
C70   N11   S    
N1    N19   A    
C48   C49   A    
C64   C65   A    
C85   H55   S    
C33   C35   A    
C13   N8    A    
C22   C24   A    
C31   H17   S    
C69   C70   A    
O2    C84   S    
C24   C31   A    
C2    C51   S    
C63   C64   A    
C14   C53   S    
C20   C21   A    
C36   C37   A    
C12   N12   A    
C27   C28   A    
C1    C80   A    
C81   H45   S    
N1    Ni1   S    
C7    N3    A    
C82   H47   S    
C78   N19   A    
C67   N18   A    
C75   C79   A    
N12   Ni2   S    
N7    N20   A    
N3    Ni3   S    
C35   H15   S    
N8    Ni3   S    
