data_mof_unit_8242.cif
_audit_creation_date              2012-12-11T16:29:37-0500
_audit_creation_method            fapswitch 2.2
_symmetry_space_group_name_H-M    P1
_symmetry_Int_Tables_number       1
_space_group_crystal_system       triclinic
_cell_length_a                    6.952854
_cell_length_b                    17.230913
_cell_length_c                    18.877492
_cell_angle_alpha                 106.15587
_cell_angle_beta                  89.612828
_cell_angle_gamma                 90.376286
_cell_volume                      2172.20956789

loop_
_atom_site_label
_atom_site_type_symbol
_atom_type_description
_atom_site_fract_x
_atom_site_fract_y
_atom_site_fract_z
_atom_type_partial_charge
O1    O     O_R   0.494360 0.415680 0.413760 -0.518502
O2    O     O_R   0.818810 0.432910 0.557230 -0.519629
O3    O     O_R   0.994290 0.584320 0.586240 -0.526983
C1    C     C_R   0.650018 0.416633 0.581204 0.781338
O4    O     O_R   0.823740 0.406440 0.412520 -0.537442
O5    O     O_R   0.999250 0.557660 0.440500 -0.515336
C2    C     C_R   0.654543 0.383493 0.384760 0.839897
O6    O     O_R   0.489400 0.442340 0.559500 -0.507902
O7    O     O_3   0.662500 0.549650 0.509350 -0.362256
V1    V     V_3+5 0.935340 0.490790 0.498270 1.555478
O8    O     O_R   0.329270 0.567090 0.442770 -0.517120
C3    C     C_R   0.161445 0.582839 0.418360 0.784883
O9    O     O_R   0.324340 0.593560 0.587480 -0.533604
C4    C     C_R   0.154781 0.615445 0.616028 0.834870
V2    V     V_3+5 0.435970 0.509210 0.501730 1.561039
O10   O     O_3   0.158940 0.450350 0.490650 -0.352364
C5    C     C_R   0.109627 0.586006 0.764486 0.073932
C6    C     C_R   0.080463 0.576060 0.835315 0.409676
C7    C     C_R   0.117768 0.640365 0.896884 -0.224276
C8    C     C_R   0.173068 0.714463 0.888486 0.052087
C9    C     C_R   0.144611 0.732341 0.820403 0.007785
C10   C     C_R   0.131425 0.666250 0.755061 -0.073870
C11   C     C_R   0.129483 0.813631 0.817230 -0.095555
C12   C     C_R   0.130299 0.831004 0.747452 -0.052795
C13   C     C_R   0.136494 0.765709 0.680975 -0.078077
C14   C     C_R   0.141224 0.683276 0.684936 -0.100378
C15   C     C_R   0.127112 0.912550 0.742386 0.252949
C16   C     C_R   0.146387 0.928854 0.673772 0.020779
C17   C     C_R   0.141771 0.865485 0.608584 0.272955
C18   C     C_R   0.130200 0.784795 0.611785 0.289331
H1    H     H_    0.128316 0.629742 0.950658 0.149330
C19   C     C_1   0.111261 0.864538 0.133190 -0.138687
C20   C     C_1   0.118901 0.821678 0.176504 0.050471
C21   C     C_1   0.128543 0.770971 0.227960 0.037243
C22   C     C_1   0.136753 0.728238 0.271380 0.051489
C23   C     C_1   0.146322 0.677572 0.322867 0.081858
C24   C     C_1   0.153846 0.634773 0.366229 -0.135089
C25   C     C_1   0.641519 0.364481 0.633070 -0.138083
C26   C     C_1   0.637274 0.321577 0.676366 0.083688
C27   C     C_1   0.633807 0.270950 0.727904 0.077182
C28   C     C_1   0.631223 0.228350 0.771480 0.068254
C29   C     C_1   0.627734 0.177895 0.823174 0.051723
C30   C     C_1   0.623462 0.135237 0.866687 -0.176860
C31   C     C_R   0.762570 0.406542 0.241943 0.061959
C32   C     C_R   0.873074 0.413532 0.182134 0.281519
C33   C     C_R   0.878766 0.349091 0.117486 0.209578
C34   C     C_R   0.783325 0.275942 0.115463 0.284691
C35   C     C_R   0.704489 0.262503 0.181713 -0.056715
C36   C     C_R   0.701751 0.328734 0.247306 -0.120303
C37   C     C_R   0.623816 0.185907 0.183311 -0.095108
C38   C     C_R   0.558025 0.173370 0.251471 -0.099209
C39   C     C_R   0.566704 0.238468 0.317757 -0.041769
C40   C     C_R   0.640408 0.315851 0.315569 -0.078465
C41   C     C_R   0.491037 0.095701 0.255846 0.283726
C42   C     C_R   0.401353 0.087448 0.320519 0.261767
C43   C     C_R   0.403004 0.152421 0.384541 0.020747
C44   C     C_R   0.503975 0.223594 0.385234 0.275243
O11   O     O_R   0.775690 0.057750 0.940570 -0.516242
O12   O     O_R   0.441200 0.093570 0.087490 -0.533254
O13   O     O_R   0.265840 0.942320 0.059480 -0.508394
C45   C     C_R   0.610729 0.118028 0.114055 0.901581
O14   O     O_R   0.446270 0.067110 0.942790 -0.517016
O15   O     O_R   0.270950 0.915660 0.913750 -0.514469
C46   C     C_R   0.615033 0.083396 0.918814 0.758911
O16   O     O_R   0.770580 0.084400 0.086300 -0.521116
O17   O     O_3   0.602640 0.950400 0.990690 -0.353089
V3    V     V_3+5 0.329740 0.009200 0.001730 1.577754
O18   O     O_R   0.940900 0.906360 0.912450 -0.535837
C47   C     C_R   0.111805 0.880280 0.887400 0.826119
O19   O     O_R   0.935830 0.932820 0.057160 -0.528850
C48   C     C_R   0.103656 0.916593 0.081168 0.733609
V4    V     V_3+5 0.829130 0.990680 0.998180 1.555539
O20   O     O_3   0.106100 0.049590 0.009310 -0.356555
O21   O     O_3   0.153933 0.879641 0.540078 -0.627987
H2    H     H_    0.108771 0.934823 0.543555 0.341213
I1    I     I_    0.659065 0.521350 0.307566 -0.340614
O22   O     O_3   0.966545 0.485888 0.187349 -0.624117
H3    H     H_    0.085994 0.474703 0.157403 0.304813
O23   O     O_3   0.966792 0.357188 0.053981 -0.647002
H4    H     H_    0.959391 0.414292 0.053096 0.308043
O24   O     O_3   0.762811 0.217923 0.048658 -0.658719
H5    H     H_    0.807145 0.238048 0.007082 0.327478
O25   O     O_3   0.518875 0.027598 0.197132 -0.649149
H6    H     H_    0.491062 0.977568 0.211397 0.330317
O26   O     O_3   0.313468 0.014619 0.318540 -0.639861
H7    H     H_    0.297834 0.009550 0.369085 0.336628
O27   O     O_3   0.542133 0.278699 0.452002 -0.645659
H8    H     H_    0.557748 0.249583 0.490006 0.308587
I2    I     I_    0.137738 0.471209 0.683677 -0.313905
O28   O     O_3   0.035357 0.500547 0.843099 -0.615405
H9    H     H_    0.019256 0.504196 0.896183 0.298812
I3    I     I_    0.396505 0.767012 0.962443 -0.395063
O29   O     O_3   0.113819 0.976743 0.805067 -0.635009
H10   H     H_    0.037093 0.020049 0.793878 0.308975
I4    I     I_    0.206494 0.050282 0.670517 -0.347431
O30   O     O_3   0.109956 0.723855 0.546976 -0.655072
H11   H     H_    0.064205 0.745777 0.506919 0.320464
I5    I     I_    0.240003 0.148049 0.480366 -0.330118

loop_
_geom_bond_atom_site_label_1
_geom_bond_atom_site_label_2
_ccdc_geom_bond_type
C31   C36   A    
O27   H8    S    
O29   H10   S    
C28   C29   S    
C11   C47   S    
C7    C8    A    
C12   C15   A    
C43   I5    S    
C1    O6    A    
C7    H1    S    
O24   H5    S    
O22   H3    S    
C31   C32   A    
C8    I3    S    
O14   V3    S    
C16   I4    S    
C16   C17   A    
C21   C22   T    
O5    C3    A    
C33   O23   S    
V2    O10   S    
C43   C44   A    
C6    C7    A    
C3    C24   S    
C31   I1    S    
C18   O30   S    
O12   V3    S    
C41   C42   A    
O8    V2    S    
O17   V4    S    
O25   H6    S    
O13   V3    S    
O18   C47   A    
O14   C46   A    
C11   C12   A    
O19   C48   A    
V3    O20   S    
O7    V1    S    
C35   C37   A    
O17   V3    S    
O9    C4    A    
C41   O25   S    
C30   C46   S    
C5    C6    A    
C19   C48   S    
O11   C46   A    
O15   V3    S    
O12   C45   A    
O21   H2    S    
C38   C39   A    
C6    O28   S    
O15   C47   A    
C5    I2    S    
C12   C13   A    
C26   C27   S    
O4    C2    A    
C17   O21   S    
O13   C48   A    
C13   C14   A    
O26   H7    S    
C44   O27   S    
C22   C23   S    
C42   O26   S    
O2    C1    A    
C17   C18   A    
C45   O16   A    
C34   C35   A    
O18   V4    S    
O30   H11   S    
C42   C43   A    
C37   C38   A    
C4    C14   S    
O3    C4    A    
O1    V2    S    
C35   C36   A    
C1    C25   S    
O6    V2    S    
C9    C11   A    
C15   O29   S    
C29   C30   T    
C2    C40   S    
O2    V1    S    
C39   C40   A    
C13   C18   A    
C33   C34   A    
C27   C28   T    
O1    C2    A    
V4    O20   S    
O5    V1    S    
C32   O22   S    
O8    C3    A    
O16   V4    S    
C5    C10   A    
C38   C41   A    
C19   C20   T    
O9    V2    S    
O7    V2    S    
O4    V1    S    
O3    V1    S    
V1    O10   S    
O11   V4    S    
O28   H9    S    
C25   C26   T    
C36   C40   A    
C20   C21   S    
C34   O24   S    
C39   C44   A    
O23   H4    S    
C32   C33   A    
C8    C9    A    
C23   C24   T    
C10   C14   A    
C15   C16   A    
C37   C45   S    
O19   V4    S    
C9    C10   A    
