data_mof_unit_50201.cif
_audit_creation_date              2012-12-10T18:15:17-0500
_audit_creation_method            fapswitch 2.2
_symmetry_space_group_name_H-M    P1
_symmetry_Int_Tables_number       1
_space_group_crystal_system       triclinic
_cell_length_a                    12.586157
_cell_length_b                    13.211164
_cell_length_c                    23.432894
_cell_angle_alpha                 90.704796
_cell_angle_beta                  102.846081
_cell_angle_gamma                 82.535396
_cell_volume                      3766.0985777

loop_
_atom_site_label
_atom_site_type_symbol
_atom_type_description
_atom_site_fract_x
_atom_site_fract_y
_atom_site_fract_z
_atom_type_partial_charge
C1    C     C_R   0.439030 0.691154 0.491950 0.861766
C2    C     C_R   0.399444 0.650023 0.019025 -0.155572
C3    C     C_R   0.402266 0.651970 0.960426 -0.150236
C4    C     C_R   0.460045 0.570690 0.936473 -0.004492
C5    C     C_R   0.517695 0.486348 0.972042 -0.051006
C6    C     C_R   0.577062 0.404802 0.947736 -0.040150
C7    C     C_R   0.640724 0.323856 0.985130 0.091627
C8    C     C_R   0.635758 0.321504 0.045053 -0.019250
C9    C     C_R   0.460928 0.572127 0.877282 0.502577
C10   C     C_R   0.570223 0.408815 0.886518 0.519813
C11   C     C_R   0.604278 0.511844 0.773308 -0.097968
C12   C     C_R   0.501050 0.500168 0.610585 0.883625
C13   C     C_R   0.600996 0.514411 0.713734 -0.200984
C14   C     C_R   0.504118 0.499144 0.673221 -0.043501
C15   C     C_R   0.410569 0.481752 0.693100 -0.210028
C16   C     C_R   0.414141 0.479348 0.752702 -0.093793
C17   C     C_R   0.510961 0.494240 0.792693 0.323507
C18   C     C_R   0.404308 0.474274 0.226780 -0.089638
C19   C     C_R   0.403275 0.479192 0.285939 -0.210391
C20   C     C_R   0.499134 0.494760 0.327171 -0.041667
C21   C     C_R   0.595944 0.504761 0.308529 -0.222116
C22   C     C_R   0.596689 0.499680 0.249500 -0.100571
C23   C     C_R   0.561037 0.309121 0.506416 0.877254
C24   C     C_R   0.501006 0.484633 0.208682 0.314979
C25   C     C_R   0.715993 0.059789 0.478810 -0.184964
C26   C     C_R   0.598147 0.200740 0.507082 -0.055300
C27   C     C_R   0.312039 0.832903 0.516786 -0.219305
C28   C     C_R   0.304897 0.926256 0.544276 -0.176661
C29   C     C_R   0.388875 0.987781 0.548842 -0.032806
C30   C     C_R   0.470239 0.964417 0.514649 0.001767
C31   C     C_R   0.476143 0.869296 0.486527 0.082393
C32   C     C_R   0.546055 0.030982 0.507054 0.095503
C33   C     C_R   0.637459 0.995424 0.482607 0.166755
C34   C     C_R   0.499340 0.499023 0.389465 0.854809
C35   C     C_R   0.642900 0.900356 0.456795 -0.236012
C36   C     C_R   0.558632 0.841868 0.454731 -0.173849
C37   C     C_R   0.525119 0.135105 0.515500 -0.185274
C38   C     C_R   0.697138 0.162576 0.492065 -0.190082
C39   C     C_R   0.403192 0.800401 0.493244 -0.105774
C40   C     C_R   0.087354 0.345714 0.419848 -0.282060
C41   C     C_R   0.799925 0.630801 0.568392 0.022527
C42   C     C_R   0.904625 0.659867 0.582197 -0.236943
C43   C     C_R   0.985985 0.610453 0.556270 -0.195124
C44   C     C_R   0.962697 0.531076 0.516216 0.017830
C45   C     C_R   0.558731 0.400754 0.127003 0.524235
C46   C     C_R   0.854533 0.504283 0.503717 0.239098
C47   C     C_R   0.041776 0.477611 0.488069 -0.010760
C48   C     C_R   0.010995 0.399101 0.448114 0.193041
C49   C     C_R   0.904429 0.374321 0.436808 -0.284305
C50   C     C_R   0.827632 0.426052 0.464329 -0.221458
C51   C     C_R   0.150936 0.498356 0.497866 -0.044979
C52   C     C_R   0.193718 0.370050 0.431453 0.020553
C53   C     C_R   0.450529 0.564573 0.113680 0.508256
C54   C     C_R   0.454370 0.566771 0.054847 0.002811
C55   C     C_R   0.514808 0.484485 0.031778 -0.020829
C56   C     C_R   0.570627 0.400872 0.068248 -0.136662
H1    H     H_    0.353386 0.713854 0.036042 0.198044
H2    H     H_    0.327739 0.471042 0.299284 0.166276
H3    H     H_    0.671141 0.516353 0.339409 0.170348
H4    H     H_    0.671314 0.508092 0.235269 0.146607
H5    H     H_    0.754631 0.213188 0.485479 0.156995
H6    H     H_    0.708151 0.874332 0.434603 0.153804
H7    H     H_    0.787787 0.032334 0.461933 0.143933
H8    H     H_    0.446600 0.167553 0.523393 0.156526
H9    H     H_    0.253996 0.781061 0.520849 0.162398
H10   H     H_    0.240431 0.944328 0.568089 0.185290
H11   H     H_    0.358217 0.717233 0.933864 0.197624
H12   H     H_    0.559923 0.773397 0.428886 0.165910
H13   H     H_    0.254175 0.329390 0.410228 0.136363
H14   H     H_    0.880180 0.314386 0.406536 0.163224
H15   H     H_    0.065045 0.285710 0.389279 0.154190
H16   H     H_    0.182184 0.555893 0.527523 0.122697
H17   H     H_    0.736218 0.669161 0.588225 0.147063
H18   H     H_    0.065673 0.636115 0.568344 0.138522
H19   H     H_    0.922648 0.720681 0.612797 0.162820
H20   H     H_    0.747586 0.402968 0.453852 0.211136
H21   H     H_    0.679051 0.523586 0.804483 0.140714
H22   H     H_    0.674219 0.527957 0.699527 0.166351
H23   H     H_    0.334871 0.469800 0.662766 0.165555
H24   H     H_    0.342015 0.465684 0.767954 0.142051
H25   H     H_    0.330252 0.462751 0.194972 0.146881
N1    N     N_R   0.502040 0.482567 0.148042 -0.356875
N2    N     N_R   0.514427 0.491793 0.853803 -0.359354
N3    N     N_R   0.222200 0.444670 0.469780 -0.103791
N4    N     N_R   0.776960 0.554790 0.529910 -0.132769
O1    O     O_R   0.366740 0.627150 0.485570 -0.614843
O2    O     O_2   0.396217 0.643987 0.136754 -0.552965
O3    O     O_2   0.408323 0.652992 0.843038 -0.552010
O4    O     O_2   0.615858 0.330388 0.858907 -0.554141
O5    O     O_R   0.544830 0.662520 0.504870 -0.617387
O6    O     O_R   0.410930 0.482340 0.574190 -0.618980
O7    O     O_R   0.589010 0.517710 0.593490 -0.618839
O8    O     O_R   0.455170 0.337480 0.495130 -0.617698
O9    O     O_R   0.633260 0.372850 0.514430 -0.632564
O10   O     O_R   0.410990 0.482290 0.406510 -0.617457
O11   O     O_R   0.589070 0.517660 0.425810 -0.645725
O12   O     O_2   0.601481 0.319827 0.163107 -0.526189
Zn1   Zn    Zn3+2 0.381090 0.476380 0.487110 0.953346
Zn2   Zn    Zn3+2 0.618910 0.523620 0.512890 0.938967
C57   C     C_2   0.397237 0.063168 0.596681 0.881140
O13   O     O_2   0.487175 0.075501 0.626831 -0.601608
O14   O     O_R   0.301790 0.117439 0.608609 -0.804450
H26   H     H_    0.318040 0.165952 0.642368 0.354149
C58   C     C_3   0.718111 0.243020 0.962286 -0.708997
H27   H     H_    0.775013 0.193214 0.996490 0.212377
H28   H     H_    0.669877 0.192069 0.931857 0.278985
H29   H     H_    0.772423 0.280427 0.940133 0.253520
C59   C     C_2   0.701067 0.236231 0.083073 1.006323
O15   O     O_2   0.783781 0.251236 0.119142 -0.596407
O16   O     O_R   0.668809 0.138674 0.076540 -0.778345
H30   H     H_    0.720156 0.086683 0.104564 0.351052

loop_
_geom_bond_atom_site_label_1
_geom_bond_atom_site_label_2
_ccdc_geom_bond_type
C55   C56   A    
C1    O5    A    
C40   H15   S    
C41   C42   A    
C12   O6    A    
C19   C20   A    
C8    C56   A    
C58   H28   S    
C2    H1    S    
C7    C8    A    
C53   C54   A    
C42   H19   S    
C18   C24   A    
C28   C29   A    
C34   O11   A    
C21   H3    S    
C9    O3    S    
C22   H4    S    
C5    C6    A    
C15   C16   A    
O11   Zn2   S    
C10   N2    A    
C18   H25   S    
C59   O15   D    
C18   C19   A    
C25   H7    S    
C23   C26   S    
C52   N3    A    
C24   N1    S    
O16   H30   S    
C52   H13   S    
C11   H21   S    
C54   C55   A    
C15   H23   S    
C45   N1    A    
C10   O4    S    
C44   C46   A    
C16   C17   A    
C44   C47   A    
C46   N4    A    
C20   C34   S    
C43   H18   S    
C21   C22   A    
C8    C59   S    
C58   H27   S    
C12   O7    A    
C19   H2    S    
O10   Zn1   S    
C34   O10   A    
C45   C56   A    
C2    C54   A    
C27   C39   A    
C26   C38   A    
C47   C51   A    
C40   C52   A    
C23   O8    A    
C53   N1    A    
C17   N2    S    
C35   C36   A    
C28   H10   S    
C43   C44   A    
C29   C30   A    
N4    Zn2   S    
C50   H20   S    
C25   C38   A    
C47   C48   A    
C57   O14   S    
C53   O2    S    
C32   C37   A    
C9    N2    A    
C48   C49   A    
C12   C14   S    
C49   H14   S    
C22   C24   A    
C27   H9    S    
C42   C43   A    
C3    C4    A    
O5    Zn2   S    
C37   H8    S    
C1    O1    A    
C40   C48   A    
C13   H22   S    
C11   C17   A    
C29   C57   S    
C31   C36   A    
C5    C55   A    
C3    H11   S    
C4    C5    A    
C6    C10   A    
C36   H12   S    
C26   C37   A    
C6    C7    A    
C41   N4    A    
C46   C50   A    
C23   O9    A    
C7    C58   S    
N3    Zn1   S    
C32   C33   A    
C38   H5    S    
C2    C3    A    
C45   O12   S    
C30   C32   A    
C11   C13   A    
C30   C31   A    
O9    Zn2   S    
C51   N3    A    
C57   O13   D    
C33   C35   A    
C59   O16   S    
C35   H6    S    
O6    Zn1   S    
O14   H26   S    
O1    Zn1   S    
C1    C39   S    
C41   H17   S    
C20   C21   A    
C49   C50   A    
C51   H16   S    
C27   C28   A    
C31   C39   A    
C14   C15   A    
C16   H24   S    
C4    C9    A    
C13   C14   A    
O8    Zn1   S    
C58   H29   S    
O7    Zn2   S    
C25   C33   A    
