data_mof_unit_54634.cif
_audit_creation_date              2012-12-11T17:05:29-0500
_audit_creation_method            fapswitch 2.2
_symmetry_space_group_name_H-M    P1
_symmetry_Int_Tables_number       1
_space_group_crystal_system       triclinic
_cell_length_a                    6.961026
_cell_length_b                    14.542282
_cell_length_c                    15.987495
_cell_angle_alpha                 90.226094
_cell_angle_beta                  89.882474
_cell_angle_gamma                 89.934255
_cell_volume                      1618.38429269

loop_
_atom_site_label
_atom_site_type_symbol
_atom_type_description
_atom_site_fract_x
_atom_site_fract_y
_atom_site_fract_z
_atom_type_partial_charge
O1    O     O_R   0.494380 0.415640 0.412830 -0.534843
O2    O     O_R   0.823960 0.405540 0.586560 -0.523511
O3    O     O_R   0.994270 0.584360 0.587170 -0.542475
C1    C     C_R   0.655070 0.382414 0.614297 0.716517
O4    O     O_R   0.824090 0.404620 0.413450 -0.536459
O5    O     O_R   0.994400 0.583430 0.412820 -0.544134
C2    C     C_R   0.655483 0.382329 0.384611 0.710775
O6    O     O_R   0.494250 0.416570 0.587180 -0.537164
O7    O     O_3   0.660800 0.558670 0.500000 -0.381230
V1    V     V_3+5 0.935650 0.489120 0.500000 1.445502
O8    O     O_R   0.324110 0.594460 0.413440 -0.541683
C3    C     C_R   0.155136 0.616532 0.384705 0.683063
O9    O     O_R   0.323980 0.595380 0.586550 -0.550324
C4    C     C_R   0.155010 0.615419 0.617228 0.678587
V2    V     V_3+5 0.435660 0.510880 0.500000 1.407265
O10   O     O_3   0.160640 0.441330 0.500000 -0.347442
C5    C     C_3   0.958749 0.668634 0.743748 0.348049
H1    H     H_    0.830990 0.675687 0.701964 0.029590
C6    C     C_3   0.945350 0.743301 0.813677 -0.351774
H2    H     H_    0.933523 0.710592 0.876317 0.150831
H3    H     H_    0.811838 0.784112 0.804215 0.104141
H4    H     H_    0.006763 0.792170 0.613956 0.137523
H5    H     H_    0.001809 0.900785 0.718584 0.143254
C7    C     C_3   0.135843 0.783750 0.654171 -0.414896
C8    C     C_3   0.320926 0.677215 0.747330 -0.311179
C9    C     C_3   0.142852 0.684297 0.689110 0.067151
H6    H     H_    0.454191 0.691886 0.711218 0.126899
H7    H     H_    0.334655 0.606142 0.772103 0.154292
C10   C     C_3   0.122816 0.807719 0.812599 0.065772
C11   C     C_3   0.129880 0.855735 0.726227 -0.330165
C12   C     C_3   0.305358 0.746477 0.821016 -0.320711
H8    H     H_    0.300622 0.708390 0.881221 0.137208
H9    H     H_    0.436798 0.789926 0.821909 0.143883
H10   H     H_    0.263936 0.796613 0.614143 0.157945
H11   H     H_    0.259082 0.900566 0.722542 0.152137
C13   C     C_R   0.274515 0.750647 0.187520 0.097621
C14   C     C_R   0.118200 0.810701 0.179531 -0.111818
C15   C     C_R   0.965748 0.800543 0.236809 -0.172940
H12   H     H_    0.842513 0.845530 0.233319 0.132487
C16   C     C_R   0.977383 0.737035 0.303029 -0.177648
H13   H     H_    0.861675 0.734165 0.348143 0.129309
C17   C     C_R   0.142431 0.682287 0.314269 -0.107604
C18   C     C_R   0.286429 0.688107 0.253236 0.097867
C19   C     C_3   0.496248 0.704258 0.263634 -0.414548
C20   C     C_3   0.483355 0.771992 0.191749 -0.394047
H14   H     H_    0.582780 0.642099 0.248390 0.169643
H15   H     H_    0.529657 0.737508 0.324592 0.172179
H16   H     H_    0.561740 0.748819 0.134786 0.171045
H17   H     H_    0.510115 0.844436 0.210854 0.169791
C21   C     C_R   0.495474 0.247916 0.684987 0.118145
C22   C     C_R   0.647774 0.310464 0.679437 -0.125395
C23   C     C_R   0.799827 0.299802 0.736545 -0.139285
H18   H     H_    0.922594 0.344995 0.733521 0.142483
C24   C     C_R   0.788271 0.235517 0.802060 -0.181141
H19   H     H_    0.902861 0.232772 0.847529 0.125452
C25   C     C_R   0.624197 0.180005 0.812199 -0.104855
C26   C     C_R   0.483433 0.184877 0.750025 0.071037
C27   C     C_3   0.271378 0.196062 0.757099 -0.441512
C28   C     C_3   0.284210 0.263640 0.684703 0.007893
H20   H     H_    0.229931 0.229230 0.817197 0.150817
H21   H     H_    0.193334 0.131470 0.742090 0.196599
H22   H     H_    0.246520 0.335476 0.702140 0.115414
C29   C     C_R   0.491092 0.251507 0.309705 0.135603
C30   C     C_R   0.647639 0.311342 0.317773 -0.111664
C31   C     C_R   0.800029 0.300370 0.260488 -0.176409
H23   H     H_    0.923321 0.345207 0.263947 0.129720
C32   C     C_R   0.788249 0.236245 0.194275 -0.178692
H24   H     H_    0.904013 0.232758 0.149196 0.129844
C33   C     C_R   0.623081 0.181636 0.182988 -0.112793
C34   C     C_R   0.479042 0.188342 0.243997 0.103907
C35   C     C_3   0.269361 0.204873 0.233481 -0.425989
C36   C     C_3   0.282392 0.273287 0.305296 -0.389589
H25   H     H_    0.182492 0.143059 0.248756 0.182361
H26   H     H_    0.236250 0.237596 0.172476 0.169469
H27   H     H_    0.203588 0.250858 0.362179 0.207533
H28   H     H_    0.256055 0.345603 0.286103 0.159513
O11   O     O_R   0.771490 0.080820 0.910070 -0.538594
O12   O     O_R   0.441590 0.092730 0.083780 -0.539575
O13   O     O_R   0.271350 0.913900 0.084390 -0.536211
C37   C     C_R   0.610458 0.115117 0.112561 0.694797
O14   O     O_R   0.441780 0.091820 0.910670 -0.539519
O15   O     O_R   0.271540 0.912980 0.910040 -0.540357
C38   C     C_R   0.610892 0.113918 0.882087 0.702835
O16   O     O_R   0.771300 0.081740 0.084420 -0.539631
O17   O     O_3   0.604960 0.938700 0.997240 -0.371499
V3    V     V_3+5 0.330090 0.008230 0.997220 1.390640
O18   O     O_R   0.941820 0.901930 0.910640 -0.542762
C39   C     C_R   0.111197 0.878772 0.882514 0.673661
O19   O     O_R   0.941630 0.902840 0.083750 -0.542963
C40   C     C_R   0.110317 0.880931 0.112633 0.695908
V4    V     V_3+5 0.830090 0.986410 0.997190 1.385175
O20   O     O_3   0.105080 0.055990 0.997200 -0.369144
O21   O     O_3   0.966101 0.579866 0.780229 -0.560828
C41   C     C_3   0.780201 0.548874 0.802338 0.087159
H29   H     H_    0.716972 0.511033 0.748638 0.114780
H30   H     H_    0.680664 0.605685 0.820396 0.099183
C42   C     C_3   0.795566 0.484772 0.876993 -0.725684
H31   H     H_    0.840079 0.524367 0.933237 0.210869
H32   H     H_    0.654144 0.452195 0.889328 0.180117
H33   H     H_    0.903874 0.430309 0.864794 0.221721
I1    I     I_    0.157387 0.212581 0.571722 -0.422279

loop_
_geom_bond_atom_site_label_1
_geom_bond_atom_site_label_2
_ccdc_geom_bond_type
C8    C12   S    
O18   C39   A    
O21   C41   S    
O18   V4    S    
C6    H2    S    
C37   O16   A    
C42   H31   S    
O17   V4    S    
O17   V3    S    
C19   C20   S    
C8    H7    S    
C14   C15   A    
C14   C40   S    
C5    C9    S    
C13   C14   A    
C6    H3    S    
C7    C9    S    
O5    C3    A    
C15   H12   S    
O12   C37   A    
O11   C38   A    
C27   H20   S    
V2    O10   S    
C25   C26   A    
O13   C40   A    
C3    C17   S    
O14   C38   A    
O8    V2    S    
C19   H14   S    
C31   C32   A    
C12   H9    S    
C34   C35   S    
O1    V2    S    
O16   V4    S    
O19   V4    S    
O7    V1    S    
O14   V3    S    
C19   H15   S    
C1    O6    A    
O12   V3    S    
C27   H21   S    
C16   C17   A    
O9    C4    A    
C41   H29   S    
C10   C39   S    
C36   H27   S    
C42   H32   S    
C23   C24   A    
C5    H1    S    
C24   C25   A    
C1    C22   S    
C22   C23   A    
C28   I1    S    
H5    C11   S    
V4    O20   S    
C35   H25   S    
C41   C42   S    
C27   C28   S    
O15   V3    S    
C7    H10   S    
C32   H24   S    
C32   C33   A    
O2    C1    A    
C18   C19   S    
C10   C11   S    
C12   H8    S    
C29   C34   A    
C20   H17   S    
C21   C22   A    
C13   C20   S    
C4    C9    S    
C41   H30   S    
O3    C4    A    
C11   H11   S    
C16   H13   S    
O6    V2    S    
O9    V2    S    
H4    C7    S    
C5    O21   S    
C17   C18   A    
C21   C28   S    
O2    V1    S    
C42   H33   S    
C23   H18   S    
C25   C38   S    
O4    C2    A    
C20   H16   S    
C24   H19   S    
O11   V4    S    
C28   H22   S    
O1    C2    A    
C21   C26   A    
C13   C18   A    
O5    V1    S    
C35   H26   S    
O8    C3    A    
C8    H6    S    
C30   C31   A    
C8    C9    S    
C35   C36   S    
C10   C12   S    
O3    V1    S    
V3    O20   S    
C15   C16   A    
C26   C27   S    
C36   H28   S    
O15   C39   A    
C5    C6    S    
O7    V2    S    
C33   C34   A    
C7    C11   S    
C2    C30   S    
C29   C30   A    
O4    V1    S    
C29   C36   S    
C31   H23   S    
C33   C37   S    
V1    O10   S    
O19   C40   A    
O13   V3    S    
C6    C10   S    
