data_mof_unit_29730.cif
_audit_creation_date              2012-12-10T20:38:19-0500
_audit_creation_method            fapswitch 2.2
_symmetry_space_group_name_H-M    P1
_symmetry_Int_Tables_number       1
_space_group_crystal_system       triclinic
_cell_length_a                    9.922245
_cell_length_b                    10.671369
_cell_length_c                    16.784819
_cell_angle_alpha                 91.492954
_cell_angle_beta                  86.347021
_cell_angle_gamma                 90.586571
_cell_volume                      1772.96418465

loop_
_atom_site_label
_atom_site_type_symbol
_atom_type_description
_atom_site_fract_x
_atom_site_fract_y
_atom_site_fract_z
_atom_type_partial_charge
C1    C     C_R   0.500209 0.739978 0.503230 0.970521
C2    C     C_R   0.349581 0.440481 0.777616 -0.177843
C3    C     C_R   0.402308 0.377371 0.155344 0.204072
C4    C     C_R   0.428221 0.387663 0.234803 -0.231646
C5    C     C_R   0.596275 0.551855 0.207464 0.137127
C6    C     C_R   0.571606 0.541070 0.125922 0.155526
C7    C     C_R   0.472330 0.455472 0.100813 -0.002870
C8    C     C_2   0.463115 0.345054 0.973746 -0.189327
C9    C     C_2   0.440918 0.449513 0.017641 -0.118264
C10   C     C_R   0.519925 0.477079 0.261634 -0.157182
C11   C     C_R   0.382098 0.936010 0.500529 0.000560
C12   C     C_R   0.482605 0.493470 0.652787 0.906918
C13   C     C_R   0.498083 0.872271 0.516499 -0.175199
C14   C     C_R   0.604718 0.936837 0.552054 0.408026
C15   C     C_R   0.601579 0.069009 0.556921 0.059408
C16   C     C_R   0.494904 0.130330 0.521816 -0.171037
C17   C     C_R   0.379835 0.062768 0.504031 0.043356
C18   C     C_3   0.287356 0.070058 0.437433 -0.407980
C19   C     C_3   0.290088 0.927639 0.433121 0.020909
C20   C     C_R   0.925396 0.590302 0.541830 0.091777
C21   C     C_R   0.933128 0.417208 0.453050 0.469918
C22   C     C_R   0.075218 0.417805 0.452681 0.449013
C23   C     C_R   0.499004 0.260767 0.505703 0.920731
C24   C     C_R   0.067632 0.590475 0.541619 0.068655
C25   C     C_3   0.063938 0.615453 0.629493 0.228917
C26   C     C_3   0.910889 0.614890 0.629825 -0.361648
C27   C     C_R   0.517202 0.498006 0.347230 0.928334
C28   C     C_R   0.474986 0.454299 0.735562 -0.170008
C29   C     C_R   0.592355 0.413507 0.768912 -0.198863
C30   C     C_R   0.585941 0.362958 0.844193 0.197844
C31   C     C_R   0.461027 0.355106 0.887843 -0.043275
C32   C     C_R   0.340848 0.390346 0.853344 0.469208
H1    H     H_    0.689830 0.420026 0.736550 0.193102
H2    H     H_    0.186720 0.107080 0.458555 0.241935
H3    H     H_    0.335528 0.116209 0.384081 0.217280
H4    H     H_    0.191064 0.884071 0.451525 0.178102
H5    H     H_    0.105163 0.538644 0.663919 0.118345
H6    H     H_    0.371260 0.328924 0.276753 0.182469
H7    H     H_    0.863652 0.534809 0.662423 0.162579
H8    H     H_    0.864673 0.707280 0.645568 0.264555
H9    H     H_    0.414714 0.536029 0.989632 0.195195
H10   H     H_    0.257683 0.467976 0.751786 0.180503
H11   H     H_    0.503243 0.261715 0.999267 0.209066
N1    N     N_R   0.857140 0.500860 0.500530 -0.203537
N2    N     N_R   0.142780 0.500820 0.500530 -0.227888
O1    O     O_R   0.385310 0.683210 0.499990 -0.622799
O2    O     O_R   0.614650 0.683240 0.500000 -0.544262
O3    O     O_R   0.371780 0.500000 0.615800 -0.646391
O4    O     O_R   0.601120 0.500040 0.615800 -0.608035
O5    O     O_R   0.385350 0.316760 0.500000 -0.642696
O6    O     O_R   0.614690 0.316790 0.500010 -0.612701
O7    O     O_R   0.398880 0.499960 0.384200 -0.625910
O8    O     O_R   0.628220 0.500000 0.384200 -0.624354
Zn1   Zn    Zn3+2 0.346870 0.499980 0.499990 0.955090
Zn2   Zn    Zn3+2 0.653130 0.500020 0.500010 1.005564
I1    I     I_    0.682592 0.652920 0.039929 -0.187475
O9    O     O_3   0.708598 0.868995 0.580365 -0.747430
H12   H     H_    0.789757 0.922740 0.583499 0.367561
I2    I     I_    0.749391 0.170586 0.621868 -0.304353
I3    I     I_    0.381570 0.856579 0.321790 -0.257677
O10   O     O_3   0.875978 0.327498 0.405097 -0.683555
H13   H     H_    0.780985 0.347240 0.400760 0.382069
O11   O     O_3   0.141152 0.331280 0.402636 -0.722296
H14   H     H_    0.238077 0.347288 0.402714 0.371128
O12   O     O_3   0.115787 0.734641 0.647760 -0.708654
H15   H     H_    0.215350 0.725446 0.645907 0.352113
I4    I     I_    0.740406 0.684522 0.249297 -0.166466
O13   O     O_3   0.214474 0.381478 0.892445 -0.714645
H16   H     H_    0.219734 0.328590 0.939692 0.370845
I5    I     I_    0.245135 0.251022 0.125108 -0.219325
I6    I     I_    0.770780 0.311961 0.891543 -0.202729

loop_
_geom_bond_atom_site_label_1
_geom_bond_atom_site_label_2
_ccdc_geom_bond_type
C10   C27   S    
C27   O8    A    
C12   O4    A    
C6    C7    A    
C19   I3    S    
C21   N1    A    
C18   H2    S    
C18   H3    S    
C3    C7    A    
C31   C32   A    
C8    H11   S    
C5    I4    S    
C12   O3    A    
C26   H8    S    
O1    Zn1   S    
O10   H13   S    
C30   I6    S    
C22   O11   S    
O7    Zn1   S    
C5    C10   A    
O12   H15   S    
O5    Zn1   S    
C13   C14   A    
C27   O7    A    
C32   O13   S    
O3    Zn1   S    
C11   C13   A    
N1    Zn2   S    
C11   C19   S    
O9    H12   S    
C29   C30   A    
C20   C26   S    
C12   C28   S    
C5    C6    A    
C2    C32   A    
C28   C29   A    
C20   N1    A    
C4    H6    S    
N2    Zn1   S    
C17   C18   S    
C16   C23   S    
O6    Zn2   S    
C19   H4    S    
O8    Zn2   S    
C30   C31   A    
C26   H7    S    
C15   I2    S    
C1    O1    A    
C1    C13   S    
C24   N2    A    
O11   H14   S    
C4    C10   A    
C15   C16   A    
C16   C17   A    
C29   H1    S    
C22   N2    A    
C25   O12   S    
C24   C25   S    
O2    Zn2   S    
C18   C19   S    
C7    C9    S    
C14   O9    S    
C20   C24   A    
C14   C15   A    
C1    O2    A    
C23   O5    A    
C2    C28   A    
C9    H9    S    
C25   H5    S    
C25   C26   S    
C21   C22   A    
C8    C31   S    
C21   O10   S    
O13   H16   S    
C11   C17   A    
C23   O6    A    
C3    C4    A    
C3    I5    S    
C6    I1    S    
C8    C9    D    
C2    H10   S    
O4    Zn2   S    
