data_mof_unit_61689.cif
_audit_creation_date              2012-12-10T18:28:38-0500
_audit_creation_method            fapswitch 2.2
_symmetry_space_group_name_H-M    P1
_symmetry_Int_Tables_number       1
_space_group_crystal_system       triclinic
_cell_length_a                    21.72213
_cell_length_b                    21.736602
_cell_length_c                    21.214713
_cell_angle_alpha                 120.567689
_cell_angle_beta                  120.654649
_cell_angle_gamma                 90.255726
_cell_volume                      6933.20200358

loop_
_atom_site_label
_atom_site_type_symbol
_atom_type_description
_atom_site_fract_x
_atom_site_fract_y
_atom_site_fract_z
_atom_type_partial_charge
C1    C     C_R   0.084682 0.584566 0.669238 0.808021
C2    C     C_R   0.973981 0.245623 0.188338 -0.106205
C3    C     C_R   0.244649 0.442205 0.425435 -0.228078
C4    C     C_R   0.312941 0.505253 0.499887 -0.087071
C5    C     C_R   0.316082 0.567842 0.573023 0.006984
C6    C     C_R   0.250875 0.563917 0.570804 -0.240866
C7    C     C_R   0.183933 0.499704 0.497871 -0.062523
C8    C     C_R   0.180064 0.438609 0.424054 -0.006984
C9    C     C_R   0.415695 0.666994 0.740739 -0.150033
C10   C     C_R   0.479725 0.734367 0.813805 -0.136609
C11   C     C_R   0.513171 0.774372 0.797637 -0.123390
C12   C     C_R   0.117926 0.499501 0.498713 0.803203
C13   C     C_R   0.482540 0.747185 0.708374 -0.120609
C14   C     C_R   0.418483 0.679975 0.635244 -0.100663
C15   C     C_R   0.384788 0.638863 0.650652 0.118806
C16   C     C_1   0.136173 0.635723 0.771758 -0.186078
C17   C     C_1   0.178709 0.678127 0.856706 -0.022407
C18   C     C_1   0.228957 0.728411 0.957462 -0.013711
C19   C     C_1   0.271328 0.770882 0.042420 -0.002207
C20   C     C_1   0.321638 0.821346 0.143202 -0.005171
C21   C     C_1   0.364088 0.863928 0.228170 -0.195011
C22   C     C_R   0.959116 0.444052 0.705353 -0.124905
C23   C     C_R   0.915352 0.415426 0.330751 0.807025
C24   C     C_R   0.894098 0.439792 0.634503 -0.163951
C25   C     C_R   0.884308 0.506824 0.643568 0.104622
C26   C     C_R   0.939453 0.578139 0.724402 -0.215097
C27   C     C_R   0.004086 0.582425 0.795530 -0.140068
C28   C     C_R   0.014619 0.515471 0.786274 0.264990
C29   C     C_R   0.751959 0.505211 0.568488 -0.237644
C30   C     C_R   0.687007 0.503855 0.500377 -0.081366
C31   C     C_R   0.686732 0.503207 0.433357 0.002764
C32   C     C_R   0.751230 0.501064 0.434240 -0.246094
C33   C     C_R   0.815244 0.500328 0.500995 -0.070341
C34   C     C_R   0.881550 0.500092 0.500430 0.802269
C35   C     C_R   0.816034 0.502674 0.568887 0.003640
C36   C     C_R   0.582413 0.450828 0.271804 -0.140909
C37   C     C_R   0.520379 0.455764 0.207746 -0.138881
C38   C     C_R   0.497855 0.518925 0.236510 -0.123412
C39   C     C_R   0.537566 0.577491 0.329379 -0.124588
C40   C     C_R   0.599491 0.572715 0.393656 -0.115258
C41   C     C_R   0.621966 0.508980 0.365266 0.122384
C42   C     C_1   0.863889 0.364286 0.228213 -0.179081
C43   C     C_1   0.821347 0.321869 0.143251 -0.015348
C44   C     C_1   0.771046 0.271503 0.042479 -0.018542
C45   C     C_R   0.018323 0.250078 0.267767 -0.133336
C46   C     C_1   0.728619 0.229046 0.957515 -0.011558
C47   C     C_1   0.678263 0.178682 0.856744 -0.032804
C48   C     C_1   0.635833 0.136142 0.771787 -0.219017
C49   C     C_R   0.497272 0.619767 0.499708 0.816275
C50   C     C_R   0.379942 0.502835 0.500034 0.819078
C51   C     C_R   0.501594 0.380202 0.500066 0.840113
C52   C     C_R   0.620064 0.501853 0.500046 0.832999
C53   C     C_R   0.501019 0.119735 0.501784 0.788158
C54   C     C_R   0.415369 0.915327 0.330732 0.799405
C55   C     C_R   0.500839 0.882183 0.501906 0.788283
C56   C     C_R   0.085718 0.313044 0.344948 -0.103609
C57   C     C_R   0.584616 0.084715 0.669257 0.792932
C58   C     C_R   0.260782 0.503536 0.247025 0.240530
C59   C     C_R   0.330740 0.562447 0.301793 -0.100543
C60   C     C_R   0.352412 0.631050 0.383098 0.049792
C61   C     C_R   0.301780 0.641967 0.406886 -0.190837
C62   C     C_R   0.232039 0.583444 0.352516 -0.178236
C63   C     C_R   0.211671 0.514273 0.273095 -0.102554
C64   C     C_R   0.430906 0.757651 0.447613 -0.228180
C65   C     C_R   0.501215 0.816337 0.503775 -0.079544
C66   C     C_R   0.570052 0.810175 0.558629 0.004632
C67   C     C_R   0.108635 0.372246 0.343145 0.086960
C68   C     C_R   0.566758 0.744893 0.555958 -0.261550
C69   C     C_R   0.496727 0.685928 0.498871 -0.091983
C70   C     C_R   0.427961 0.691586 0.443300 0.000291
C71   C     C_R   0.704083 0.855888 0.611156 -0.140818
C72   C     C_R   0.776229 0.912925 0.671490 -0.138200
C73   C     C_R   0.790851 0.985382 0.742826 -0.114187
C74   C     C_R   0.733368 0.000897 0.753972 -0.119515
C75   C     C_R   0.660948 0.944178 0.693448 -0.125283
C76   C     C_R   0.645765 0.871317 0.621363 0.124485
C77   C     C_R   0.521462 0.254942 0.272341 -0.132592
C78   C     C_R   0.064036 0.367419 0.263198 -0.166568
C79   C     C_R   0.497834 0.244396 0.317365 -0.150589
C80   C     C_R   0.551863 0.265779 0.405712 0.086360
C81   C     C_R   0.631024 0.296762 0.448395 0.200987
C82   C     C_R   0.653701 0.306388 0.401724 -0.131746
C83   C     C_R   0.599242 0.286103 0.314567 -0.151011
C84   C     C_R   0.523977 0.194605 0.455160 -0.226750
C85   C     C_R   0.502913 0.188017 0.504520 -0.083152
C86   C     C_R   0.483362 0.246126 0.554431 0.007970
C87   C     C_R   0.482893 0.308472 0.551137 -0.243251
C88   C     C_R   0.502327 0.313889 0.500324 -0.076959
C89   C     C_R   0.996925 0.304177 0.186005 -0.135467
C90   C     C_R   0.524122 0.257459 0.452894 0.000167
C91   C     C_R   0.396394 0.248139 0.599238 -0.141606
C92   C     C_R   0.381161 0.248701 0.656069 -0.140896
C93   C     C_R   0.436229 0.247298 0.728164 -0.115556
C94   C     C_R   0.506702 0.245519 0.743696 -0.114785
C95   C     C_R   0.522119 0.244745 0.686896 -0.115221
C96   C     C_R   0.466799 0.245539 0.613827 0.125378
Cu1   Cu    Cu3+1 0.000010 0.438210 0.500020 0.944161
Cu2   Cu    Cu3+1 0.999990 0.561790 0.499980 0.947886
Cu3   Cu    Cu3+1 0.457530 0.457560 0.415050 0.953967
Cu4   Cu    Cu3+1 0.542470 0.542480 0.584950 0.956063
Cu5   Cu    Cu3+1 0.561810 0.000000 0.500000 0.958023
Cu6   Cu    Cu3+1 0.438190 0.000000 0.500000 0.957107
H1    H     H_    0.921818 0.196880 0.128650 0.126972
H2    H     H_    0.562779 0.826436 0.854264 0.125194
H3    H     H_    0.508422 0.778101 0.695760 0.134362
H4    H     H_    0.395650 0.659520 0.566674 0.104120
H5    H     H_    0.966068 0.391702 0.696982 0.123163
H6    H     H_    0.851737 0.384381 0.572465 0.129162
H7    H     H_    0.932330 0.630307 0.732254 0.141675
H8    H     H_    0.046152 0.637926 0.857712 0.145783
H9    H     H_    0.752450 0.507447 0.620986 0.154274
H10   H     H_    0.752012 0.500899 0.383428 0.144742
H11   H     H_    0.000566 0.204661 0.269454 0.122835
H12   H     H_    0.599017 0.401390 0.248715 0.114785
H13   H     H_    0.489658 0.410533 0.135780 0.124727
H14   H     H_    0.449734 0.522560 0.186842 0.122065
H15   H     H_    0.520280 0.626513 0.351547 0.133568
H16   H     H_    0.629763 0.618453 0.465453 0.096622
H17   H     H_    0.157568 0.469384 0.231862 0.117927
H18   H     H_    0.368893 0.554411 0.281998 0.132861
H19   H     H_    0.316921 0.695300 0.468304 0.140523
H20   H     H_    0.193832 0.591592 0.372128 0.148304
H21   H     H_    0.119973 0.315739 0.405967 0.127425
H22   H     H_    0.378240 0.762567 0.405327 0.155843
H23   H     H_    0.619188 0.739845 0.598514 0.147598
H24   H     H_    0.693513 0.799838 0.556329 0.122601
H25   H     H_    0.820881 0.900870 0.663127 0.128600
H26   H     H_    0.846817 0.029403 0.789701 0.122978
H27   H     H_    0.745135 0.056803 0.809816 0.133970
H28   H     H_    0.617016 0.956739 0.703155 0.102605
H29   H     H_    0.617441 0.294430 0.279666 0.129643
H30   H     H_    0.479367 0.239133 0.204690 0.128162
H31   H     H_    0.437197 0.220589 0.283921 0.135315
H32   H     H_    0.081159 0.412649 0.260867 0.123613
H33   H     H_    0.713832 0.330176 0.433224 0.141170
H34   H     H_    0.540156 0.150632 0.418067 0.160295
H35   H     H_    0.468029 0.353521 0.589103 0.144151
H36   H     H_    0.353261 0.249275 0.543616 0.122632
H37   H     H_    0.326696 0.250337 0.644295 0.126568
H38   H     H_    0.424394 0.247851 0.772175 0.122308
H39   H     H_    0.549441 0.244953 0.799922 0.134611
H40   H     H_    0.577147 0.243857 0.700004 0.102512
H41   H     H_    0.962513 0.300704 0.124506 0.133898
H42   H     H_    0.241919 0.394770 0.368810 0.159594
H43   H     H_    0.251917 0.611413 0.625879 0.139114
H44   H     H_    0.390573 0.636484 0.754347 0.125206
H45   H     H_    0.503451 0.755538 0.882996 0.130285
O1    O     O_R   0.061970 0.509790 0.623960 -0.559024
O2    O     O_R   0.535870 0.626050 0.571740 -0.589903
O3    O     O_R   0.373960 0.464160 0.428260 -0.587972
O4    O     O_R   0.445680 0.535880 0.571730 -0.579343
O5    O     O_R   0.464130 0.373990 0.428260 -0.589199
O6    O     O_R   0.535860 0.445700 0.571730 -0.585582
O7    O     O_R   0.554320 0.464170 0.428270 -0.568794
O8    O     O_R   0.626040 0.535880 0.571740 -0.595645
O9    O     O_R   0.552180 0.090160 0.499970 -0.585442
O10   O     O_R   0.447790 0.090160 0.499970 -0.567522
O11   O     O_R   0.490230 0.938030 0.376060 -0.564815
O12   O     O_R   0.061960 0.614160 0.623930 -0.567869
O13   O     O_R   0.385840 0.938030 0.376050 -0.564597
O14   O     O_R   0.552210 0.909840 0.500030 -0.567910
O15   O     O_R   0.447820 0.909840 0.500030 -0.585627
O16   O     O_R   0.614160 0.061970 0.623950 -0.558475
O17   O     O_R   0.509770 0.061970 0.623940 -0.561026
O18   O     O_R   0.090190 0.447820 0.500020 -0.585018
O19   O     O_R   0.090170 0.552190 0.499990 -0.580669
O20   O     O_R   0.938040 0.385840 0.376070 -0.563380
O21   O     O_R   0.938030 0.490210 0.376040 -0.568611
O22   O     O_R   0.909830 0.447810 0.500010 -0.580259
O23   O     O_R   0.909810 0.552180 0.499980 -0.580324
O24   O     O_R   0.464140 0.554340 0.428270 -0.585365
C97   C     C_3   0.084914 0.521005 0.862687 -0.901036
H46   H     H_    0.085330 0.463572 0.845656 0.227689
H47   H     H_    0.136748 0.551058 0.876871 0.242284
H48   H     H_    0.087070 0.553664 0.924927 0.235266
C98   C     C_3   0.239704 0.429696 0.161902 -0.914191
H49   H     H_    0.183084 0.388537 0.125918 0.230279
H50   H     H_    0.237232 0.440792 0.115171 0.231254
H51   H     H_    0.283534 0.403355 0.179471 0.234402
C99   C     C_3   0.692623 0.320307 0.542577 -0.906922
H52   H     H_    0.669566 0.311859 0.574787 0.250270
H53   H     H_    0.730306 0.286338 0.539018 0.231871
H54   H     H_    0.727762 0.381723 0.587329 0.231142

loop_
_geom_bond_atom_site_label_1
_geom_bond_atom_site_label_2
_ccdc_geom_bond_type
Cu4   O6    S    
C66   C68   A    
C87   C88   A    
C93   C94   A    
C48   C57   S    
C73   C74   A    
C40   H16   S    
C95   C96   A    
C62   H20   S    
C43   C44   S    
C36   H12   S    
Cu1   Cu2   S    
C7    C8    A    
C85   C86   A    
C99   H52   S    
C52   O8    A    
C26   C27   A    
Cu5   Cu6   S    
C23   C42   S    
C36   C37   A    
C37   C38   A    
C69   C70   A    
C12   O19   A    
C5    C6    A    
Cu3   O24   S    
C77   C83   A    
C52   O7    A    
C22   H5    S    
Cu3   O7    S    
C9    H44   S    
Cu1   O22   S    
C61   H19   S    
C18   C19   T    
C82   H33   S    
C39   H15   S    
C33   C35   A    
C91   C96   A    
C50   O4    A    
C28   C97   S    
C98   H51   S    
C84   H34   S    
C47   C48   T    
C45   C56   A    
C99   H53   S    
C16   C17   T    
C17   C18   S    
C71   H24   S    
C98   H49   S    
C11   H2    S    
C24   H6    S    
C64   C70   A    
C32   H10   S    
C9    C10   A    
C34   O23   A    
C99   H54   S    
C10   H45   S    
C72   C73   A    
C98   H50   S    
C59   C60   A    
C2    C45   A    
C49   C69   S    
C13   C14   A    
C80   C90   S    
C36   C41   A    
C94   C95   A    
C67   C78   A    
C84   C90   A    
C87   H35   S    
Cu6   O10   S    
C55   C65   S    
C44   C46   T    
C81   C82   A    
C77   C79   A    
C78   C89   A    
C38   C39   A    
C79   H31   S    
Cu3   O3    S    
C55   O15   A    
C25   C35   S    
C74   C75   A    
C72   H25   S    
C56   H21   S    
Cu5   O16   S    
C24   C25   A    
C27   H8    S    
C13   H3    S    
C3    C8    A    
Cu6   O13   S    
C39   C40   A    
C49   O24   A    
C6    H43   S    
C86   C87   A    
C68   C69   A    
Cu5   O9    S    
C25   C26   A    
Cu1   O20   S    
C79   C80   A    
C4    C50   S    
C60   C61   A    
C59   H18   S    
C77   H30   S    
C51   C88   S    
C2    C89   A    
C75   C76   A    
C83   H29   S    
C29   C30   A    
C54   O11   A    
C91   H36   S    
C38   H14   S    
C50   O3    A    
C31   C32   A    
C57   O16   A    
C1    O12   A    
C30   C31   A    
Cu6   O15   S    
C66   C76   S    
C20   C21   T    
C62   C63   A    
C33   C34   S    
C1    C16   S    
C84   C85   A    
C78   H32   S    
C26   H7    S    
C55   O14   A    
Cu2   O19   S    
C34   O22   A    
C86   C96   S    
C8    C67   S    
C23   O20   A    
Cu4   O8    S    
C40   C41   A    
C88   C90   A    
Cu5   O11   S    
C82   C83   A    
Cu1   O1    S    
C22   C24   A    
C7    C12   S    
C74   H27   S    
C42   C43   T    
C3    C4    A    
C56   C67   A    
C12   O18   A    
C64   H22   S    
C97   H46   S    
C53   O9    A    
C58   C63   A    
C30   C52   S    
C46   C47   S    
C51   O6    A    
C31   C41   S    
C94   H39   S    
C29   H9    S    
C58   C98   S    
C3    H42   S    
C81   C99   S    
C80   C81   A    
C75   H28   S    
C60   C70   S    
C51   O5    A    
C53   C85   S    
C97   H48   S    
C6    C7    A    
C37   H13   S    
Cu4   O2    S    
C73   H26   S    
Cu3   O5    S    
C29   C35   A    
C53   O10   A    
Cu3   Cu4   S    
C49   O2    A    
C21   C54   S    
C64   C65   A    
C19   C20   S    
Cu5   O14   S    
C58   C59   A    
C71   C72   A    
C93   H38   S    
C89   H41   S    
C32   C33   A    
C11   C13   A    
Cu4   O4    S    
C71   C76   A    
C57   O17   A    
C2    H1    S    
Cu1   O18   S    
C92   C93   A    
C97   H47   S    
C65   C66   A    
C9    C15   A    
C61   C62   A    
C5    C15   S    
C10   C11   A    
C54   O13   A    
C23   O21   A    
Cu2   O23   S    
C45   H11   S    
C4    C5    A    
Cu2   O12   S    
C95   H40   S    
Cu6   O17   S    
C63   H17   S    
C14   H4    S    
C27   C28   A    
C14   C15   A    
C1    O1    A    
C22   C28   A    
C92   H37   S    
C68   H23   S    
Cu2   O21   S    
C91   C92   A    
