data_mof_unit_36908.cif
_audit_creation_date              2012-12-11T16:07:24-0500
_audit_creation_method            fapswitch 2.2
_symmetry_space_group_name_H-M    P1
_symmetry_Int_Tables_number       1
_space_group_crystal_system       triclinic
_cell_length_a                    7.068125
_cell_length_b                    14.852766
_cell_length_c                    15.941348
_cell_angle_alpha                 90.489129
_cell_angle_beta                  90.097855
_cell_angle_gamma                 89.714384
_cell_volume                      1673.45785325

loop_
_atom_site_label
_atom_site_type_symbol
_atom_type_description
_atom_site_fract_x
_atom_site_fract_y
_atom_site_fract_z
_atom_type_partial_charge
O1    O     O_R   0.494320 0.415010 0.412140 -0.506272
O2    O     O_R   0.824010 0.404260 0.587250 -0.558381
O3    O     O_R   0.994320 0.584990 0.587860 -0.517641
C1    C     C_R   0.655077 0.381715 0.613989 0.724149
O4    O     O_R   0.824040 0.403870 0.412760 -0.554208
O5    O     O_R   0.994350 0.584590 0.412130 -0.541918
C2    C     C_R   0.653455 0.381883 0.383182 0.625522
O6    O     O_R   0.494300 0.415410 0.587870 -0.555937
O7    O     O_3   0.660800 0.559290 0.500000 -0.347217
V1    V     V_3+5 0.935650 0.489000 0.500000 1.436670
O8    O     O_R   0.324060 0.595740 0.412750 -0.540555
C3    C     C_R   0.154412 0.621331 0.386695 0.619332
O9    O     O_R   0.324040 0.596130 0.587240 -0.515285
C4    C     C_R   0.154966 0.609786 0.620894 0.688808
V2    V     V_3+5 0.435660 0.511000 0.500000 1.503076
O10   O     O_3   0.160640 0.440710 0.500000 -0.396340
C5    C     C_3   0.964077 0.699242 0.747495 0.043780
C6    C     C_3   0.083075 0.702021 0.829240 -0.319107
H1    H     H_    0.039302 0.673992 0.890500 0.132000
C7    C     C_3   0.129733 0.803079 0.814420 -0.136025
C8    C     C_3   0.005998 0.799763 0.733094 -0.228989
C9    C     C_3   0.182064 0.771007 0.681242 -0.128202
C10   C     C_3   0.303490 0.770922 0.761001 0.537425
C11   C     C_3   0.258176 0.671774 0.776107 -0.171186
C12   C     C_3   0.138804 0.672132 0.695617 -0.071803
H2    H     H_    0.900376 0.848461 0.709362 0.170458
H3    H     H_    0.227207 0.798639 0.619999 0.112839
H4    H     H_    0.362099 0.619231 0.794449 0.129366
C13   C     C_3   0.179537 0.863347 0.277402 -0.088081
H5    H     H_    0.075307 0.918517 0.288028 0.148285
C14   C     C_3   0.175514 0.793006 0.352787 -0.111920
H6    H     H_    0.315380 0.792909 0.385117 0.115770
H7    H     H_    0.408366 0.767727 0.151784 0.142471
H8    H     H_    0.441738 0.697994 0.278771 0.149308
C15   C     C_3   0.270325 0.740125 0.172296 -0.332085
C16   C     C_3   0.931342 0.769116 0.205314 -0.308492
C17   C     C_3   0.124645 0.816387 0.191267 -0.014052
H9    H     H_    0.881203 0.737653 0.145725 0.151634
H10   H     H_    0.822906 0.819872 0.224406 0.160637
C18   C     C_3   0.143302 0.695344 0.317918 0.002501
C19   C     C_3   0.302008 0.680818 0.250682 -0.322573
C20   C     C_3   0.945827 0.695559 0.273614 -0.293022
H11   H     H_    0.831303 0.706981 0.320326 0.159282
H12   H     H_    0.916392 0.629155 0.245196 0.161761
H13   H     H_    0.217862 0.697435 0.119527 0.152151
H14   H     H_    0.317751 0.610484 0.230928 0.158078
C21   C     C_3   0.448935 0.271796 0.690912 -0.362128
H15   H     H_    0.339330 0.324051 0.704294 0.128266
H16   H     H_    0.398194 0.239824 0.631761 0.198676
C22   C     C_3   0.458520 0.202678 0.762125 -0.402340
H17   H     H_    0.427925 0.136100 0.735483 0.187006
H18   H     H_    0.359386 0.231253 0.807496 0.196683
H19   H     H_    0.539954 0.397072 0.783378 0.122815
H20   H     H_    0.572531 0.309027 0.890288 0.192494
C23   C     C_3   0.675976 0.361229 0.771202 0.272023
C24   C     C_3   0.778432 0.229807 0.664454 0.234381
C25   C     C_3   0.646361 0.313377 0.683469 -0.114724
H21   H     H_    0.918236 0.255323 0.642921 0.031205
C26   C     C_3   0.646709 0.193964 0.811650 -0.088023
C27   C     C_3   0.684602 0.292143 0.844700 -0.463532
C28   C     C_3   0.813653 0.170697 0.745422 0.765060
H22   H     H_    0.815910 0.300514 0.878990 0.197108
C29   C     C_3   0.577516 0.363833 0.219826 0.361214
C30   C     C_3   0.630604 0.293543 0.143950 -0.014890
H23   H     H_    0.319873 0.206715 0.209100 0.207253
C31   C     C_3   0.482948 0.240474 0.323279 0.446164
C32   C     C_3   0.825058 0.261046 0.297415 -0.488917
C33   C     C_3   0.635811 0.315761 0.306961 -0.101460
H24   H     H_    0.871459 0.237136 0.359540 0.166753
H25   H     H_    0.941144 0.302948 0.274751 0.233406
C34   C     C_3   0.624837 0.193019 0.180930 -0.065661
C35   C     C_3   0.451584 0.184553 0.241287 -0.383894
C36   C     C_3   0.800689 0.178118 0.238694 -0.305845
H26   H     H_    0.935039 0.162778 0.206006 0.225187
H27   H     H_    0.778414 0.116160 0.275428 0.135082
H28   H     H_    0.545282 0.194115 0.369077 0.042563
H29   H     H_    0.429379 0.112926 0.258192 0.147642
O11   O     O_R   0.771990 0.083520 0.910980 -0.549816
O12   O     O_R   0.442180 0.095020 0.086060 -0.554169
O13   O     O_R   0.271950 0.914280 0.086680 -0.543477
C37   C     C_R   0.612070 0.118859 0.113132 0.706202
O14   O     O_R   0.442270 0.094630 0.911580 -0.563310
O15   O     O_R   0.272040 0.913890 0.910940 -0.548741
C38   C     C_R   0.615852 0.121430 0.884655 0.668359
O16   O     O_R   0.771900 0.083910 0.086710 -0.518165
O17   O     O_3   0.605520 0.939610 0.998840 -0.381787
V3    V     V_3+5 0.330640 0.009880 0.998810 1.342332
O18   O     O_R   0.942330 0.902710 0.911540 -0.550245
C39   C     C_R   0.113091 0.877561 0.884164 0.649536
O19   O     O_R   0.942240 0.903100 0.086030 -0.538702
C40   C     C_R   0.111555 0.883428 0.117023 0.652042
V4    V     V_3+5 0.830640 0.987830 0.998780 1.379125
O20   O     O_3   0.105630 0.058150 0.998800 -0.378531
C41   C     C_2   0.778804 0.651309 0.742460 0.482024
H30   H     H_    0.721492 0.619738 0.797914 0.041309
O21   O     O_2   0.691195 0.647804 0.676557 -0.489829
O22   O     O_3   0.689099 0.173105 0.603564 -0.560874
C42   C     C_3   0.758193 0.183023 0.521588 0.014961
H31   H     H_    0.907972 0.202621 0.519340 0.095908
H32   H     H_    0.675996 0.236174 0.490219 0.106117
C43   C     C_3   0.736801 0.092706 0.475821 -0.635958
H33   H     H_    0.595714 0.063244 0.488012 0.252040
H34   H     H_    0.757324 0.099701 0.408243 0.177491
H35   H     H_    0.847621 0.044483 0.494703 0.216289
O23   O     O_3   0.815550 0.076335 0.726991 -0.589165
C44   C     C_3   0.939904 0.048882 0.660985 0.139030
H36   H     H_    0.994308 0.103716 0.621731 0.142339
H37   H     H_    0.858673 0.000826 0.621807 0.167321
C45   C     C_3   0.114468 0.999293 0.690050 -0.845607
H38   H     H_    0.150298 0.945913 0.643985 0.211288
H39   H     H_    0.236520 0.044109 0.690210 0.206699
H40   H     H_    0.094064 0.971653 0.752695 0.218760
O24   O     O_3   0.995657 0.197125 0.773125 -0.632394
C46   C     C_3   0.072495 0.148062 0.839516 0.159314
H41   H     H_    0.026397 0.078984 0.846903 0.171060
H42   H     H_    0.203184 0.119108 0.819289 0.110904
C47   C     C_3   0.099543 0.211349 0.915627 -0.624082
H43   H     H_    0.973733 0.209743 0.956316 0.238376
H44   H     H_    0.223095 0.196191 0.954524 0.220628
H45   H     H_    0.125516 0.280573 0.894868 0.179544
O25   O     O_3   0.800217 0.436373 0.774477 -0.559879
C48   C     C_3   0.994588 0.416513 0.769955 0.098657
H46   H     H_    0.055083 0.452811 0.715836 0.125642
H47   H     H_    0.027312 0.345670 0.759689 0.157606
C49   C     C_3   0.091403 0.450670 0.849319 -0.751253
H48   H     H_    0.020776 0.424430 0.906115 0.235186
H49   H     H_    0.242617 0.430367 0.849514 0.186205
H50   H     H_    0.082152 0.524612 0.852210 0.222317
O26   O     O_3   0.376213 0.376560 0.225850 -0.536489
C50   C     C_3   0.283959 0.433009 0.166975 0.146622
H51   H     H_    0.224144 0.393331 0.114436 0.180211
H52   H     H_    0.369112 0.488137 0.141239 0.177326
C51   C     C_3   0.113723 0.473173 0.208319 -0.760696
H53   H     H_    0.146515 0.496223 0.272625 0.232100
H54   H     H_    0.056955 0.527520 0.168154 0.203801
H55   H     H_    0.009057 0.420433 0.213659 0.220971
C52   C     C_2   0.671356 0.456700 0.214402 0.192818
H56   H     H_    0.707180 0.494416 0.270544 0.065091
O27   O     O_2   0.695894 0.494238 0.147472 -0.555714
C53   C     C_2   0.822496 0.315379 0.102923 0.288291
H57   H     H_    0.841386 0.378171 0.070075 0.159978
O28   O     O_2   0.955100 0.262865 0.100381 -0.572463
C54   C     C_2   0.491050 0.301056 0.072115 0.223238
H58   H     H_    0.373263 0.255324 0.067081 0.103437
O29   O     O_2   0.497300 0.364243 0.023580 -0.557788
O30   O     O_3   0.305758 0.274861 0.351192 -0.520004
C55   C     C_3   0.252802 0.238480 0.429507 0.118145
H59   H     H_    0.126003 0.275747 0.450880 0.151034
H60   H     H_    0.362210 0.250859 0.478066 0.102604
C56   C     C_3   0.205536 0.137819 0.423789 -0.806918
H61   H     H_    0.330046 0.097008 0.406092 0.256794
H62   H     H_    0.160097 0.113356 0.485955 0.193137
H63   H     H_    0.093498 0.125335 0.376556 0.235003
O31   O     O_3   0.493825 0.789998 0.747289 -0.564084
C57   C     C_3   0.572581 0.836288 0.814193 0.053068
H64   H     H_    0.715885 0.810285 0.824122 0.138401
H65   H     H_    0.508704 0.822007 0.875750 0.135208
C58   C     C_3   0.584500 0.933289 0.787890 -0.576157
H66   H     H_    0.698805 0.964306 0.823330 0.230490
H67   H     H_    0.620008 0.937025 0.720229 0.227210
H68   H     H_    0.449412 0.969641 0.796553 0.192684
C59   C     C_2   0.371037 0.908740 0.274324 0.292939
H69   H     H_    0.460886 0.903871 0.219514 0.077692
O32   O     O_2   0.428826 0.951020 0.335019 -0.541358
C60   C     C_2   0.034332 0.816820 0.421281 0.363185
H70   H     H_    0.039251 0.780259 0.479906 0.033855
O33   O     O_2   0.914271 0.875362 0.412343 -0.527862

loop_
_geom_bond_atom_site_label_1
_geom_bond_atom_site_label_2
_ccdc_geom_bond_type
C31   C33   S    
C8    H2    S    
C23   O25   S    
C60   H70   S    
C57   H65   S    
C36   H27   S    
C36   H26   S    
O23   C44   S    
C50   H52   S    
C55   H59   S    
C1    O6    A    
O12   V3    S    
O22   C42   S    
C21   H16   S    
H20   C27   S    
C14   C18   S    
C52   O27   D    
C43   H33   S    
C6    C11   S    
C22   C26   S    
C8    C9    S    
C16   C17   S    
C55   H60   S    
C53   O28   D    
O24   C46   S    
O13   V3    S    
C45   H39   S    
O5    C3    A    
C54   H58   S    
C44   H36   S    
V2    O10   S    
C24   C25   S    
C27   H22   S    
C6    H1    S    
C30   C34   S    
O14   C38   A    
C58   H68   S    
C2    C33   S    
O8    V2    S    
C31   C35   S    
O18   V4    S    
C56   H63   S    
C1    C25   S    
C51   H55   S    
C22   H18   S    
C10   C11   S    
C32   C36   S    
C13   H5    S    
C28   O23   S    
O7    V1    S    
O18   C39   A    
C18   C20   S    
C49   H48   S    
C52   H56   S    
C26   C27   S    
C60   O33   D    
O1    C2    A    
O9    C4    A    
C57   C58   S    
C58   H67   S    
C29   C52   S    
H8    C19   S    
C20   H12   S    
C24   O22   S    
O16   V4    S    
C22   H17   S    
C21   C22   S    
C59   O32   D    
H19   C23   S    
C53   H57   S    
O15   C39   A    
C26   C28   S    
C17   C40   S    
C32   C33   S    
C21   H15   S    
C14   C60   S    
C55   C56   S    
C11   C12   S    
C45   H38   S    
C47   H45   S    
O4    C2    A    
O17   V3    S    
O11   V4    S    
C9    C12   S    
C5    C8    S    
C32   H24   S    
C3    C18   S    
O2    C1    A    
C35   H29   S    
C16   C20   S    
C21   C25   S    
O19   V4    S    
C14   H6    S    
C7    C10   S    
C19   H14   S    
C31   H28   S    
C5    C6    S    
O25   C48   S    
C26   C38   S    
C41   O21   D    
O3    C4    A    
O31   C57   S    
O30   C55   S    
O1    V2    S    
C18   C19   S    
C43   H35   S    
C42   H32   S    
C9    H3    S    
C23   C25   S    
O9    V2    S    
C28   O24   S    
C51   H53   S    
C56   H62   S    
C45   H40   S    
C50   C51   S    
C20   H11   S    
C48   H47   S    
O2    V1    S    
C34   C36   S    
C59   H69   S    
C30   C53   S    
C54   O29   D    
C29   C33   S    
C15   C17   S    
C24   C28   S    
C13   C59   S    
C16   H10   S    
C11   H4    S    
O15   V3    S    
O5    V1    S    
C46   H42   S    
O8    C3    A    
C46   H41   S    
C30   C54   S    
O6    V2    S    
H23   C35   S    
C7    C39   S    
O12   C37   A    
C56   H61   S    
C42   C43   S    
C32   H25   S    
C5    C12   S    
C48   C49   S    
C47   H44   S    
C50   H51   S    
O26   C50   S    
O4    V1    S    
C13   C14   S    
O3    V1    S    
V1    O10   S    
C47   H43   S    
O19   C40   A    
C58   H66   S    
C44   H37   S    
O13   C40   A    
C49   H50   S    
V3    O20   S    
C16   H9    S    
V4    O20   S    
H7    C15   S    
C24   H21   S    
C6    C7    S    
C29   O26   S    
C4    C12   S    
O7    V2    S    
C41   H30   S    
C15   C19   S    
C31   O30   S    
C46   C47   S    
C29   C30   S    
O11   C38   A    
C34   C35   S    
C7    C8    S    
C43   H34   S    
C42   H31   S    
C10   O31   S    
C13   C17   S    
C57   H64   S    
C49   H49   S    
C51   H54   S    
C9    C10   S    
O17   V4    S    
C5    C41   S    
C48   H46   S    
C23   C27   S    
C37   O16   A    
O14   V3    S    
C34   C37   S    
C44   C45   S    
C15   H13   S    
