data_mof_unit_6328.cif
_audit_creation_date              2012-12-10T17:33:52-0500
_audit_creation_method            fapswitch 2.2
_symmetry_space_group_name_H-M    P1
_symmetry_Int_Tables_number       1
_space_group_crystal_system       triclinic
_cell_length_a                    10.939369
_cell_length_b                    12.105973
_cell_length_c                    12.967014
_cell_angle_alpha                 93.394291
_cell_angle_beta                  94.506742
_cell_angle_gamma                 86.401634
_cell_volume                      1706.01509554

loop_
_atom_site_label
_atom_site_type_symbol
_atom_type_description
_atom_site_fract_x
_atom_site_fract_y
_atom_site_fract_z
_atom_type_partial_charge
C1    C     C_R   0.486794 0.521721 0.699373 0.915247
C2    C     C_3   0.123144 0.504263 0.505649 -0.183776
C3    C     C_3   0.061348 0.519658 0.390562 0.360564
C4    C     C_3   0.077852 0.605926 0.584168 0.164156
C5    C     C_R   0.485558 0.461184 0.186796 -0.213708
C6    C     C_R   0.459961 0.533887 0.808891 -0.213149
C7    C     C_R   0.417063 0.643119 0.966977 0.138557
C8    C     C_R   0.428878 0.637397 0.860317 0.014299
C9    C     C_R   0.462233 0.437411 0.864030 0.307072
C10   C     C_R   0.478608 0.445908 0.971353 -0.111677
C11   C     C_R   0.441352 0.546652 0.023037 0.028272
C12   C     C_R   0.742887 0.501152 0.504132 0.980997
C13   C     C_R   0.426923 0.547342 0.129083 0.078490
C14   C     C_R   0.533961 0.363380 0.135648 0.240230
C15   C     C_R   0.529279 0.355966 0.027714 0.309062
C16   C     C_R   0.420077 0.945789 0.374196 0.243626
C17   C     C_R   0.420784 0.832876 0.392677 -0.038384
C18   C     C_R   0.530287 0.861858 0.555242 0.368272
C19   C     C_R   0.518620 0.978518 0.547044 -0.174537
C20   C     C_R   0.467166 0.021991 0.453621 -0.081720
C21   C     C_R   0.460775 0.139864 0.445850 0.179896
C22   C     C_R   0.576667 0.162619 0.607029 0.362185
C23   C     C_R   0.498297 0.477395 0.299354 0.982051
C24   C     C_R   0.559741 0.052942 0.628050 0.231164
C25   C     C_R   0.258616 0.500731 0.502679 0.917417
C26   C     C_3   0.943853 0.394676 0.559586 0.309038
C27   C     C_3   0.085226 0.393131 0.552630 -0.196123
C28   C     C_3   0.917556 0.507120 0.389331 0.328639
C29   C     C_3   0.930337 0.613988 0.572652 0.138876
C30   C     C_3   0.880647 0.504145 0.506479 -0.246616
H1    H     H_    0.382808 0.775915 0.333315 0.205823
H2    H     H_    0.129075 0.392975 0.632516 0.213296
N1    N     N_R   0.523380 0.207800 0.519350 -0.176488
N2    N     N_R   0.476620 0.792180 0.480650 -0.155876
O1    O     O_R   0.506240 0.421700 0.658830 -0.553843
O2    O     O_R   0.491240 0.609310 0.646410 -0.625896
O3    O     O_R   0.692710 0.406190 0.506230 -0.544779
O4    O     O_R   0.677700 0.593810 0.493810 -0.607952
O5    O     O_R   0.508760 0.390690 0.353590 -0.596954
O6    O     O_R   0.493760 0.578300 0.341170 -0.599361
O7    O     O_R   0.322300 0.406190 0.506190 -0.666033
O8    O     O_R   0.307290 0.593810 0.493770 -0.610848
Zn1   Zn    Zn3+2 0.510020 0.374730 0.508290 1.040117
Zn2   Zn    Zn3+2 0.489980 0.625270 0.491710 1.000310
N3    N     N_3   0.892769 0.289999 0.514783 -0.346185
H3    H     H_    0.931030 0.258230 0.447733 0.246113
H4    H     H_    0.912355 0.226833 0.566281 0.249110
N4    N     N_3   0.123172 0.714427 0.561364 -0.370038
H5    H     H_    0.212699 0.723552 0.593229 0.215439
H6    H     H_    0.077361 0.777519 0.604688 0.219592
Br1   Br    Br    0.817886 0.617873 0.307037 -0.360592
Br2   Br    Br    0.101397 0.661456 0.337008 -0.438516
N5    N     N_3   0.342782 0.628800 0.175298 -0.372208
H7    H     H_    0.264177 0.637451 0.124349 0.239419
H8    H     H_    0.307105 0.595232 0.237686 0.238040
Br3   Br    Br    0.604003 0.235615 0.208152 -0.260110
N6    N     N_3   0.392692 0.749237 0.019445 -0.381442
H9    H     H_    0.461481 0.801459 0.005436 0.259612
H10   H     H_    0.308440 0.783428 0.988712 0.235899
Br4   Br    Br    0.619684 0.233641 0.961182 -0.188098
N7    N     N_3   0.400489 0.736949 0.806904 -0.424861
H11   H     H_    0.337581 0.722177 0.743760 0.204433
H12   H     H_    0.481186 0.764327 0.783484 0.281974
Br5   Br    Br    0.379231 0.309893 0.802220 -0.395139
N8    N     N_3   0.380684 0.187059 0.365253 -0.334920
H13   H     H_    0.293996 0.157128 0.370623 0.191547
H14   H     H_    0.365767 0.271031 0.380334 0.253605
Br6   Br    Br    0.914733 0.391607 0.708154 -0.428533
Br7   Br    Br    0.679365 0.244202 0.703353 -0.274141
Br8   Br    Br    0.366717 0.981603 0.234319 -0.367460
Br9   Br    Br    0.556478 0.020444 0.772109 -0.293288
Br10  Br    Br    0.647522 0.798930 0.654845 -0.511008
N9    N     N_3   0.132486 0.286436 0.505768 -0.453671
H15   H     H_    0.145460 0.288311 0.427973 0.249055
H16   H     H_    0.211828 0.254284 0.546643 0.240787
Br11  Br    Br    0.860901 0.380831 0.300396 -0.335208
Br12  Br    Br    0.140950 0.423048 0.284081 -0.445996
N10   N     N_3   0.888317 0.719288 0.523921 -0.432773
H17   H     H_    0.931559 0.734818 0.458643 0.271573
H18   H     H_    0.795245 0.734422 0.507867 0.278990
N11   N     N_3   0.885456 0.623014 0.677035 -0.386336
H19   H     H_    0.902012 0.701068 0.712656 0.260050
H20   H     H_    0.791715 0.611792 0.675073 0.246429
N12   N     N_3   0.127365 0.588814 0.692436 -0.460630
H21   H     H_    0.219917 0.561539 0.694917 0.156288
H22   H     H_    0.082084 0.534741 0.732777 0.263263

loop_
_geom_bond_atom_site_label_1
_geom_bond_atom_site_label_2
_ccdc_geom_bond_type
C14   Br3   S    
C9    Br5   S    
N9    H16   S    
C15   Br4   S    
C19   C20   A    
C6    C9    A    
N11   H19   S    
C7    C8    A    
N3    H3    S    
C7    C11   A    
C26   C27   S    
C3    C28   S    
N12   H22   S    
C10   C15   A    
C28   Br1   S    
N10   H18   S    
N6    H10   S    
C21   N1    A    
C23   O6    A    
C18   C19   A    
N9    H15   S    
N3    H4    S    
C12   O3    A    
N7    H12   S    
C26   N3    S    
C29   N10   S    
C16   C17   A    
N8    H14   S    
C5    C23   S    
C2    C27   S    
O1    Zn1   S    
C9    C10   A    
C22   Br7   S    
C5    C13   A    
C4    C29   S    
C8    N7    S    
C12   C30   S    
N4    H6    S    
O7    Zn1   S    
O8    Zn2   S    
N11   H20   S    
C13   N5    S    
N5    H8    S    
C18   Br10  S    
C1    C6    S    
N1    Zn1   S    
N2    Zn2   S    
N12   H21   S    
C25   O7    A    
N10   H17   S    
C6    C8    A    
N5    H7    S    
O3    Zn1   S    
C2    C4    S    
O4    Zn2   S    
C29   C30   S    
C4    N12   S    
C16   C20   A    
C16   Br8   S    
C18   N2    A    
C5    C14   A    
N4    H5    S    
C29   N11   S    
C26   C30   S    
C17   H1    S    
C22   C24   A    
O2    Zn2   S    
C17   N2    A    
C28   Br11  S    
C1    O1    A    
C4    N4    S    
C22   N1    A    
C21   N8    S    
C27   H2    S    
C25   O8    A    
O5    Zn1   S    
C3    Br2   S    
C26   Br6   S    
C28   C30   S    
C2    C3    S    
C11   C13   A    
N6    H9    S    
C23   O5    A    
C19   C24   A    
C2    C25   S    
C12   O4    A    
N7    H11   S    
C10   C11   A    
O6    Zn2   S    
C20   C21   A    
C1    O2    A    
N8    H13   S    
C14   C15   A    
C27   N9    S    
C7    N6    S    
C24   Br9   S    
C3    Br12  S    
