data_mof_unit_40296.cif
_audit_creation_date              2013-03-05T16:06:00-0500
_audit_creation_method            fapswitch 2.2
_symmetry_space_group_name_H-M    P1
_symmetry_Int_Tables_number       1
_space_group_crystal_system       triclinic
_cell_length_a                    10.818448
_cell_length_b                    9.534624
_cell_length_c                    23.554563
_cell_angle_alpha                 89.872106
_cell_angle_beta                  89.954847
_cell_angle_gamma                 89.985559
_cell_volume                      2429.64237853

loop_
_atom_site_label
_atom_site_type_symbol
_atom_site_description
_atom_site_fract_x
_atom_site_fract_y
_atom_site_fract_z
_atom_type_partial_charge
O1    O     O_R   0.319640 0.618740 0.500000 -0.588773
O2    O     O_R   0.680360 0.381260 0.500000 -0.591498
O3    O     O_R   0.680360 0.618740 0.500000 -0.589137
O4    O     O_R   0.319640 0.381260 0.500000 -0.591386
C1    C     C_R   0.262124 0.500024 0.499972 0.776103
C2    C     C_R   0.737877 0.500004 0.500055 0.775628
O5    O     O_R   0.499960 0.618810 0.417880 -0.546929
O6    O     O_R   0.500040 0.381190 0.582120 -0.591005
O7    O     O_R   0.500040 0.618810 0.582120 -0.546050
O8    O     O_R   0.499960 0.381190 0.417880 -0.590642
C3    C     C_R   0.498079 0.500121 0.391083 0.858807
C4    C     C_R   0.502496 0.499853 0.608952 0.858938
Cu1   Cu    Cu3+1 0.500000 0.640660 0.500000 0.962168
Cu2   Cu    Cu3+1 0.500000 0.359340 0.500000 0.937324
C5    C     C_R   0.615886 0.483601 0.881240 0.575149
C6    C     C_R   0.387871 0.469598 0.119120 0.577793
N1    N     N_R   0.506390 0.490224 0.852113 -0.445189
N2    N     N_R   0.496423 0.486890 0.148203 -0.438469
C7    C     C_R   0.395496 0.495665 0.880041 0.580026
C8    C     C_R   0.606491 0.503123 0.120307 0.587968
C9    C     C_R   0.391497 0.489667 0.939423 -0.047420
C10   C     C_R   0.610858 0.498659 0.060931 -0.045095
C11   C     C_R   0.502954 0.490720 0.970186 -0.069922
C12   C     C_R   0.499702 0.489668 0.030165 -0.070533
C13   C     C_R   0.617419 0.492698 0.941043 -0.056630
C14   C     C_R   0.385570 0.479558 0.059311 -0.062799
C15   C     C_R   0.278360 0.484515 0.968379 -0.233293
C16   C     C_R   0.723921 0.505229 0.031994 -0.234858
C17   C     C_R   0.273962 0.479036 0.027713 0.256285
C18   C     C_R   0.728704 0.502103 0.972661 0.257686
O9    O     O_2   0.722193 0.465773 0.852166 -0.500266
O10   O     O_2   0.283343 0.441568 0.148263 -0.500332
O11   O     O_2   0.289335 0.507440 0.850334 -0.535290
O12   O     O_2   0.711444 0.524232 0.150045 -0.544837
H1    H     H_    0.192038 0.485173 0.945044 0.184116
H2    H     H_    0.809852 0.513405 0.055357 0.180639
C19   C     C_R   0.557062 0.386823 0.240784 0.271232
C20   C     C_R   0.451729 0.383331 0.759969 0.274231
C21   C     C_R   0.556939 0.392590 0.299932 -0.362139
C22   C     C_R   0.450997 0.388459 0.700740 -0.364372
H3    H     H_    0.606643 0.312989 0.323637 0.177416
H4    H     H_    0.405198 0.305542 0.677410 0.176943
C23   C     C_R   0.494263 0.499365 0.328681 -0.132211
C24   C     C_R   0.507783 0.498824 0.671419 -0.132595
C25   C     C_R   0.428538 0.602367 0.297789 0.164670
C26   C     C_R   0.568738 0.605955 0.701840 0.162068
C27   C     C_R   0.429855 0.598787 0.237792 0.194915
C28   C     C_R   0.566779 0.603889 0.761866 0.201909
C29   C     C_R   0.494493 0.490723 0.209379 0.259012
C30   C     C_R   0.508156 0.492363 0.790867 0.262615
C31   C     C_R   0.063926 0.372605 0.499800 -0.183567
C32   C     C_R   0.936065 0.627556 0.500267 -0.185988
C33   C     C_R   0.936136 0.372592 0.499923 -0.183838
C34   C     C_R   0.063873 0.627569 0.500055 -0.186175
H5    H     H_    0.112027 0.272944 0.499640 0.148456
H6    H     H_    0.887941 0.727203 0.500510 0.148217
H7    H     H_    0.888083 0.272927 0.499838 0.148495
H8    H     H_    0.111948 0.727220 0.500055 0.148213
C35   C     C_R   0.871737 0.500054 0.500125 -0.015997
C36   C     C_R   0.128263 0.500080 0.499902 -0.016017
C37   C     C_R   0.421062 0.074561 0.465833 -0.026863
C38   C     C_R   0.578994 0.925464 0.534111 -0.020731
C39   C     C_R   0.578946 0.074154 0.534155 -0.028769
C40   C     C_R   0.421030 0.925854 0.465859 -0.020743
H9    H     H_    0.357787 0.130640 0.438426 0.120839
H10   H     H_    0.642393 0.869439 0.561380 0.137260
H11   H     H_    0.642237 0.129896 0.561554 0.120667
H12   H     H_    0.357700 0.870127 0.438524 0.136621
N3    N     N_R   0.500000 0.852070 0.500000 -0.157655
N4    N     N_R   0.500000 0.147930 0.500000 -0.156456
N5    N     N_2   0.156393 0.477811 0.054865 -0.373681
H13   H     H_    0.091118 0.418642 0.033845 0.235896
C41   C     C_3   0.110334 0.615812 0.069091 -0.608452
H14   H     H_    0.093121 0.677606 0.029819 0.194421
H15   H     H_    0.177687 0.672536 0.096246 0.251003
H16   H     H_    0.022215 0.605626 0.092931 0.236743
N6    N     N_2   0.845988 0.513069 0.945578 -0.373703
H17   H     H_    0.915718 0.460939 0.966746 0.235995
C42   C     C_3   0.880865 0.655254 0.931182 -0.602250
H18   H     H_    0.891824 0.718838 0.970352 0.193378
H19   H     H_    0.809873 0.704499 0.903487 0.252748
H20   H     H_    0.970162 0.654242 0.907905 0.234047
N7    N     N_2   0.621532 0.276750 0.212808 -0.385421
H21   H     H_    0.698230 0.241531 0.234612 0.262163
C43   C     C_3   0.543442 0.162523 0.194618 -0.691259
H22   H     H_    0.599943 0.084001 0.171451 0.230979
H23   H     H_    0.469997 0.200831 0.165577 0.247151
H24   H     H_    0.500391 0.111093 0.232129 0.218593
N8    N     N_2   0.392837 0.269636 0.788412 -0.383474
H25   H     H_    0.323569 0.222439 0.765202 0.258975
C44   C     C_3   0.476653 0.168328 0.812931 -0.693076
H26   H     H_    0.422507 0.085445 0.834842 0.230606
H27   H     H_    0.537899 0.217857 0.844789 0.245118
H28   H     H_    0.534199 0.120195 0.779087 0.221367
N9    N     N_2   0.361997 0.708960 0.327191 -0.422992
H29   H     H_    0.363269 0.806271 0.308021 0.252765
C45   C     C_3   0.240150 0.667322 0.346237 -0.670701
H30   H     H_    0.179566 0.645016 0.309290 0.227598
H31   H     H_    0.198268 0.753265 0.371503 0.213194
H32   H     H_    0.245684 0.572478 0.373567 0.225338
N10   N     N_2   0.632030 0.714488 0.671910 -0.423256
H33   H     H_    0.625822 0.812781 0.689815 0.250308
C46   C     C_3   0.756248 0.678113 0.654438 -0.670100
H34   H     H_    0.815762 0.660008 0.692178 0.228521
H35   H     H_    0.796248 0.765100 0.628956 0.211075
H36   H     H_    0.755498 0.582128 0.627778 0.226587
N11   N     N_2   0.361504 0.699012 0.205543 -0.408817
H37   H     H_    0.280439 0.736260 0.222869 0.264884
C47   C     C_3   0.432015 0.800962 0.173415 -0.704538
H38   H     H_    0.407853 0.908082 0.187849 0.218814
H39   H     H_    0.408103 0.791765 0.127767 0.235601
H40   H     H_    0.533370 0.785653 0.178419 0.241591
N12   N     N_2   0.625863 0.711479 0.793754 -0.404852
H41   H     H_    0.705229 0.752204 0.776020 0.266398
C48   C     C_3   0.543072 0.817670 0.815209 -0.731390
H42   H     H_    0.596545 0.895600 0.840076 0.232313
H43   H     H_    0.472515 0.770638 0.843655 0.251398
H44   H     H_    0.495928 0.871244 0.779347 0.224453

loop_
_geom_bond_atom_site_label_1
_geom_bond_atom_site_label_2
_geom_bond_distance
_ccdc_geom_bond_type
C37   N4    1.367564 A    
N10   H33   1.030717 S    
C15   C17   1.399230 A    
C41   H15   1.111325 S    
C41   H14   1.111436 S    
N9    H29   1.031049 S    
O3    C2    1.291699 A    
C45   H30   1.110863 S    
C33   C35   1.400703 A    
C27   C29   1.414385 A    
C34   C36   1.400867 A    
N6    H17   1.031506 S    
O5    C3    1.297183 A    
C20   N8    1.423502 S    
O1    C1    1.291809 A    
C40   H12   1.081054 S    
C7    C9    1.400395 A    
C12   C14   1.415490 A    
C47   H39   1.109759 S    
C5    C13   1.411605 A    
C48   H42   1.110194 S    
O7    Cu1   1.945025 S    
C18   N6    1.423487 S    
C32   C34   1.382684 A    
C48   H43   1.109375 S    
N11   H37   1.030402 S    
C3    C23   1.470491 S    
N8    C44   1.444539 S    
C31   H5    1.083287 S    
O3    Cu1   1.962323 S    
C8    O12   1.349947 S    
N6    C42   1.446798 S    
C9    C15   1.401519 A    
N10   C46   1.447459 S    
C10   C16   1.401131 A    
Cu1   Cu2   2.682280 S    
N11   C47   1.447637 S    
O2    C2    1.292044 A    
O2    Cu2   1.962428 S    
C45   H31   1.110185 S    
C24   C26   1.412811 A    
C26   C28   1.414110 A    
C25   C27   1.413769 A    
C6    C14   1.411992 A    
C26   N10   1.425860 S    
C39   H11   1.081767 S    
C38   H10   1.080434 S    
C43   H23   1.110073 S    
C21   H3    1.084136 S    
C7    O11   1.349870 S    
C47   H40   1.112458 S    
C44   H26   1.109933 S    
C42   H19   1.111354 S    
C33   H7    1.083289 S    
C21   C23   1.398843 A    
C15   H1    1.084006 S    
C43   H22   1.110402 S    
C38   N3    1.367288 A    
C31   C33   1.382492 A    
C37   C40   1.417868 A    
C38   C39   1.417703 A    
C32   C35   1.400945 A    
C44   H27   1.108004 S    
C19   C29   1.408530 A    
C22   H4    1.084001 S    
N7    H21   1.031881 S    
C39   N4    1.367381 A    
O5    Cu1   1.945950 S    
O6    C4    1.297480 A    
C48   H44   1.110503 S    
C46   H35   1.110378 S    
C40   N3    1.367390 A    
C23   C25   1.413090 A    
C6    N2    1.370208 A    
N7    C43   1.444489 S    
C8    C10   1.400088 A    
C27   N11   1.426280 S    
C9    C11   1.407296 A    
O8    Cu2   1.945025 S    
C41   H16   1.110174 S    
C10   C12   1.407230 A    
O1    Cu1   1.962429 S    
C25   N9    1.425746 S    
C45   H32   1.110489 S    
N5    C41   1.446813 S    
N12   H41   1.030229 S    
C34   H8    1.083295 S    
C43   H24   1.111551 S    
C13   C18   1.419116 A    
C5    N1    1.370754 A    
O6    Cu2   1.945950 S    
C1    C36   1.448170 S    
C2    C35   1.448162 S    
O4    C1    1.291930 A    
N1    C30   1.442835 S    
C42   H20   1.110470 S    
N9    C45   1.447419 S    
C5    O9    1.348975 S    
C20   C30   1.409780 A    
C6    O10   1.348898 S    
C16   C18   1.398868 A    
N5    H13   1.031549 S    
C19   C21   1.394410 A    
C47   H38   1.108310 S    
C44   H28   1.111028 S    
C20   C22   1.395866 A    
Cu1   N3    2.015715 S    
C28   C30   1.412807 A    
N1    C7    1.368782 A    
C46   H36   1.111091 S    
N2    C8    1.368218 A    
C11   C13   1.415499 A    
O4    Cu2   1.962324 S    
Cu2   N4    2.015716 S    
O7    C4    1.297458 A    
O8    C3    1.296722 A    
C11   C12   1.413200 A    
C42   H18   1.111563 S    
C37   H9    1.081761 S    
C22   C24   1.399330 A    
C16   H2    1.083587 S    
C14   C17   1.418899 A    
C4    C24   1.472557 S    
C46   H34   1.111205 S    
C19   N7    1.422726 S    
C31   C36   1.400770 A    
N12   C48   1.443565 S    
N8    H25   1.031911 S    
C32   H6    1.083301 S    
N2    C29   1.441651 S    
C28   N12   1.424628 S    
C17   N5    1.423237 S    
