data_mof_unit_52335.cif
_audit_creation_date              2012-12-11T17:05:27-0500
_audit_creation_method            fapswitch 2.2
_symmetry_space_group_name_H-M    P1
_symmetry_Int_Tables_number       1
_space_group_crystal_system       triclinic
_cell_length_a                    6.947898
_cell_length_b                    14.527504
_cell_length_c                    16.014001
_cell_angle_alpha                 90.193238
_cell_angle_beta                  90.023658
_cell_angle_gamma                 90.020372
_cell_volume                      1616.37362165

loop_
_atom_site_label
_atom_site_type_symbol
_atom_type_description
_atom_site_fract_x
_atom_site_fract_y
_atom_site_fract_z
_atom_type_partial_charge
O1    O     O_R   0.494380 0.415640 0.412830 -0.557294
O2    O     O_R   0.823960 0.405540 0.586560 -0.539786
O3    O     O_R   0.994270 0.584360 0.587170 -0.545585
C1    C     C_R   0.655195 0.383427 0.615189 0.727177
O4    O     O_R   0.824090 0.404620 0.413450 -0.560211
O5    O     O_R   0.994400 0.583430 0.412820 -0.523359
C2    C     C_R   0.655314 0.382512 0.384485 0.685614
O6    O     O_R   0.494250 0.416570 0.587180 -0.541880
O7    O     O_3   0.660800 0.558670 0.500000 -0.326208
V1    V     V_3+5 0.935650 0.489120 0.500000 1.550670
O8    O     O_R   0.324110 0.594460 0.413440 -0.511673
C3    C     C_R   0.155084 0.616766 0.384857 0.789265
O9    O     O_R   0.323980 0.595380 0.586550 -0.488680
C4    C     C_R   0.155432 0.617622 0.615518 0.871342
V2    V     V_3+5 0.435660 0.510880 0.500000 1.662873
O10   O     O_3   0.160640 0.441330 0.500000 -0.407740
C5    C     C_3   0.051585 0.643949 0.764783 -0.506241
H1    H     H_    0.905127 0.618157 0.748954 0.250416
H2    H     H_    0.136772 0.583313 0.785394 0.237999
C6    C     C_3   0.038027 0.714836 0.837600 0.523525
H3    H     H_    0.120036 0.688364 0.892177 0.111353
H4    H     H_    0.871550 0.748392 0.646696 0.158970
C7    C     C_3   0.020404 0.772053 0.660978 0.494895
C8    C     C_3   0.350508 0.722889 0.712008 1.151688
C9    C     C_3   0.145946 0.687740 0.686285 -0.293465
C10   C     C_3   0.122713 0.809490 0.810980 -0.220417
C11   C     C_3   0.011069 0.843934 0.733053 -0.373069
C12   C     C_3   0.335759 0.793580 0.784180 -0.467650
H5    H     H_    0.401108 0.860013 0.764373 0.179466
H6    H     H_    0.072813 0.910608 0.711938 0.179626
C13   C     C_R   0.250919 0.739692 0.179888 -0.004698
C14   C     C_R   0.117332 0.811839 0.180325 -0.210257
C15   C     C_R   0.982785 0.813851 0.246269 -0.201332
H7    H     H_    0.873506 0.866980 0.248184 0.175644
C16   C     C_R   0.997107 0.751712 0.313719 0.723873
C17   C     C_R   0.142083 0.683547 0.315251 -0.170092
C18   C     C_R   0.261552 0.676601 0.245005 -0.186572
C19   C     C_3   0.475308 0.670487 0.238393 0.437157
C20   C     C_3   0.463645 0.739868 0.167549 0.452837
H8    H     H_    0.527317 0.601029 0.219803 0.080356
H9    H     H_    0.532955 0.807372 0.180783 0.080502
C21   C     C_R   0.494880 0.317396 0.742280 0.026139
C22   C     C_R   0.647542 0.317285 0.685166 -0.151331
C23   C     C_R   0.797785 0.253982 0.698654 -0.099668
H10   H     H_    0.919059 0.251577 0.656480 0.116766
C24   C     C_R   0.786422 0.188607 0.763155 -0.090903
H11   H     H_    0.899755 0.138019 0.768957 0.119895
C25   C     C_R   0.624388 0.184564 0.815930 -0.153060
C26   C     C_R   0.483431 0.252522 0.806072 0.003503
C27   C     C_3   0.271445 0.242208 0.795497 0.493790
C28   C     C_3   0.283851 0.313215 0.726187 0.477274
H12   H     H_    0.228681 0.172274 0.774254 -0.070407
C29   C     C_R   0.504264 0.320861 0.252634 0.106721
C30   C     C_R   0.647899 0.316203 0.313935 -0.175039
C31   C     C_R   0.791702 0.248700 0.303421 -0.249506
H13   H     H_    0.907860 0.243403 0.348216 0.152487
C32   C     C_R   0.779521 0.182836 0.238626 0.603723
C33   C     C_R   0.625075 0.184181 0.180989 -0.214419
C34   C     C_R   0.493733 0.257020 0.187723 0.034462
C35   C     C_3   0.279257 0.255796 0.190195 -0.339106
C36   C     C_3   0.290772 0.325656 0.260999 -0.398543
H14   H     H_    0.222813 0.187867 0.209972 0.233165
H15   H     H_    0.214339 0.284110 0.132271 0.199139
H16   H     H_    0.239257 0.298413 0.321795 0.176885
O11   O     O_R   0.771490 0.080820 0.910070 -0.541968
O12   O     O_R   0.441590 0.092730 0.083780 -0.546507
O13   O     O_R   0.271350 0.913900 0.084390 -0.545425
C37   C     C_R   0.610680 0.114391 0.113225 0.757462
O14   O     O_R   0.441780 0.091820 0.910670 -0.540141
O15   O     O_R   0.271540 0.912980 0.910040 -0.553084
C38   C     C_R   0.610792 0.113816 0.881928 0.706409
O16   O     O_R   0.771300 0.081740 0.084420 -0.512996
O17   O     O_3   0.604960 0.938700 0.997240 -0.361370
V3    V     V_3+5 0.330090 0.008230 0.997220 1.532122
O18   O     O_R   0.941820 0.901930 0.910640 -0.514222
C39   C     C_R   0.110939 0.879526 0.881786 0.749315
O19   O     O_R   0.941630 0.902840 0.083750 -0.531388
C40   C     C_R   0.110301 0.880972 0.112645 0.785482
V4    V     V_3+5 0.830090 0.986410 0.997190 1.592435
O20   O     O_3   0.105080 0.055990 0.997200 -0.363932
F1    F     F_    0.092335 0.812910 0.589356 -0.601349
F2    F     F_    0.879290 0.763015 0.380531 -0.579866
F3    F     F_    0.564333 0.706317 0.308407 -0.632845
F4    F     F_    0.513743 0.701723 0.091301 -0.656240
F5    F     F_    0.172530 0.273643 0.865003 -0.603594
F6    F     F_    0.194432 0.395506 0.746294 -0.620355
H17   H     H_    0.247991 0.286501 0.662980 -0.056935
F7    F     F_    0.910248 0.113500 0.236643 -0.704437
H18   H     H_    0.233321 0.394435 0.243773 0.167890
F8    F     F_    0.847407 0.724266 0.861858 -0.624416
H19   H     H_    0.857854 0.857094 0.749439 0.181143
F9    F     F_    0.441027 0.763935 0.644476 -0.624903
F10   F     F_    0.463724 0.649560 0.737784 -0.667584
H20   H     H_    0.420905 0.768804 0.838567 0.220295

loop_
_geom_bond_atom_site_label_1
_geom_bond_atom_site_label_2
_ccdc_geom_bond_type
O12   C37   A    
C31   H13   S    
O11   V4    S    
C19   F3    S    
O17   V3    S    
C16   C17   A    
C1    O6    A    
C29   C34   A    
C20   H9    S    
O19   C40   A    
C10   C11   S    
C35   H15   S    
C12   H20   S    
C12   H5    S    
C20   F4    S    
O16   V4    S    
O5    C3    A    
C19   C20   S    
V2    O10   S    
O12   V3    S    
C5    C6    S    
C35   H14   S    
O14   C38   A    
C27   F5    S    
C15   C16   A    
C30   C31   A    
O8    V2    S    
C36   H18   S    
O15   V3    S    
C10   C39   S    
C11   H19   S    
O1    V2    S    
C7    C11   S    
C3    C17   S    
O7    V1    S    
C21   C28   S    
C34   C35   S    
V3    O20   S    
O9    C4    A    
C11   H6    S    
O13   C40   A    
C29   C36   S    
C8    F9    S    
C28   F6    S    
C16   F2    S    
C23   C24   A    
C27   C28   S    
O19   V4    S    
C24   C25   A    
C8    C9    S    
C28   H17   S    
O4    C2    A    
C33   C34   A    
C29   C30   A    
C6    F8    S    
C13   C18   A    
C35   C36   S    
C36   H16   S    
O2    C1    A    
O18   C39   A    
C18   C19   S    
C27   H12   S    
C13   C14   A    
C37   O16   A    
C5    H1    S    
O17   V4    S    
O14   V3    S    
O13   V3    S    
O3    C4    A    
C33   C37   S    
C25   C26   A    
O6    V2    S    
O9    V2    S    
C22   C23   A    
O15   C39   A    
C21   C22   A    
C25   C38   S    
O2    V1    S    
C23   H10   S    
C24   H11   S    
C17   C18   A    
C7    F1    S    
O1    C2    A    
C8    C12   S    
O5    V1    S    
O8    C3    A    
C1    C22   S    
C10   C12   S    
C32   F7    S    
C5    C9    S    
C14   C15   A    
C31   C32   A    
O7    V2    S    
O4    V1    S    
O3    V1    S    
V1    O10   S    
C8    F10   S    
C19   H8    S    
C32   C33   A    
C6    C10   S    
C5    H2    S    
C15   H7    S    
C7    C9    S    
C4    C9    S    
C21   C26   A    
C14   C40   S    
V4    O20   S    
O11   C38   A    
C6    H3    S    
C26   C27   S    
C13   C20   S    
H4    C7    S    
C2    C30   S    
O18   V4    S    
