data_mof_unit_46576.cif
_audit_creation_date              2012-12-11T15:55:47-0500
_audit_creation_method            fapswitch 2.2
_symmetry_space_group_name_H-M    P1
_symmetry_Int_Tables_number       1
_space_group_crystal_system       triclinic
_cell_length_a                    11.067003
_cell_length_b                    11.186287
_cell_length_c                    18.717153
_cell_angle_alpha                 90.373598
_cell_angle_beta                  90.645109
_cell_angle_gamma                 58.509746
_cell_volume                      1975.78267373

loop_
_atom_site_label
_atom_site_type_symbol
_atom_type_description
_atom_site_fract_x
_atom_site_fract_y
_atom_site_fract_z
_atom_type_partial_charge
C1    C     C_R   0.382697 0.717421 0.389476 0.541754
C2    C     C_R   0.587234 0.037166 0.204313 0.069961
C3    C     C_R   0.338977 0.283389 0.177124 0.020017
C4    C     C_R   0.410855 0.192583 0.296063 -0.189947
C5    C     C_R   0.441661 0.170819 0.223068 -0.025168
C6    C     C_R   0.046004 0.640267 0.364669 -0.204810
C7    C     C_R   0.914422 0.721308 0.397487 0.330906
C8    C     C_R   0.625611 0.960891 0.139385 -0.003734
C9    C     C_R   0.765720 0.864401 0.120578 -0.037948
C10   C     C_R   0.233908 0.412914 0.207195 -0.129727
C11   C     C_R   0.213587 0.434961 0.280868 -0.004270
C12   C     C_R   0.375871 0.351170 0.391859 0.517927
C13   C     C_R   0.796167 0.724833 0.368950 0.391113
C14   C     C_R   0.808371 0.656467 0.304596 0.399697
C15   C     C_R   0.940666 0.577654 0.271718 0.321981
C16   C     C_R   0.067045 0.551509 0.306512 -0.114656
C17   C     C_R   0.320005 0.325420 0.325123 -0.019170
C18   C     C_R   0.943696 0.293692 0.193797 0.066451
C19   C     C_R   0.814942 0.310649 0.211835 0.168608
C20   C     C_R   0.777639 0.322526 0.283059 -0.009792
C21   C     C_R   0.995493 0.296241 0.321805 -0.124756
C22   C     C_R   0.040293 0.271480 0.249671 -0.130261
C23   C     C_R   0.787221 0.372735 0.406738 0.527585
C24   C     C_3   0.776170 0.202831 0.200074 0.265338
C25   C     C_3   0.740910 0.214950 0.278244 0.204417
C26   C     C_R   0.857906 0.329063 0.337647 0.074644
C27   C     C_R   0.354344 0.840001 0.174003 0.113509
C28   C     C_R   0.342132 0.726948 0.192262 0.006332
C29   C     C_R   0.348822 0.690810 0.263567 -0.097460
C30   C     C_R   0.361085 0.891256 0.299875 -0.038637
C31   C     C_R   0.352402 0.927803 0.228063 -0.116850
C32   C     C_3   0.440776 0.579686 0.169840 0.318904
C33   C     C_3   0.454047 0.542744 0.247738 -0.206047
C34   C     C_R   0.342002 0.771265 0.603146 0.562184
C35   C     C_R   0.365125 0.768053 0.317269 0.074171
C36   C     C_R   0.311480 0.330329 0.815779 -0.000121
C37   C     C_R   0.446086 0.267117 0.785650 -0.038786
C38   C     C_R   0.458800 0.265781 0.713087 0.071963
C39   C     C_R   0.205602 0.406598 0.697317 -0.186835
C40   C     C_R   0.190972 0.406226 0.771424 -0.175752
C41   C     C_3   0.573647 0.120943 0.792348 -0.208698
C42   C     C_3   0.580457 0.117719 0.711895 0.265962
C43   C     C_R   0.340811 0.331199 0.667764 -0.015732
C44   C     C_R   0.823314 0.323919 0.834664 -0.060127
C45   C     C_R   0.369551 0.349444 0.595216 0.535795
C46   C     C_R   0.735494 0.455558 0.804115 0.057053
C47   C     C_R   0.719452 0.469203 0.731263 -0.143545
C48   C     C_R   0.871255 0.219987 0.715358 0.418612
C49   C     C_R   0.884524 0.204800 0.789655 -0.129013
C50   C     C_3   0.725857 0.594237 0.811196 0.717948
C51   C     C_3   0.710706 0.606938 0.730832 -0.160526
C52   C     C_R   0.792838 0.354060 0.685796 0.033188
C53   C     C_R   0.298173 0.859022 0.823100 0.081263
C54   C     C_R   0.261714 0.768047 0.793534 0.012960
C55   C     C_R   0.266983 0.750498 0.720605 0.020241
C56   C     C_R   0.761926 0.377956 0.610428 0.580542
C57   C     C_R   0.356157 0.904765 0.704936 -0.162388
C58   C     C_R   0.347215 0.926280 0.778324 -0.101542
C59   C     C_3   0.126640 0.769181 0.799446 -0.260379
C60   C     C_3   0.128555 0.757147 0.718918 -0.225786
C61   C     C_R   0.313178 0.818273 0.675777 0.051900
C62   C     C_R   0.977549 0.286120 0.117782 0.556887
C63   C     C_R   0.309380 0.261321 0.102755 0.528244
C64   C     C_R   0.309264 0.897175 0.103878 0.552107
C65   C     C_R   0.882614 0.309594 0.905341 0.584466
C66   C     C_R   0.295861 0.289423 0.886079 0.559642
C67   C     C_R   0.874556 0.833570 0.168032 -0.073203
C68   C     C_R   0.273067 0.899687 0.896922 0.586143
C69   C     C_R   0.840891 0.888878 0.236265 -0.101984
C70   C     C_R   0.699312 0.981996 0.255357 -0.038844
Cr1   Cr    Cr6+3 0.601740 0.606840 0.505840 1.106495
Cr2   Cr    Cr6+3 0.291500 0.601560 0.495070 1.074570
Cr3   Cr    Cr6+3 0.606780 0.291630 0.499130 1.181817
Cr4   Cr    Cr6+3 0.062440 0.063060 0.008240 1.029672
Cr5   Cr    Cr6+3 0.062950 0.375000 0.998920 1.110760
Cr6   Cr    Cr6+3 0.374550 0.061770 0.992470 1.044434
H1    H     H_    0.066085 0.291145 0.363792 0.112965
H2    H     H_    0.146312 0.242265 0.237276 0.105458
H3    H     H_    0.866603 0.099073 0.183508 0.148701
H4    H     H_    0.628571 0.255250 0.290781 0.145219
H5    H     H_    0.363094 0.958426 0.341152 0.148226
H6    H     H_    0.336125 0.027269 0.213901 0.073011
H7    H     H_    0.388943 0.536226 0.136468 0.142804
H8    H     H_    0.420323 0.469793 0.261516 0.094986
H9    H     H_    0.552679 0.521898 0.272628 0.184428
H10   H     H_    0.085839 0.455893 0.793193 0.210303
H11   H     H_    0.664542 0.120506 0.818584 0.174537
H12   H     H_    0.802861 0.601355 0.704132 0.139489
H13   H     H_    0.395805 0.954941 0.671308 0.111792
H14   H     H_    0.983723 0.761210 0.153518 0.124398
H15   H     H_    0.042865 0.852669 0.692092 0.251525
H16   H     H_    0.925297 0.860181 0.274572 0.167284
H17   H     H_    0.682843 0.017357 0.309918 0.197653
O1    O     O_R   0.748670 0.497520 0.427970 -0.505760
O2    O     O_R   0.300170 0.471020 0.567120 -0.504695
O3    O     O_R   0.491630 0.259030 0.574940 -0.459350
O4    O     O_R   0.718640 0.304340 0.577850 -0.408519
O5    O     O_3   0.500010 0.500010 0.500020 -0.320939
O6    O     O_R   0.186620 0.923750 0.087000 -0.540315
O7    O     O_R   0.957350 0.194160 0.084660 -0.500044
O8    O     O_R   0.935120 0.407280 0.085350 -0.381516
O9    O     O_R   0.203800 0.365060 0.067090 -0.508996
O10   O     O_R   0.417470 0.174910 0.067830 -0.507644
O11   O     O_R   0.375160 0.946380 0.070880 -0.536497
O12   O     O_R   0.476470 0.723930 0.429450 -0.418509
O13   O     O_R   0.160500 0.919670 0.926690 -0.533418
O14   O     O_R   0.933140 0.190380 0.936050 -0.508278
O15   O     O_R   0.909010 0.403210 0.925030 -0.419538
O16   O     O_R   0.179590 0.361290 0.918480 -0.485374
O17   O     O_R   0.391360 0.170840 0.907510 -0.525520
O18   O     O_R   0.350950 0.942600 0.922260 -0.462550
O19   O     O_3   0.166650 0.166610 0.999880 -0.332637
O20   O     O_R   0.264730 0.744140 0.416740 -0.514145
O21   O     O_R   0.309440 0.472410 0.418220 -0.542985
O22   O     O_R   0.501630 0.260530 0.414310 -0.494205
O23   O     O_R   0.727920 0.305730 0.428950 -0.451820
O24   O     O_R   0.738670 0.496020 0.588600 -0.541402
O25   O     O_R   0.467190 0.722540 0.578350 -0.504691
O26   O     O_R   0.254720 0.742640 0.577370 -0.476872
H18   H     H_    0.469504 0.107422 0.333254 0.164581
F1    F     F_    0.667403 0.807579 0.398973 -0.582001
F2    F     F_    0.690746 0.673965 0.271296 -0.573781
F3    F     F_    0.941103 0.537848 0.203558 -0.617062
F4    F     F_    0.657948 0.253291 0.156242 -0.620340
F5    F     F_    0.838883 0.099918 0.318095 -0.661160
H19   H     H_    0.789274 0.812222 0.069192 0.134156
F6    F     F_    0.565396 0.559604 0.141759 -0.541653
H20   H     H_    0.112550 0.464091 0.663488 0.142532
H21   H     H_    0.553072 0.040757 0.813030 0.140763
F7    F     F_    0.702473 0.106170 0.686619 -0.571160
F8    F     F_    0.900433 0.803570 0.454201 -0.561823
H22   H     H_    0.554639 0.043780 0.686234 0.115721
F9    F     F_    0.943572 0.106165 0.672616 -0.602025
H23   H     H_    0.955778 0.101595 0.811204 0.143056
F10   F     F_    0.846855 0.589739 0.834680 -0.627818
F11   F     F_    0.606259 0.692137 0.847297 -0.612840
H24   H     H_    0.606709 0.692438 0.711988 0.145455
H25   H     H_    0.372806 0.000403 0.799638 0.137361
H26   H     H_    0.036162 0.869281 0.819464 0.166931
H27   H     H_    0.142750 0.674186 0.827034 0.166858
H28   H     H_    0.139430 0.659297 0.699159 0.158745
H29   H     H_    0.124065 0.663072 0.379278 0.232246
H30   H     H_    0.553149 0.963683 0.103004 0.185691
H31   H     H_    0.161167 0.497432 0.172384 0.189342

loop_
_geom_bond_atom_site_label_1
_geom_bond_atom_site_label_2
_ccdc_geom_bond_type
C44   C49   A    
Cr6   O11   S    
C7    C13   A    
C49   H23   S    
C34   O25   A    
C14   F2    S    
C29   C33   S    
C25   H4    S    
C41   C42   S    
C19   C20   A    
C21   C26   A    
Cr1   O1    S    
Cr2   O5    S    
C53   C54   A    
Cr3   O4    S    
Cr5   O19   S    
C31   H6    S    
C57   H13   S    
C30   C35   A    
C32   F6    S    
C21   C22   A    
C28   C29   A    
C38   C42   S    
C50   F10   S    
Cr4   O19   S    
C30   C31   A    
C36   C66   S    
C20   C25   S    
C15   C16   A    
Cr2   O21   S    
C24   F4    S    
C18   C19   A    
C56   O24   A    
C23   C26   S    
C40   H10   S    
C53   C68   S    
C25   F5    S    
C36   C40   A    
C33   H9    S    
C23   O23   A    
C54   C55   A    
Cr2   O2    S    
C64   O6    A    
C11   C17   A    
C8    C9    A    
C12   C17   S    
Cr5   O9    S    
C59   H26   S    
C6    H29   S    
C69   H16   S    
C65   O15   A    
C7    F8    S    
C62   O8    A    
C58   H25   S    
Cr6   O10   S    
Cr4   O14   S    
C59   C60   S    
C55   C60   S    
C44   C65   S    
C68   O13   A    
C56   O4    A    
C63   O9    A    
C44   C46   A    
C12   O21   A    
C54   C59   S    
C39   C43   A    
Cr3   O5    S    
C41   H11   S    
Cr1   O5    S    
Cr5   O16   S    
Cr1   O24   S    
C27   C31   A    
C48   F9    S    
C28   C32   S    
C70   H17   S    
C24   C25   S    
C22   H2    S    
C63   O10   A    
C10   C11   A    
C39   C40   A    
C18   C62   S    
C47   C51   S    
Cr2   O20   S    
C67   H14   S    
C67   C69   A    
C68   O18   A    
C47   C52   A    
C9    C67   A    
C37   C38   A    
C60   H28   S    
Cr4   O13   S    
C13   F1    S    
C11   C16   S    
C24   H3    S    
C48   C52   A    
Cr6   O19   S    
C50   C51   S    
C42   F7    S    
C10   H31   S    
C66   O17   A    
C43   C45   S    
C6    C7    A    
C15   F3    S    
C62   O7    A    
C4    C17   A    
C51   H24   S    
C48   C49   A    
Cr1   O12   S    
C2    C5    S    
C45   O2    A    
C1    C35   S    
C60   H15   S    
C34   O26   A    
C64   O11   A    
C32   H7    S    
C46   C50   S    
C46   C47   A    
C36   C37   A    
C39   H20   S    
Cr1   O25   S    
C18   C22   A    
C2    C8    A    
C4    C5    A    
C3    C5    A    
C51   H12   S    
Cr4   O7    S    
C53   C58   A    
C57   C61   A    
Cr4   O6    S    
C3    C63   S    
C29   C35   A    
C9    H19   S    
Cr3   O22   S    
C23   O1    A    
C32   C33   S    
C12   O22   A    
C30   H5    S    
C19   C24   S    
C38   C43   A    
C3    C10   A    
C2    C70   A    
C41   H21   S    
C50   F11   S    
C57   C58   A    
C20   C26   A    
C59   H27   S    
Cr6   O18   S    
C55   C61   A    
Cr2   O26   S    
C8    H30   S    
C1    O20   A    
C66   O16   A    
C37   C41   S    
C69   C70   A    
C33   H8    S    
C27   C64   S    
C6    C16   A    
Cr3   O23   S    
Cr5   O15   S    
Cr6   O17   S    
C34   C61   S    
C21   H1    S    
C27   C28   A    
Cr5   O8    S    
C14   C15   A    
C4    H18   S    
C42   H22   S    
Cr3   O3    S    
C13   C14   A    
C45   O3    A    
C65   O14   A    
C52   C56   S    
C1    O12   A    
