data_mof_unit_39477.cif
_audit_creation_date              2012-12-11T14:36:07-0500
_audit_creation_method            fapswitch 2.2
_symmetry_space_group_name_H-M    P1
_symmetry_Int_Tables_number       1
_space_group_crystal_system       monoclinic
_cell_length_a                    14.496667
_cell_length_b                    16.083688
_cell_length_c                    6.96506
_cell_angle_alpha                 90.0
_cell_angle_beta                  81.060852
_cell_angle_gamma                 90.0
_cell_volume                      1604.24759022

loop_
_atom_site_label
_atom_site_type_symbol
_atom_type_description
_atom_site_fract_x
_atom_site_fract_y
_atom_site_fract_z
_atom_type_partial_charge
O1    O     O_R   0.337460 0.413110 0.524760 -0.548236
O2    O     O_R   0.662540 0.913110 0.475240 -0.548236
O3    O     O_R   0.348690 0.587910 0.191230 -0.532202
O4    O     O_R   0.651310 0.087910 0.808770 -0.532202
O5    O     O_R   0.166530 0.586890 0.082470 -0.515837
O6    O     O_R   0.833470 0.086890 0.917530 -0.515837
C1    C     C_R   0.370657 0.616324 0.353487 0.794468
C2    C     C_R   0.629343 0.116324 0.646513 0.794468
O7    O     O_R   0.348700 0.413830 0.191250 -0.543531
O8    O     O_R   0.651300 0.913830 0.808750 -0.543531
O9    O     O_R   0.166530 0.411570 0.082490 -0.547865
O10   O     O_R   0.833470 0.911570 0.917510 -0.547865
C3    C     C_R   0.370699 0.385200 0.353187 0.690774
C4    C     C_R   0.629301 0.885200 0.646813 0.690774
O11   O     O_R   0.337460 0.588430 0.524740 -0.541083
O12   O     O_R   0.662540 0.088430 0.475260 -0.541083
O13   O     O_3   0.192230 0.499460 0.407330 -0.381159
O14   O     O_3   0.807770 0.999460 0.592670 -0.381159
V1    V     V_3+5 0.263080 0.500100 0.108540 1.409641
V2    V     V_3+5 0.736920 0.000100 0.891460 1.409641
O15   O     O_R   0.155290 0.412090 0.756570 -0.546799
O16   O     O_R   0.844710 0.912090 0.243430 -0.546799
C5    C     C_R   0.134517 0.381737 0.930276 0.658592
C6    C     C_R   0.865482 0.881737 0.069724 0.658592
O17   O     O_R   0.155290 0.586170 0.756550 -0.550894
O18   O     O_R   0.844710 0.086170 0.243450 -0.550894
C7    C     C_R   0.131445 0.614264 0.934245 0.691422
C8    C     C_R   0.868555 0.114264 0.065755 0.691422
V3    V     V_3+5 0.240910 0.499900 0.616030 1.375804
V4    V     V_3+5 0.759090 0.999900 0.383970 1.375804
O19   O     O_3   0.311760 0.500540 0.867100 -0.367858
O20   O     O_3   0.688240 0.000540 0.132900 -0.367858
C9    C     C_3   0.047920 0.712580 0.198050 0.421740
C10   C     C_3   0.952080 0.212580 0.801950 0.421740
C11   C     C_3   0.976047 0.787236 0.235830 0.032719
C12   C     C_3   0.023953 0.287236 0.764170 0.032719
H1    H     H_    0.017011 0.843516 0.262926 0.054257
H2    H     H_    0.982989 0.343516 0.737074 0.054257
H3    H     H_    0.933931 0.602671 0.015377 0.130980
H4    H     H_    0.066069 0.102671 0.984623 0.130980
H5    H     H_    0.827507 0.709381 0.063621 0.136780
H6    H     H_    0.172493 0.209381 0.936379 0.136780
C13   C     C_3   0.961787 0.657698 0.929415 -0.387884
C14   C     C_3   0.038212 0.157698 0.070585 -0.387884
C15   C     C_3   0.089263 0.760311 0.843357 -0.378984
C16   C     C_3   0.910737 0.260311 0.156643 -0.378984
C17   C     C_3   0.059209 0.684432 0.976393 0.069984
C18   C     C_3   0.940791 0.184432 0.023607 0.069984
H7    H     H_    0.089639 0.740997 0.691313 0.150699
H8    H     H_    0.910360 0.240997 0.308687 0.150698
H9    H     H_    0.161844 0.780311 0.851384 0.143044
H10   H     H_    0.838156 0.280311 0.148616 0.143044
C19   C     C_3   0.934951 0.809376 0.044089 0.069392
C20   C     C_3   0.065048 0.309376 0.955911 0.069392
C21   C     C_3   0.890576 0.730429 0.966866 -0.312810
C22   C     C_3   0.109424 0.230429 0.033134 -0.312810
C23   C     C_3   0.020171 0.833989 0.889233 -0.409210
C24   C     C_3   0.979829 0.333989 0.110767 -0.409210
H11   H     H_    0.057443 0.887844 0.941864 0.127526
H12   H     H_    0.942556 0.387844 0.058136 0.127526
H13   H     H_    0.996531 0.854744 0.752709 0.153729
H14   H     H_    0.003469 0.354744 0.247291 0.153729
H15   H     H_    0.968169 0.638196 0.774783 0.156927
H16   H     H_    0.031831 0.138195 0.225217 0.156927
H17   H     H_    0.864370 0.746291 0.831242 0.143279
H18   H     H_    0.135630 0.246291 0.168757 0.143279
H19   H     H_    0.563127 0.808670 0.355453 0.117189
H20   H     H_    0.436873 0.308670 0.644547 0.117189
H21   H     H_    0.434658 0.691963 0.646583 0.196137
H22   H     H_    0.565342 0.191963 0.353417 0.196137
C25   C     C_2   0.439673 0.684150 0.343301 -0.378675
C26   C     C_2   0.560327 0.184150 0.656699 -0.378675
C27   C     C_2   0.465155 0.716266 0.505433 -0.105596
C28   C     C_2   0.534845 0.216266 0.494567 -0.105596
C29   C     C_2   0.560230 0.816744 0.659825 0.025564
C30   C     C_2   0.439769 0.316744 0.340175 0.025564
C31   C     C_2   0.533809 0.784480 0.497642 -0.118695
C32   C     C_2   0.466191 0.284480 0.502358 -0.118695
H23   H     H_    0.469760 0.708155 0.201881 0.154647
H24   H     H_    0.530240 0.208155 0.798119 0.154646
N1    N     N_3   0.014403 0.642002 0.328643 -0.674065
H25   H     H_    0.010183 0.585220 0.258280 0.211470
H26   H     H_    0.057369 0.632470 0.434118 0.247569
N2    N     N_3   0.985597 0.142002 0.671357 -0.674065
H27   H     H_    0.989817 0.085220 0.741720 0.211470
H28   H     H_    0.942631 0.132470 0.565882 0.247569
N3    N     N_3   0.522267 0.784067 0.847355 -0.684695
H29   H     H_    0.577873 0.762994 0.913618 0.220875
H30   H     H_    0.489664 0.832753 0.931362 0.230513
N4    N     N_3   0.477732 0.284067 0.152645 -0.684695
H31   H     H_    0.422127 0.262994 0.086382 0.220875
H32   H     H_    0.510336 0.332753 0.068638 0.230513
N5    N     N_3   0.139894 0.740171 0.241858 -0.672566
H33   H     H_    0.133194 0.758983 0.386275 0.199074
H34   H     H_    0.163137 0.793121 0.162159 0.201726
N6    N     N_3   0.860106 0.240171 0.758142 -0.672566
H35   H     H_    0.866806 0.258983 0.613725 0.199074
H36   H     H_    0.836863 0.293121 0.837841 0.201726
C33   C     C_3   0.908088 0.779337 0.433970 -0.304939
C34   C     C_3   0.818294 0.729490 0.432850 -0.712043
H37   H     H_    0.770113 0.762966 0.350774 0.206780
H38   H     H_    0.833612 0.666237 0.373039 0.238799
H39   H     H_    0.780945 0.722481 0.583410 0.187470
H40   H     H_    0.947337 0.751115 0.541012 0.178398
H41   H     H_    0.889539 0.841008 0.499731 0.187656
C35   C     C_3   0.091912 0.279337 0.566030 -0.304939
C36   C     C_3   0.181706 0.229490 0.567150 -0.712042
H42   H     H_    0.229887 0.262966 0.649226 0.206780
H43   H     H_    0.166388 0.166237 0.626961 0.238799
H44   H     H_    0.219055 0.222481 0.416590 0.187470
H45   H     H_    0.052663 0.251115 0.458988 0.178398
H46   H     H_    0.110461 0.341008 0.500269 0.187656

loop_
_geom_bond_atom_site_label_1
_geom_bond_atom_site_label_2
_ccdc_geom_bond_type
C24   H14   S    
N3    H29   S    
N5    H33   S    
C11   C19   S    
O13   V3    S    
H19   C31   S    
O4    C2    A    
V1    O19   S    
C25   H23   S    
N1    H25   S    
C13   H15   S    
C35   H46   S    
C14   H16   S    
O9    V1    S    
C11   H1    S    
C30   C32   D    
O3    C1    A    
C1    C25   S    
C9    C11   S    
C23   H11   S    
C35   C36   S    
C15   H9    S    
O12   V4    S    
C16   H10   S    
C15   C17   S    
O7    C3    A    
H5    C21   S    
H6    C22   S    
O5    C7    A    
O7    V1    S    
O6    C8    A    
O8    V2    S    
N6    H36   S    
H22   C28   S    
C36   H42   S    
O3    V1    S    
O14   V4    S    
C10   C12   S    
C1    O11   A    
C33   H40   S    
C2    O12   A    
C16   C24   S    
O17   V3    S    
C36   H43   S    
C10   N2    S    
C11   C33   S    
C34   H38   S    
N1    H26   S    
O11   V3    S    
C16   C18   S    
C35   H45   S    
C19   C21   S    
H20   C32   S    
C33   H41   S    
C20   C22   S    
C2    C26   S    
C12   C35   S    
N2    H27   S    
C26   C28   D    
O8    C4    A    
C25   C27   D    
C19   C23   S    
H3    C13   S    
C6    C19   S    
O15   V3    S    
C34   H39   S    
C26   H24   S    
C14   C22   S    
N4    H32   S    
C33   C34   S    
C3    C30   S    
C15   H7    S    
C15   C23   S    
N6    H35   S    
O10   V2    S    
O1    V3    S    
H21   C27   S    
C29   C31   D    
C29   N3    S    
C9    N1    S    
O18   V4    S    
O15   C5    A    
C9    C17   S    
C36   H44   S    
O16   C6    A    
C10   C18   S    
C5    C20   S    
V2    O20   S    
C13   C21   S    
C16   H8    S    
C8    C18   S    
O16   V4    S    
C21   H17   S    
C10   N6    S    
C9    N5    S    
C23   H13   S    
O5    V1    S    
O17   C7    A    
O6    V2    S    
O10   C6    A    
O18   C8    A    
C7    C17   S    
O2    V4    S    
C4    C29   S    
C12   H2    S    
V3    O19   S    
V4    O20   S    
N4    H31   S    
C13   C17   S    
C22   H18   S    
O9    C5    A    
C34   H37   S    
O13   V1    S    
O14   V2    S    
O2    C4    A    
C12   C20   S    
O4    V2    S    
H4    C14   S    
O1    C3    A    
N5    H34   S    
C28   C32   S    
C20   C24   S    
N3    H30   S    
C27   C31   S    
N2    H28   S    
C24   H12   S    
C14   C18   S    
C30   N4    S    
