data_mof_unit_31003.cif
_audit_creation_date              2012-12-10T17:18:19-0500
_audit_creation_method            fapswitch 2.2
_symmetry_space_group_name_H-M    P1
_symmetry_Int_Tables_number       1
_space_group_crystal_system       triclinic
_cell_length_a                    10.160619
_cell_length_b                    10.434911
_cell_length_c                    15.012916
_cell_angle_alpha                 90.25077
_cell_angle_beta                  80.772548
_cell_angle_gamma                 93.702086
_cell_volume                      1567.84139078

loop_
_atom_site_label
_atom_site_type_symbol
_atom_type_description
_atom_site_fract_x
_atom_site_fract_y
_atom_site_fract_z
_atom_type_partial_charge
C1    C     C_R   0.553828 0.734979 0.498545 0.940621
C2    C     C_2   0.073466 0.489360 0.493371 -0.000125
C3    C     C_R   0.498674 0.495979 0.673327 0.928045
C4    C     C_R   0.501330 0.504106 0.326664 0.869305
C5    C     C_R   0.389366 0.463164 0.198351 -0.277768
C6    C     C_R   0.610384 0.538581 0.801552 -0.233602
C7    C     C_R   0.503836 0.510583 0.230657 -0.103318
C8    C     C_R   0.496189 0.490278 0.769300 -0.075718
C9    C     C_R   0.618942 0.558918 0.171740 -0.065628
C10   C     C_R   0.381194 0.441963 0.828259 -0.054646
C11   C     C_R   0.617527 0.555351 0.078396 0.068679
C12   C     C_R   0.446359 0.265126 0.511014 0.958924
C13   C     C_R   0.382282 0.446485 0.921572 0.075747
C14   C     C_R   0.501226 0.504030 0.046356 0.061952
C15   C     C_R   0.498460 0.498135 0.953594 0.059316
C16   C     C_R   0.387386 0.458592 0.106895 0.121139
C17   C     C_R   0.612267 0.543586 0.893028 0.116740
C18   C     C_R   0.728781 0.602128 0.016227 -0.213165
C19   C     C_R   0.270806 0.400222 0.983718 -0.206509
C20   C     C_R   0.738388 0.614188 0.207847 0.120233
C21   C     C_R   0.854906 0.546493 0.199612 -0.089984
C22   C     C_R   0.965172 0.596136 0.236708 -0.102430
C23   C     C_R   0.726251 0.595365 0.924417 -0.197756
C24   C     C_R   0.959544 0.712972 0.282629 -0.104243
C25   C     C_R   0.843971 0.780817 0.291031 -0.106716
C26   C     C_R   0.733593 0.731767 0.253792 -0.147411
C27   C     C_R   0.262548 0.384665 0.792295 0.090997
C28   C     C_R   0.267246 0.264093 0.750468 -0.139290
C29   C     C_R   0.157415 0.212282 0.713852 -0.098439
C30   C     C_R   0.042313 0.280315 0.718987 -0.099077
C31   C     C_R   0.036637 0.400045 0.761087 -0.105528
C32   C     C_R   0.146466 0.452439 0.797474 -0.072371
C33   C     C_R   0.273286 0.407097 0.075508 -0.211776
C34   C     C_2   0.578728 0.871400 0.512597 -0.440587
C35   C     C_2   0.422411 0.129168 0.532315 -0.482539
C36   C     C_2   0.501184 0.931513 0.578886 0.392711
C37   C     C_2   0.505279 0.070160 0.578143 0.353307
C38   C     C_2   0.926718 0.511215 0.506150 0.031994
Cl1   Cl    Cl    0.625205 0.151769 0.635031 -0.591991
Cl2   Cl    Cl    0.392122 0.850788 0.667512 -0.537912
Cl3   Cl    Cl    0.104127 0.669608 0.613330 -0.517988
Cl4   Cl    Cl    0.894633 0.327864 0.388462 -0.565056
H1    H     H_    0.302312 0.426003 0.244813 0.167294
H2    H     H_    0.886964 0.582825 0.553685 0.159388
H3    H     H_    0.859668 0.455076 0.165159 0.140831
H4    H     H_    0.054585 0.543551 0.230526 0.140664
H5    H     H_    0.044637 0.750781 0.311856 0.143081
H6    H     H_    0.839702 0.871141 0.326775 0.147942
H7    H     H_    0.644077 0.784469 0.261464 0.117635
H8    H     H_    0.356042 0.210868 0.745908 0.178809
H9    H     H_    0.161715 0.119558 0.681258 0.179237
H10   H     H_    0.957550 0.240310 0.690336 0.182909
H11   H     H_    0.947501 0.452660 0.764924 0.149712
H12   H     H_    0.697343 0.575803 0.755031 0.166927
H13   H     H_    0.141686 0.545927 0.829042 0.157478
H14   H     H_    0.818600 0.644262 0.037579 0.162039
H15   H     H_    0.180875 0.358368 0.962344 0.161113
H16   H     H_    0.813524 0.631248 0.877845 0.159409
H17   H     H_    0.185964 0.371291 0.122060 0.154126
H18   H     H_    0.342824 0.074770 0.505492 0.154480
H19   H     H_    0.653484 0.925150 0.464730 0.143766
H20   H     H_    0.113378 0.418607 0.445186 0.162710
N1    N     N_2   0.842700 0.448880 0.462930 0.060163
N2    N     N_2   0.157300 0.551120 0.537070 0.051834
O1    O     O_R   0.431060 0.692470 0.507460 -0.537114
O2    O     O_R   0.568940 0.307530 0.492540 -0.521386
O3    O     O_R   0.651120 0.659650 0.483670 -0.623810
O4    O     O_R   0.348880 0.340350 0.516330 -0.628410
O5    O     O_R   0.389960 0.516440 0.644050 -0.557374
O6    O     O_R   0.610040 0.483560 0.355950 -0.575121
O7    O     O_R   0.610030 0.483620 0.620260 -0.619878
O8    O     O_R   0.389970 0.516380 0.379740 -0.644971
Zn1   Zn    Zn3+2 0.353060 0.521920 0.515880 1.052910
Zn2   Zn    Zn3+2 0.646940 0.478080 0.484120 1.065463

loop_
_geom_bond_atom_site_label_1
_geom_bond_atom_site_label_2
_ccdc_geom_bond_type
C10   C27   S    
O6    Zn2   S    
O7    Zn2   S    
C3    O7    A    
N2    Zn1   S    
C5    C7    A    
C11   C18   A    
C38   H2    S    
C29   C30   A    
N1    Zn2   S    
C16   C33   A    
C23   H16   S    
C9    C11   A    
C2    C38   S    
C32   H13   S    
C21   H3    S    
C31   C32   A    
C18   H14   S    
C3    O5    A    
C4    O6    A    
O4    Zn1   S    
C24   C25   A    
C33   H17   S    
O3    Zn2   S    
C21   C22   A    
C31   H11   S    
C12   C35   S    
O5    Zn1   S    
C12   O4    A    
C25   H6    S    
C35   H18   S    
C17   C23   A    
Cl4   N1    S    
C20   C26   A    
C6    H12   S    
C4    C7    S    
C27   C32   A    
C28   H8    S    
C22   C24   A    
C8    C10   A    
C28   C29   A    
C1    O3    A    
C2    N2    D    
C1    C34   S    
C3    C8    S    
C34   C36   D    
C13   C15   A    
C5    H1    S    
C30   C31   A    
C11   C14   A    
C14   C16   A    
C13   C19   A    
C18   C23   A    
O2    Zn2   S    
C7    C9    A    
C4    O8    A    
O1    Zn1   S    
C20   C21   A    
C35   C37   D    
C37   Cl1   S    
C38   N1    D    
C29   H9    S    
C26   H7    S    
C27   C28   A    
C15   C17   A    
C6    C17   A    
C30   H10   S    
C14   C15   A    
C36   C37   S    
C36   Cl2   S    
C6    C8    A    
C9    C20   S    
Cl3   N2    S    
C22   H4    S    
C25   C26   A    
C24   H5    S    
C12   O2    A    
C1    O1    A    
C34   H19   S    
C19   H15   S    
C2    H20   S    
C19   C33   A    
O8    Zn1   S    
C5    C16   A    
C10   C13   A    
