data_mof_unit_18339.cif
_audit_creation_date              2012-12-10T17:12:41-0500
_audit_creation_method            fapswitch 2.2
_symmetry_space_group_name_H-M    P1
_symmetry_Int_Tables_number       1
_space_group_crystal_system       triclinic
_cell_length_a                    23.416279
_cell_length_b                    10.652983
_cell_length_c                    10.011458
_cell_angle_alpha                 89.65844
_cell_angle_beta                  89.576412
_cell_angle_gamma                 90.228439
_cell_volume                      2497.25754099

loop_
_atom_site_label
_atom_site_type_symbol
_atom_type_description
_atom_site_fract_x
_atom_site_fract_y
_atom_site_fract_z
_atom_type_partial_charge
C1    C     C_R   0.495209 0.262425 0.499744 0.939988
C2    C     C_R   0.968722 0.288670 0.531850 -0.160187
C3    C     C_R   0.028126 0.287641 0.534171 -0.159572
C4    C     C_R   0.059069 0.399981 0.518885 -0.015285
C5    C     C_R   0.029943 0.514352 0.501336 -0.022379
C6    C     C_R   0.060650 0.627583 0.485676 -0.015719
C7    C     C_R   0.031212 0.741046 0.468627 -0.158755
C8    C     C_R   0.971759 0.742155 0.466851 -0.162187
C9    C     C_R   0.118674 0.401205 0.520022 0.503289
C10   C     C_R   0.120263 0.623911 0.487334 0.503552
C11   C     C_R   0.237617 0.497867 0.623774 -0.100200
C12   C     C_R   0.389299 0.500290 0.500466 0.869539
C13   C     C_R   0.296871 0.494384 0.623004 -0.209586
C14   C     C_R   0.327020 0.502773 0.501469 -0.041226
C15   C     C_R   0.297178 0.514859 0.380951 -0.216463
C16   C     C_R   0.237944 0.518708 0.382169 -0.102698
C17   C     C_R   0.208317 0.510143 0.503454 0.323654
C18   C     C_R   0.761900 0.508337 0.370774 0.146849
C19   C     C_R   0.702378 0.502486 0.374851 -0.248430
C20   C     C_R   0.672907 0.506374 0.497303 -0.065443
C21   C     C_R   0.703174 0.517054 0.616871 -0.220035
C22   C     C_R   0.762292 0.522484 0.614032 -0.130264
C23   C     C_R   0.500254 0.737661 0.499553 0.945916
C24   C     C_R   0.791659 0.517459 0.492225 0.309326
C25   C     C_2   0.465029 0.927440 0.409330 -0.146770
C26   C     C_2   0.499338 0.870357 0.496416 -0.381106
C27   C     C_2   0.467722 0.063285 0.391322 0.202862
C28   C     C_2   0.481354 0.131073 0.500662 -0.417904
C29   C     C_2   0.539196 0.553337 0.924089 -0.144939
C30   C     C_2   0.531619 0.576030 0.072307 0.106062
C31   C     C_R   0.610678 0.501142 0.499400 0.882970
C32   C     C_R   0.881158 0.628327 0.480173 0.498102
C33   C     C_R   0.879789 0.405416 0.511382 0.490085
C34   C     C_R   0.939323 0.402069 0.514358 -0.014753
C35   C     C_R   0.969974 0.515425 0.499208 -0.023525
C36   C     C_R   0.940797 0.629800 0.481901 -0.013684
H1    H     H_    0.945980 0.200509 0.543686 0.193176
H2    H     H_    0.679204 0.493867 0.282019 0.161984
H3    H     H_    0.681294 0.520954 0.712457 0.159049
H4    H     H_    0.785606 0.529486 0.706697 0.137539
H5    H     H_    0.437290 0.871820 0.346178 0.175117
H6    H     H_    0.528776 0.919371 0.561283 0.146756
H7    H     H_    0.481048 0.088035 0.599353 0.153360
H8    H     H_    0.576667 0.589578 0.872719 0.161132
H9    H     H_    0.462968 0.476837 0.899389 0.161969
H10   H     H_    0.049658 0.198709 0.547700 0.193291
H11   H     H_    0.484827 0.421664 0.103436 0.147926
H12   H     H_    0.053964 0.829163 0.456548 0.193810
H13   H     H_    0.950205 0.831080 0.453475 0.192054
H14   H     H_    0.214380 0.491024 0.717480 0.138264
H15   H     H_    0.318945 0.484909 0.717184 0.161670
H16   H     H_    0.319484 0.521773 0.286024 0.163038
H17   H     H_    0.214957 0.527791 0.289165 0.138082
N1    N     N_R   0.852350 0.517220 0.494124 -0.362507
N2    N     N_R   0.147645 0.511934 0.504116 -0.361224
N3    N     N_2   0.500610 0.501330 0.852150 -0.203731
N4    N     N_2   0.500630 0.501360 0.147810 -0.219141
O1    O     O_R   0.499990 0.319060 0.613040 -0.601663
O2    O     O_2   0.849352 0.298173 0.525195 -0.551337
O3    O     O_2   0.147630 0.292879 0.535906 -0.547253
O4    O     O_2   0.150765 0.730953 0.472678 -0.546998
O5    O     O_R   0.500010 0.319100 0.386900 -0.626150
O6    O     O_R   0.416150 0.499940 0.613100 -0.619318
O7    O     O_R   0.416160 0.499980 0.386960 -0.622805
O8    O     O_R   0.499990 0.680900 0.613100 -0.602137
O9    O     O_R   0.500010 0.680940 0.386960 -0.633194
O10   O     O_R   0.583840 0.500020 0.613040 -0.616668
O11   O     O_R   0.583850 0.500060 0.386900 -0.634418
O12   O     O_2   0.852044 0.736468 0.464777 -0.565196
Zn1   Zn    Zn3+2 0.499990 0.499970 0.650990 0.947334
Zn2   Zn    Zn3+2 0.500010 0.500030 0.349010 0.914224
C37   C     C_3   0.458051 0.121079 0.252990 -0.338076
C38   C     C_3   0.436367 0.030759 0.146271 -0.924195
H18   H     H_    0.467576 0.954174 0.129239 0.261253
H19   H     H_    0.394217 0.990896 0.175936 0.269362
H20   H     H_    0.431016 0.082606 0.050639 0.258411
H21   H     H_    0.426094 0.197567 0.261809 0.220033
H22   H     H_    0.499039 0.160907 0.215074 0.222001
C39   C     C_3   0.559382 0.690915 0.134169 -0.318630
C40   C     C_3   0.599749 0.766983 0.042618 -0.461270
C41   C     C_3   0.624065 0.880452 0.115703 -0.841918
H23   H     H_    0.589041 0.943283 0.149057 0.265885
H24   H     H_    0.648956 0.849487 0.203944 0.262377
H25   H     H_    0.652862 0.934025 0.047446 0.259252
H26   H     H_    0.635948 0.707084 0.009801 0.223622
H27   H     H_    0.576222 0.801205 0.953555 0.239423
H28   H     H_    0.524615 0.754692 0.166245 0.218888
H29   H     H_    0.584338 0.661761 0.222134 0.240496
C42   C     C_3   0.792185 0.501618 0.236921 -0.418681
C43   C     C_3   0.782702 0.621810 0.154948 -0.337820
C44   C     C_3   0.812617 0.614610 0.019299 -0.860386
H30   H     H_    0.859427 0.604140 0.032423 0.270614
H31   H     H_    0.795999 0.533647 0.961764 0.255553
H32   H     H_    0.804527 0.702033 0.961646 0.257997
H33   H     H_    0.736307 0.636507 0.138413 0.216883
H34   H     H_    0.799692 0.703892 0.210250 0.264433
H35   H     H_    0.838783 0.487049 0.248974 0.209580
H36   H     H_    0.775601 0.419212 0.181393 0.207793

loop_
_geom_bond_atom_site_label_1
_geom_bond_atom_site_label_2
_ccdc_geom_bond_type
C38   H18   S    
C19   C20   A    
C1    O5    A    
C39   H28   S    
C41   H23   S    
C7    C8    A    
C31   O10   A    
C29   C30   S    
C18   C24   A    
C32   C36   A    
C23   O9    A    
C18   C19   A    
C5    C6    A    
C40   C41   S    
C23   C26   S    
C44   H31   S    
C24   N1    S    
O8    Zn1   S    
C30   N4    D    
C34   C35   A    
C8    C36   A    
O7    Zn2   S    
C16   H17   S    
C37   H22   S    
C37   H21   S    
C13   H15   S    
C35   C36   A    
H9    N3    S    
C16   C17   A    
C1    C28   S    
C40   H27   S    
C9    N2    A    
C17   N2    S    
C2    C34   A    
C33   O2    S    
C21   C22   A    
C38   H19   S    
C32   N1    A    
C39   H29   S    
C41   H24   S    
C31   O11   A    
C43   H33   S    
C25   H5    S    
C44   H30   S    
C12   O6    A    
O1    Zn1   S    
C25   C26   D    
C42   H35   S    
C40   H26   S    
C19   H2    S    
H11   N4    S    
O9    Zn2   S    
C21   H3    S    
O6    Zn1   S    
C22   H4    S    
C33   C34   A    
C15   H16   S    
N4    Zn2   S    
C10   N2    A    
C32   O12   S    
C30   C39   S    
C12   C14   S    
N3    Zn1   S    
C29   H8    S    
C38   H20   S    
C22   C24   A    
C10   O4    S    
C3    C4    A    
C41   H25   S    
C26   H6    S    
C33   N1    A    
C11   C17   A    
C3    H10   S    
C18   C42   S    
C37   C38   S    
C6    C10   A    
C43   H34   S    
C6    C7    A    
C29   N3    D    
C25   C27   S    
C28   H7    S    
C42   H36   S    
C9    O3    S    
C7    H12   S    
C23   O8    A    
C2    C3    A    
C4    C9    A    
C11   H14   S    
C1    O1    A    
C44   H32   S    
C11   C13   A    
C2    H1    S    
C43   C44   S    
O11   Zn2   S    
C12   O7    A    
C5    C35   A    
O5    Zn2   S    
C39   C40   S    
C4    C5    A    
C20   C21   A    
C27   C28   D    
C14   C15   A    
O10   Zn1   S    
C42   C43   S    
C13   C14   A    
C8    H13   S    
C27   C37   S    
C15   C16   A    
C20   C31   S    
