data_mof_unit_44902.cif
_audit_creation_date              2012-12-10T20:24:47-0500
_audit_creation_method            fapswitch 2.2
_symmetry_space_group_name_H-M    P1
_symmetry_Int_Tables_number       1
_space_group_crystal_system       triclinic
_cell_length_a                    10.710901
_cell_length_b                    18.890159
_cell_length_c                    18.448175
_cell_angle_alpha                 89.16549
_cell_angle_beta                  90.953665
_cell_angle_gamma                 89.4563
_cell_volume                      3731.54105302

loop_
_atom_site_label
_atom_site_type_symbol
_atom_type_description
_atom_site_fract_x
_atom_site_fract_y
_atom_site_fract_z
_atom_type_partial_charge
C1    C     C_R   0.500049 0.364775 0.500558 0.897198
C2    C     C_R   0.502529 0.635077 0.499486 0.895114
C3    C     C_R   0.872723 0.503586 0.503372 -0.152280
C4    C     C_R   0.127567 0.506881 0.499117 -0.132624
C5    C     C_R   0.942532 0.479324 0.564488 0.071895
C6    C     C_R   0.058749 0.540548 0.442309 0.046983
C7    C     C_R   0.602050 0.737110 0.442727 -0.276795
C8    C     C_R   0.599776 0.260489 0.556806 -0.279971
C9    C     C_R   0.644554 0.805956 0.444667 -0.268005
C10   C     C_R   0.644118 0.191713 0.553093 -0.251658
C11   C     C_R   0.607353 0.851243 0.499844 -0.068411
C12   C     C_R   0.602021 0.147141 0.498057 -0.068190
C13   C     C_R   0.523442 0.826310 0.553133 0.410077
C14   C     C_R   0.510470 0.172869 0.447294 0.408848
C15   C     C_R   0.487612 0.755268 0.553965 0.381355
C16   C     C_R   0.474004 0.244245 0.447577 0.404764
C17   C     C_R   0.526537 0.710703 0.497943 -0.226258
C18   C     C_R   0.520451 0.288425 0.502457 -0.228465
C19   C     C_R   0.669618 0.961593 0.563287 -0.130398
C20   C     C_R   0.656232 0.036566 0.432144 -0.132867
C21   C     C_R   0.662634 0.034967 0.563325 -0.232897
C22   C     C_R   0.652413 0.963135 0.432350 -0.233660
C23   C     C_R   0.259923 0.502375 0.499387 0.853542
C24   C     C_R   0.740311 0.500057 0.500950 0.871599
C25   C     C_R   0.646231 0.072828 0.497651 0.135709
C26   C     C_R   0.649369 0.925370 0.498436 0.139718
C27   C     C_R   0.544148 0.557169 0.725404 0.023712
C28   C     C_R   0.446066 0.445903 0.274022 0.005963
C29   C     C_R   0.543258 0.558815 0.801252 -0.298746
C30   C     C_R   0.446568 0.444778 0.198054 -0.300604
C31   C     C_R   0.498380 0.500629 0.841327 0.152366
C32   C     C_R   0.502785 0.500044 0.158761 0.113242
C33   C     C_R   0.453110 0.442373 0.802395 -0.241350
C34   C     C_R   0.557224 0.555390 0.198146 -0.252370
C35   C     C_R   0.454537 0.443224 0.726431 0.025453
C36   C     C_R   0.554921 0.554279 0.274110 0.041023
C37   C     C_R   0.518155 0.437215 0.963088 -0.167104
C38   C     C_R   0.486937 0.563730 0.037305 -0.187811
C39   C     C_R   0.519403 0.437068 0.039158 -0.200144
C40   C     C_R   0.484054 0.563770 0.961283 -0.192046
C41   C     C_R   0.503349 0.500301 0.077479 0.128076
C42   C     C_R   0.499657 0.500512 0.922795 0.113552
C43   C     C_R   0.258779 0.679650 0.353343 -0.306670
C44   C     C_R   0.781240 0.374281 0.711131 -0.299269
C45   C     C_R   0.202493 0.636686 0.404732 -0.231759
C46   C     C_R   0.823108 0.396131 0.643282 -0.274613
C47   C     C_R   0.117173 0.584634 0.384368 0.004080
C48   C     C_R   0.890248 0.458784 0.635850 0.029530
C49   C     C_R   0.084808 0.577711 0.310055 0.366990
C50   C     C_R   0.917548 0.499524 0.697655 0.397450
C51   C     C_R   0.138664 0.623191 0.257599 0.050306
C52   C     C_R   0.885206 0.474157 0.767515 0.007679
C53   C     C_R   0.225973 0.674833 0.279256 0.475661
C54   C     C_R   0.814364 0.411748 0.773633 0.488778
C55   C     C_R   0.930253 0.536440 0.444510 -0.208058
C56   C     C_R   0.069751 0.477954 0.559566 -0.198854
H1    H     H_    0.677609 0.933398 0.614683 0.176342
H2    H     H_    0.654039 0.064686 0.380599 0.176937
H3    H     H_    0.659299 0.060908 0.615147 0.135094
H4    H     H_    0.641049 0.936905 0.380935 0.135729
H5    H     H_    0.580039 0.601844 0.695256 0.147921
H6    H     H_    0.402666 0.403449 0.303921 0.160766
H7    H     H_    0.579479 0.605004 0.828040 0.130613
H8    H     H_    0.401466 0.401571 0.170372 0.139195
H9    H     H_    0.414909 0.396825 0.830139 0.119732
H10   H     H_    0.602912 0.598724 0.170604 0.133526
H11   H     H_    0.418719 0.398483 0.696982 0.118941
H12   H     H_    0.597954 0.596650 0.304048 0.119067
H13   H     H_    0.533557 0.387609 0.935934 0.143611
H14   H     H_    0.473762 0.613507 0.064565 0.133569
H15   H     H_    0.535063 0.387374 0.068008 0.132230
H16   H     H_    0.467532 0.613544 0.932813 0.132031
H17   H     H_    0.327413 0.716974 0.372284 0.149598
H18   H     H_    0.726038 0.326804 0.715676 0.152234
H19   H     H_    0.226133 0.644027 0.461189 0.126414
H20   H     H_    0.803861 0.364449 0.596123 0.163597
H21   H     H_    0.874209 0.561963 0.402006 0.192362
H22   H     H_    0.124058 0.454871 0.604347 0.164440
H23   H     H_    0.634763 0.703135 0.400043 0.179020
H24   H     H_    0.633397 0.293164 0.600306 0.180126
H25   H     H_    0.708612 0.823289 0.403398 0.165594
H26   H     H_    0.712865 0.173930 0.593158 0.159557
N1    N     N_R   0.500020 0.499980 0.689440 -0.088688
N2    N     N_R   0.499980 0.500020 0.310560 -0.096540
O1    O     O_R   0.500010 0.398180 0.560840 -0.629590
O2    O     O_R   0.499990 0.601820 0.439160 -0.622558
O3    O     O_R   0.499950 0.398180 0.439210 -0.591329
O4    O     O_R   0.500050 0.601820 0.560790 -0.593834
O5    O     O_R   0.316790 0.500010 0.560810 -0.623722
O6    O     O_R   0.683210 0.499990 0.439190 -0.627891
O7    O     O_R   0.316730 0.500000 0.439190 -0.620656
O8    O     O_R   0.683270 0.500000 0.560810 -0.615474
Zn1   Zn    Zn3+2 0.500040 0.500000 0.581210 0.944107
Zn2   Zn    Zn3+2 0.499960 0.500000 0.418790 0.938597
O9    O     O_3   0.280084 0.716983 0.225833 -0.651548
C57   C     C_3   0.302624 0.786778 0.249154 0.060719
H27   H     H_    0.391059 0.787977 0.281593 0.150611
H28   H     H_    0.223699 0.807590 0.281647 0.134495
C58   C     C_3   0.317417 0.835023 0.182768 -0.313284
H29   H     H_    0.396237 0.815441 0.149848 0.223641
H30   H     H_    0.230677 0.833812 0.148886 0.220833
C59   C     C_3   0.342850 0.911208 0.204772 -0.985998
H31   H     H_    0.263455 0.932509 0.236003 0.267289
H32   H     H_    0.354424 0.944756 0.155469 0.268038
H33   H     H_    0.429686 0.913758 0.238387 0.261636
O10   O     O_3   0.773852 0.389109 0.840816 -0.643058
C60   C     C_3   0.841905 0.327943 0.862910 0.059030
H34   H     H_    0.944421 0.335645 0.856795 0.125321
H35   H     H_    0.811904 0.281670 0.830492 0.137266
C61   C     C_3   0.816060 0.312615 0.942786 -0.309587
H36   H     H_    0.841602 0.359506 0.975420 0.227577
H37   H     H_    0.714838 0.302545 0.949541 0.214825
C62   C     C_3   0.890419 0.248344 0.970952 -0.985867
H38   H     H_    0.865031 0.200601 0.939714 0.264387
H39   H     H_    0.869056 0.238577 0.028915 0.265975
H40   H     H_    0.992185 0.257833 0.966268 0.263095
O11   O     O_3   0.425786 0.729352 0.613973 -0.593382
C63   C     C_3   0.298547 0.717589 0.596779 0.129174
H41   H     H_    0.285795 0.661965 0.579891 0.148515
H42   H     H_    0.261331 0.752908 0.552320 0.040765
C64   C     C_3   0.220629 0.730248 0.664111 -0.346787
H43   H     H_    0.239290 0.784108 0.684948 0.224321
H44   H     H_    0.120126 0.727711 0.649034 0.172884
C65   C     C_3   0.249332 0.675244 0.723801 -0.756004
H45   H     H_    0.231175 0.621018 0.703877 0.273729
H46   H     H_    0.188758 0.685110 0.770920 0.216247
H47   H     H_    0.348374 0.678748 0.742060 0.273399
O12   O     O_3   0.400376 0.270185 0.390563 -0.592488
C66   C     C_3   0.278973 0.288053 0.414136 0.109129
H48   H     H_    0.270027 0.346612 0.416620 0.139736
H49   H     H_    0.256286 0.265944 0.468815 0.044699
C67   C     C_3   0.181113 0.260845 0.360050 -0.338048
H50   H     H_    0.178048 0.202190 0.363326 0.213694
H51   H     H_    0.087677 0.281656 0.374910 0.164006
C68   C     C_3   0.208103 0.283143 0.281976 -0.802215
H52   H     H_    0.211536 0.341623 0.276959 0.216284
H53   H     H_    0.133117 0.263484 0.245448 0.220506
H54   H     H_    0.298266 0.260203 0.264321 0.294340
O13   O     O_3   0.991010 0.532142 0.289052 -0.643610
C69   C     C_3   0.040355 0.463014 0.282967 0.116567
H55   H     H_    0.074784 0.441918 0.336376 0.140702
H56   H     H_    0.118966 0.462106 0.244294 0.099464
C70   C     C_3   0.938223 0.414395 0.253916 -0.387536
H57   H     H_    0.903700 0.434926 0.200394 0.223145
H58   H     H_    0.977932 0.360686 0.245916 0.177742
C71   C     C_3   0.828756 0.408864 0.305650 -0.714595
H59   H     H_    0.861533 0.389595 0.359952 0.234486
H60   H     H_    0.759184 0.371101 0.283950 0.228320
H61   H     H_    0.782337 0.461254 0.310978 0.289865
O14   O     O_3   0.985516 0.561087 0.689590 -0.658515
C72   C     C_3   0.905712 0.621057 0.694566 0.090580
H62   H     H_    0.955424 0.660860 0.727729 0.164129
H63   H     H_    0.815675 0.610508 0.722058 0.120590
C73   C     C_3   0.877872 0.652641 0.619066 -0.350623
H64   H     H_    0.965555 0.656630 0.587955 0.231339
H65   H     H_    0.813050 0.617537 0.589506 0.227747
C74   C     C_3   0.816946 0.725743 0.623476 -0.962513
H66   H     H_    0.726630 0.722233 0.652008 0.281014
H67   H     H_    0.799098 0.747090 0.567892 0.278654
H68   H     H_    0.879408 0.762751 0.652628 0.254633
C75   C     C_3   0.099252 0.619000 0.178437 -0.356709
C76   C     C_3   0.200149 0.583965 0.133411 -0.824735
H69   H     H_    0.288108 0.614244 0.136613 0.289959
H70   H     H_    0.218421 0.528989 0.152947 0.247136
H71   H     H_    0.168927 0.582296 0.075775 0.237310
H72   H     H_    0.011614 0.588756 0.171411 0.228591
H73   H     H_    0.079310 0.673154 0.156587 0.211452
C77   C     C_3   0.938721 0.508184 0.835226 -0.366893
C78   C     C_3   0.840461 0.547335 0.878651 -0.832196
H74   H     H_    0.800693 0.592361 0.846535 0.231786
H75   H     H_    0.764735 0.511355 0.895307 0.303952
H76   H     H_    0.884730 0.568760 0.928453 0.235162
H77   H     H_    0.983451 0.466616 0.870377 0.200861
H78   H     H_    0.013768 0.546051 0.821616 0.223842
O15   O     O_3   0.479934 0.869714 0.607143 -0.634833
C79   C     C_3   0.375631 0.908728 0.580066 0.070232
H79   H     H_    0.298590 0.872724 0.564318 0.127315
H80   H     H_    0.400954 0.941628 0.532119 0.138260
C80   C     C_3   0.329300 0.957695 0.639231 -0.306608
H81   H     H_    0.305040 0.925543 0.687852 0.224239
H82   H     H_    0.404898 0.994773 0.654662 0.221791
C81   C     C_3   0.214521 0.000313 0.613875 -1.001876
H83   H     H_    0.237769 0.035131 0.567149 0.262364
H84   H     H_    0.181792 0.034014 0.658696 0.266396
H85   H     H_    0.137810 0.964304 0.597787 0.269789
O16   O     O_3   0.458023 0.129666 0.395348 -0.633107
C82   C     C_3   0.360027 0.091015 0.426907 0.078043
H86   H     H_    0.287366 0.127371 0.448248 0.122451
H87   H     H_    0.395757 0.056496 0.472127 0.139818
C83   C     C_3   0.300837 0.044112 0.369246 -0.311411
H88   H     H_    0.265551 0.077752 0.323253 0.231421
H89   H     H_    0.372758 0.007104 0.348493 0.225645
C84   C     C_3   0.192954 0.001334 0.399659 -1.007480
H90   H     H_    0.227050 0.964906 0.443549 0.262458
H91   H     H_    0.150392 0.969265 0.355939 0.265020
H92   H     H_    0.120195 0.037212 0.421288 0.271616

loop_
_geom_bond_atom_site_label_1
_geom_bond_atom_site_label_2
_ccdc_geom_bond_type
C43   H17   S    
C68   H54   S    
C38   C40   A    
C38   H14   S    
C1    O3    A    
C83   H88   S    
C31   C42   S    
C37   H13   S    
C53   O9    S    
C60   H35   S    
C78   H74   S    
C5    C56   A    
O9    C57   S    
C69   C70   S    
C6    C55   A    
O12   C66   S    
C34   H10   S    
C46   H20   S    
C75   C76   S    
C33   H9    S    
C68   H52   S    
C39   C41   A    
C19   H1    S    
C77   H78   S    
C1    C18   S    
C74   H66   S    
C7    H23   S    
C60   C61   S    
C19   C21   A    
C69   H56   S    
C62   H38   S    
C30   H8    S    
C22   H4    S    
C14   O16   S    
C28   N2    A    
C20   C25   A    
C51   C75   S    
C70   H57   S    
N1    Zn1   S    
C57   C58   S    
C70   H58   S    
C56   H22   S    
C27   C29   A    
C59   H33   S    
C68   H53   S    
C72   C73   S    
C37   C42   A    
C19   C26   A    
C81   H83   S    
O8    Zn1   S    
C64   C65   S    
O2    Zn2   S    
C83   C84   S    
C63   H41   S    
C3    C55   A    
C43   C53   A    
C79   C80   S    
C58   H29   S    
C52   C54   A    
C67   H50   S    
C49   C51   A    
C57   H28   S    
C50   C52   A    
C72   H62   S    
C23   O5    A    
C2    O4    A    
C14   C16   A    
C27   H5    S    
C71   H60   S    
C75   H72   S    
C66   C67   S    
O3    Zn2   S    
C40   C42   A    
C74   H67   S    
C39   H15   S    
C4    C56   A    
C2    C17   S    
C29   C31   A    
C78   H75   S    
C72   H63   S    
C3    C24   S    
O1    Zn1   S    
C24   O8    A    
C44   C46   A    
O6    Zn2   S    
C76   H70   S    
C45   C47   A    
C1    O1    A    
C77   H77   S    
C5    C48   S    
C46   C48   A    
C64   H44   S    
C6    C47   S    
C54   O10   S    
C82   C83   S    
C69   H55   S    
C73   C74   S    
C4    C6    A    
C70   C71   S    
C4    C23   S    
C35   N1    A    
C11   C26   S    
C7    C17   A    
C10   H26   S    
C8    C18   A    
C61   H36   S    
C51   C53   A    
C63   C64   S    
C32   C34   A    
C59   H32   S    
C44   C54   A    
C71   H61   S    
C43   C45   A    
C50   O14   S    
O15   C79   S    
C13   C15   A    
C35   H11   S    
C61   H37   S    
C60   H34   S    
C84   H92   S    
C57   H27   S    
C84   H91   S    
C64   H43   S    
C16   C18   A    
N2    Zn2   S    
O10   C60   S    
C66   H49   S    
C44   H18   S    
C9    C11   A    
C61   C62   S    
C73   H64   S    
C75   H73   S    
C71   H59   S    
C10   C12   A    
C38   C41   A    
C65   H47   S    
C8    C10   A    
C77   C78   S    
C58   H30   S    
C12   C14   A    
C74   H68   S    
C49   O13   S    
C78   H76   S    
C23   O7    A    
C32   C41   S    
C20   H2    S    
C65   H46   S    
C76   H69   S    
C15   C17   A    
C21   C25   A    
O4    Zn1   S    
C79   H79   S    
C31   C33   A    
C83   H89   S    
C40   H16   S    
C81   H84   S    
C76   H71   S    
C73   H65   S    
C20   C22   A    
C3    C5    A    
C24   O6    A    
C80   C81   S    
O13   C69   S    
C36   H12   S    
C21   H3    S    
C47   C49   A    
C12   C25   S    
C45   H19   S    
C15   O11   S    
C62   H40   S    
C27   N1    A    
C66   H48   S    
C28   C30   A    
C37   C39   A    
O11   C63   S    
C52   C77   S    
O7    Zn2   S    
C30   C32   A    
C11   C13   A    
C36   N2    A    
C67   C68   S    
C55   H21   S    
C48   C50   A    
C29   H7    S    
C33   C35   A    
C2    O2    A    
C34   C36   A    
C16   O12   S    
O5    Zn1   S    
C59   H31   S    
C63   H42   S    
C82   H87   S    
C80   H81   S    
C7    C9    A    
C82   H86   S    
C58   C59   S    
C67   H51   S    
C84   H90   S    
C22   C26   A    
C8    H24   S    
C13   O15   S    
O14   C72   S    
C65   H45   S    
C80   H82   S    
O16   C82   S    
C81   H85   S    
C9    H25   S    
C79   H80   S    
C62   H39   S    
C28   H6    S    
