data_mof_unit_53470.cif
_audit_creation_date              2013-03-05T15:46:31-0500
_audit_creation_method            fapswitch 2.2
_symmetry_space_group_name_H-M    P1
_symmetry_Int_Tables_number       1
_space_group_crystal_system       triclinic
_cell_length_a                    6.934562
_cell_length_b                    16.776532
_cell_length_c                    17.030991
_cell_angle_alpha                 100.517868
_cell_angle_beta                  91.905231
_cell_angle_gamma                 89.204919
_cell_volume                      1946.92079645

loop_
_atom_site_label
_atom_site_type_symbol
_atom_site_description
_atom_site_fract_x
_atom_site_fract_y
_atom_site_fract_z
_atom_type_partial_charge
O1    O     O_R   0.506180 0.438940 0.579430 -0.599023
O2    O     O_R   0.170520 0.406230 0.413590 -0.574829
O3    O     O_R   0.005180 0.561060 0.420570 -0.569903
C1    C     C_R   0.338759 0.383815 0.384602 1.077076
O4    O     O_R   0.176140 0.429310 0.578370 -0.574286
O5    O     O_R   0.010830 0.584300 0.586530 -0.572741
C2    C     C_R   0.349166 0.413860 0.605272 0.937974
O6    O     O_R   0.500520 0.415700 0.413470 -0.598654
O7    O     O_3   0.340830 0.550820 0.502480 -0.271699
V1    V     V_3+5 0.064040 0.490570 0.499540 1.212668
O8    O     O_R   0.681400 0.593770 0.586410 -0.603584
C3    C     C_R   0.851517 0.615872 0.615456 1.080364
O9    O     O_R   0.675790 0.570690 0.421630 -0.599826
C4    C     C_R   0.840698 0.587013 0.395084 0.948573
V2    V     V_3+5 0.564650 0.509430 0.500460 1.197453
O10   O     O_3   0.837730 0.449180 0.497520 -0.270723
C5    C     C_R   0.932737 0.859542 0.166080 -0.153887
C6    C     C_R   0.834778 0.640908 0.334313 -0.195746
C7    C     C_R   0.649521 0.698598 0.233242 -0.130870
C8    C     C_R   0.666215 0.644425 0.286536 -0.098580
C9    C     C_R   0.988095 0.692816 0.326918 -0.233748
C10   C     C_R   0.971478 0.749015 0.274110 0.112527
C11   C     C_R   0.799756 0.751855 0.226984 0.117207
C12   C     C_R   0.780755 0.807397 0.174022 -0.296589
C13   C     C_R   0.101859 0.856902 0.213769 -0.341944
C14   C     C_R   0.122222 0.802800 0.268016 0.486614
H1    H     H_    0.650120 0.808361 0.137408 0.149504
H2    H     H_    0.219665 0.897251 0.208706 0.144224
H3    H     H_    0.517559 0.699418 0.197460 0.133372
H4    H     H_    0.545610 0.605164 0.290588 0.152271
H5    H     H_    0.117576 0.690793 0.363920 0.190668
H6    H     H_    0.100329 0.633304 0.975282 0.156265
C15   C     C_R   0.792604 0.908298 0.727755 -0.181589
C16   C     C_R   0.733120 0.922539 0.652606 -0.125867
C17   C     C_R   0.717696 0.858483 0.588402 -0.082945
C18   C     C_R   0.761189 0.779730 0.598955 -0.161288
C19   C     C_R   0.820146 0.763098 0.674896 0.088422
C20   C     C_R   0.836634 0.828808 0.740458 0.133114
C21   C     C_R   0.865537 0.682855 0.685576 -0.319451
C22   C     C_R   0.928344 0.667848 0.762526 0.037548
C23   C     C_R   0.946309 0.734739 0.827677 0.060416
C24   C     C_R   0.899929 0.814634 0.816611 -0.277933
C25   C     C_R   0.971692 0.588005 0.777454 0.465979
C26   C     C_R   0.035503 0.577400 0.854157 -0.235865
C27   C     C_R   0.052914 0.642826 0.916451 -0.127794
C28   C     C_R   0.007596 0.720338 0.903928 -0.179916
H7    H     H_    0.804964 0.960465 0.775423 0.109407
H8    H     H_    0.700057 0.983706 0.644082 0.113682
H9    H     H_    0.672693 0.869867 0.529943 0.122933
H10   H     H_    0.748954 0.732408 0.546656 0.096727
H11   H     H_    0.070135 0.517524 0.865989 0.186517
H12   H     H_    0.020767 0.768782 0.955217 0.119111
H13   H     H_    0.125246 0.467508 0.126871 0.179396
C29   C     C_R   0.474939 0.226379 0.405654 -0.157383
C30   C     C_R   0.551643 0.152442 0.418407 -0.100254
C31   C     C_R   0.584427 0.090426 0.354048 -0.109426
C32   C     C_R   0.540136 0.101790 0.276471 -0.187765
C33   C     C_R   0.462584 0.176319 0.261550 0.123595
C34   C     C_R   0.429810 0.240202 0.327425 0.094331
C35   C     C_R   0.414067 0.186955 0.182738 -0.244458
C36   C     C_R   0.333373 0.262063 0.169704 0.015048
C37   C     C_R   0.305335 0.327672 0.235119 0.041358
C38   C     C_R   0.351847 0.315889 0.314769 -0.308576
C39   C     C_R   0.281987 0.272800 0.091213 -0.300403
C40   C     C_R   0.203751 0.345689 0.075654 0.409872
C41   C     C_R   0.182404 0.410430 0.138977 -0.410803
C42   C     C_R   0.233834 0.403287 0.217993 0.453772
H14   H     H_    0.450156 0.272158 0.457991 0.082972
H15   H     H_    0.585152 0.143161 0.478647 0.110289
H16   H     H_    0.643619 0.033002 0.364267 0.117214
H17   H     H_    0.567099 0.051381 0.228529 0.112929
H18   H     H_    0.303294 0.224432 0.040798 0.160854
C43   C     C_R   0.387495 0.137625 0.832819 -0.127028
C44   C     C_R   0.377774 0.362162 0.667178 -0.137549
C45   C     C_R   0.593216 0.318073 0.768042 -0.204116
C46   C     C_R   0.548005 0.371046 0.715554 -0.145498
C47   C     C_R   0.249965 0.299730 0.674094 -0.301000
C48   C     C_R   0.295593 0.245495 0.726546 0.234504
C49   C     C_R   0.469319 0.254380 0.773565 0.222627
C50   C     C_R   0.515194 0.200077 0.825887 -0.241876
C51   C     C_R   0.216648 0.128874 0.784704 -0.098138
C52   C     C_R   0.171445 0.181914 0.732245 -0.201814
H19   H     H_    0.645996 0.208203 0.863055 0.153991
H20   H     H_    0.115365 0.081197 0.788437 0.120826
H21   H     H_    0.726289 0.326522 0.803697 0.161118
H22   H     H_    0.038135 0.173626 0.696757 0.115192
H23   H     H_    0.648529 0.418894 0.712033 0.172092
H24   H     H_    0.119169 0.291655 0.636926 0.139266
O11   O     O_R   0.265840 0.084300 0.086750 -0.585073
O12   O     O_R   0.589750 0.070740 0.921690 -0.598592
O13   O     O_R   0.755020 0.915730 0.913400 -0.591075
C53   C     C_R   0.416589 0.086066 0.894778 0.939707
O14   O     O_R   0.595830 0.093740 0.086480 -0.588351
O15   O     O_R   0.761150 0.938890 0.079360 -0.599696
C54   C     C_R   0.427484 0.116864 0.114874 0.934948
O16   O     O_R   0.259710 0.061140 0.920790 -0.590181
O17   O     O_3   0.425260 0.949200 0.997610 -0.275589
V3    V     V_3+5 0.702060 0.009430 0.000450 1.165747
O18   O     O_R   0.090530 0.929220 0.078150 -0.603143
C55   C     C_R   0.925770 0.912998 0.104862 0.958684
O19   O     O_R   0.084440 0.906220 0.913360 -0.594504
C56   C     C_R   0.914231 0.883494 0.885043 0.936874
V4    V     V_3+5 0.201450 0.990520 0.999290 1.166566
O20   O     O_3   0.928380 0.050800 0.002390 -0.262291
O21   O     O_3   0.948147 0.520621 0.717910 -0.780011
H25   H     H_    0.989219 0.471076 0.738262 0.311505
N1    N     N_R   0.147189 0.354185 0.995364 0.243324
O22   O     O_R   0.082987 0.423280 0.980333 -0.436018
O23   O     O_R   0.153992 0.292414 0.936864 -0.425868
O24   O     O_3   0.216356 0.470244 0.278141 -0.767737
H26   H     H_    0.167453 0.517434 0.255617 0.312753
O25   O     O_3   0.287854 0.801607 0.315237 -0.783047
H27   H     H_    0.378630 0.842861 0.303714 0.314573

loop_
_geom_bond_atom_site_label_1
_geom_bond_atom_site_label_2
_geom_bond_distance
_ccdc_geom_bond_type
O18   V4    2.011957 S    
C30   C31   1.388962 A    
O19   C56   1.295615 A    
C6    C9    1.406849 A    
C23   C24   1.418372 A    
C4    C6    1.492727 S    
O2    C1    1.305598 A    
C7    C8    1.398020 A    
C12   H1    1.084190 S    
C1    O6    1.292334 A    
O17   V3    2.176600 S    
C8    H4    1.083409 S    
C47   C48   1.412787 A    
C13   H2    1.083688 S    
C9    H5    1.083437 S    
C1    C38   1.493609 S    
C19   C20   1.421507 A    
C44   C46   1.410644 A    
C37   C42   1.431134 A    
C18   C19   1.418164 A    
C20   C24   1.415330 A    
C25   O21   1.381515 S    
C29   H14   1.081878 S    
O15   V3    1.976118 S    
C33   C35   1.415068 A    
V2    O10   2.131893 S    
C28   H12   1.081415 S    
C53   O16   1.291087 A    
C31   C32   1.392722 A    
C16   C17   1.388652 A    
H6    C27   1.082873 S    
O24   H26   0.991815 S    
O8    V2    1.999269 S    
C45   H21   1.084132 S    
C22   C25   1.434320 A    
C17   C18   1.393142 A    
C47   H24   1.084270 S    
C44   C47   1.405050 A    
C17   H9    1.082697 S    
C23   C28   1.414375 A    
O1    V2    2.000496 S    
O7    V1    2.176540 S    
C41   C42   1.406530 A    
O19   V4    1.999385 S    
O9    C4    1.294368 A    
O11   V4    2.003262 S    
N1    O23   1.301387 A    
C50   H19   1.084334 S    
C24   C56   1.485481 S    
C43   C51   1.411745 A    
O25   H27   0.991799 S    
C51   C52   1.397182 A    
C2    C44   1.489406 S    
C29   C34   1.417702 A    
C5    C12   1.404503 A    
C21   C22   1.431800 A    
O4    C2    1.309560 A    
C48   C49   1.418473 A    
C13   C14   1.411112 A    
C52   H22   1.083962 S    
C35   C36   1.422821 A    
O11   C54   1.292338 A    
C36   C39   1.414526 A    
C7    C11   1.401076 A    
C45   C46   1.396735 A    
C37   C38   1.431874 A    
C48   C52   1.399007 A    
C42   O24   1.382112 S    
O12   C53   1.309942 A    
O18   C55   1.294146 A    
O15   C55   1.304859 A    
N1    O22   1.301478 A    
C15   C16   1.392507 A    
C30   H15   1.082720 S    
C32   H17   1.081884 S    
H13   C41   1.082883 S    
C46   H23   1.081566 S    
O17   V4    1.689966 S    
O3    C4    1.304324 A    
C26   H11   1.082274 S    
C22   C23   1.430425 A    
O6    V2    1.997602 S    
C31   H16   1.082743 S    
O9    V2    2.011763 S    
C25   C26   1.406482 A    
C15   H7    1.081861 S    
C16   H8    1.082726 S    
O13   C56   1.291580 A    
O2    V1    1.994171 S    
C14   O25   1.382114 S    
C51   H20   1.083624 S    
C18   H10   1.081435 S    
C26   C27   1.383810 A    
C29   C30   1.393226 A    
O1    C2    1.291685 A    
C43   C53   1.488851 S    
O5    V1    1.993349 S    
O8    C3    1.296235 A    
O21   H25   0.992061 S    
C34   C38   1.422736 A    
C15   C20   1.417070 A    
C5    C13   1.409037 A    
C39   C40   1.396491 A    
C3    C21   1.484516 S    
C33   C34   1.424844 A    
O4    V1    1.968539 S    
C19   C21   1.420649 A    
O3    V1    1.976034 S    
V1    O10   1.721678 S    
O5    C3    1.291679 A    
C32   C33   1.416113 A    
V3    O20   1.721718 S    
C43   C50   1.404892 A    
O12   V3    1.968698 S    
C6    C8    1.408644 A    
C39   H18   1.080851 S    
O13   V3    1.993299 S    
O7    V2    1.690344 S    
C36   C37   1.432233 A    
C5    C55   1.493455 S    
C11   C12   1.412360 A    
C49   C50   1.412320 A    
C35   C54   1.495031 S    
C27   C28   1.385890 A    
O14   C54   1.305242 A    
C40   C41   1.393965 A    
C10   C14   1.409001 A    
O16   V4    1.995430 S    
V4    O20   2.131971 S    
C10   C11   1.418915 A    
C9    C10   1.418004 A    
C45   C49   1.398700 A    
O14   V3    1.994060 S    
C40   N1    1.441515 S    
C7    H3    1.083790 S    
