data_mof_unit_45243.cif
_audit_creation_date              2012-12-10T18:43:09-0500
_audit_creation_method            fapswitch 2.2
_symmetry_space_group_name_H-M    P1
_symmetry_Int_Tables_number       1
_space_group_crystal_system       triclinic
_cell_length_a                    10.722969
_cell_length_b                    9.836042
_cell_length_c                    10.74643
_cell_angle_alpha                 89.996665
_cell_angle_beta                  89.959939
_cell_angle_gamma                 89.999905
_cell_volume                      1133.44260208

loop_
_atom_site_label
_atom_site_type_symbol
_atom_type_description
_atom_site_fract_x
_atom_site_fract_y
_atom_site_fract_z
_atom_type_partial_charge
C1    C     C_R   0.259855 0.499957 0.499817 0.866071
C2    C     C_R   0.936156 0.375924 0.500863 -0.194872
C3    C     C_R   0.872601 0.499976 0.500356 -0.009138
C4    C     C_R   0.127397 0.499974 0.499729 -0.009257
C5    C     C_R   0.936161 0.624031 0.499675 -0.202464
C6    C     C_R   0.063836 0.624029 0.499286 -0.202619
C7    C     C_R   0.587530 0.072349 0.565412 -0.232726
C8    C     C_R   0.412483 0.072356 0.434575 -0.232365
C9    C     C_R   0.586193 0.927090 0.568890 0.468300
C10   C     C_R   0.413831 0.927114 0.431098 0.468172
C11   C     C_3   0.702020 0.902689 0.752033 0.069904
C12   C     C_R   0.740145 0.499957 0.500206 0.866095
C13   C     C_3   0.834987 0.959271 0.756374 -0.355222
C14   C     C_3   0.865551 0.017802 0.884185 -0.965286
C15   C     C_3   0.298752 0.902409 0.247601 0.069995
C16   C     C_3   0.165852 0.959066 0.242322 -0.355389
C17   C     C_3   0.136051 0.017138 0.114151 -0.965169
C18   C     C_R   0.497016 0.499850 0.262529 0.929852
C19   C     C_R   0.502946 0.499843 0.737471 0.929864
C20   C     C_2   0.496376 0.385130 0.933057 -0.163441
C21   C     C_2   0.503127 0.385108 0.066948 -0.163281
C22   C     C_2   0.514749 0.499623 0.868924 -0.331072
C23   C     C_2   0.485100 0.499655 0.131084 -0.331168
C24   C     C_R   0.063843 0.375923 0.500404 -0.195047
H1    H     H_    0.477196 0.288867 0.887239 0.168573
H2    H     H_    0.342025 0.129216 0.385153 0.157315
H3    H     H_    0.696242 0.815523 0.817579 0.163226
H4    H     H_    0.633316 0.979012 0.786756 0.109899
H5    H     H_    0.902121 0.876490 0.734472 0.228598
H6    H     H_    0.846600 0.040250 0.685312 0.211276
H7    H     H_    0.800585 0.102114 0.907264 0.266470
H8    H     H_    0.962201 0.058272 0.883656 0.272386
H9    H     H_    0.858483 0.937541 0.956584 0.266120
H10   H     H_    0.304879 0.815034 0.182331 0.163269
H11   H     H_    0.367663 0.978627 0.213074 0.109853
H12   H     H_    0.522068 0.288778 0.112757 0.168566
H13   H     H_    0.098536 0.876425 0.264118 0.228413
H14   H     H_    0.153907 0.040326 0.313049 0.211528
H15   H     H_    0.201251 0.101256 0.091133 0.266400
H16   H     H_    0.039456 0.057760 0.114033 0.272430
H17   H     H_    0.143393 0.936586 0.042062 0.266131
H18   H     H_    0.541651 0.595037 0.911655 0.140354
H19   H     H_    0.458398 0.595143 0.088356 0.140250
H20   H     H_    0.112263 0.279204 0.500663 0.154050
H21   H     H_    0.887736 0.279208 0.501549 0.153841
H22   H     H_    0.887780 0.720753 0.499326 0.184294
H23   H     H_    0.112215 0.720750 0.498703 0.184743
H24   H     H_    0.657991 0.129235 0.614797 0.157289
N1    N     N_R   0.500000 0.857200 0.500000 -0.145326
N2    N     N_R   0.500000 0.142810 0.500000 -0.107711
O1    O     O_R   0.316770 0.614620 0.499990 -0.579625
O2    O     O_3   0.323400 0.852539 0.368731 -0.618540
O3    O     O_R   0.683230 0.614620 0.500010 -0.579557
O4    O     O_R   0.316800 0.385290 0.500000 -0.634168
O5    O     O_R   0.683200 0.385290 0.500000 -0.634143
O6    O     O_R   0.500000 0.614630 0.319080 -0.604806
O7    O     O_R   0.500000 0.614630 0.680920 -0.604562
O8    O     O_R   0.500030 0.385300 0.319080 -0.616411
O9    O     O_R   0.499970 0.385300 0.680920 -0.616484
O10   O     O_3   0.676629 0.852431 0.631198 -0.618253
Zn1   Zn    Zn3+2 0.500000 0.653120 0.500000 1.014551
Zn2   Zn    Zn3+2 0.500000 0.346880 0.500000 0.940026

loop_
_geom_bond_atom_site_label_1
_geom_bond_atom_site_label_2
_ccdc_geom_bond_type
C18   C23   S    
O8    Zn2   S    
C1    O4    A    
O7    Zn1   S    
C11   H3    S    
C11   C13   S    
C5    H22   S    
C14   H7    S    
C15   H10   S    
C12   O3    A    
O1    Zn1   S    
C18   O6    A    
C16   H13   S    
C9    O10   S    
C10   O2    S    
C7    H24   S    
C1    C4    S    
C14   H9    S    
C2    C3    A    
C9    N1    A    
C21   H12   S    
C16   H14   S    
C13   C14   S    
C19   O7    A    
C1    O1    A    
C22   H18   S    
C11   H4    S    
C4    C24   A    
C24   H20   S    
C13   H5    S    
C20   C22   D    
C21   C23   D    
C2    H21   S    
C2    C24   A    
C5    C6    A    
N2    Zn2   S    
C17   H17   S    
C12   O5    A    
N1    Zn1   S    
C20   H1    S    
C8    H2    S    
C15   C16   S    
O5    Zn2   S    
C8    N2    A    
C13   H6    S    
C19   C22   S    
C23   H19   S    
C20   C21   S    
C4    C6    A    
C6    H23   S    
C15   H11   S    
C7    C9    A    
C17   H15   S    
O6    Zn1   S    
O9    Zn2   S    
C3    C12   S    
O4    Zn2   S    
C19   O9    A    
C15   O2    S    
C10   N1    A    
O3    Zn1   S    
C18   O8    A    
C8    C10   A    
C11   O10   S    
C7    N2    A    
C14   H8    S    
C16   C17   S    
C3    C5    A    
C17   H16   S    
