data_mof_unit_32937.cif
_audit_creation_date              2012-10-26T19:59:13-0400
_audit_creation_method            fapswitch 2.2
_symmetry_space_group_name_H-M    P1
_symmetry_Int_Tables_number       1
_space_group_crystal_system       triclinic
_cell_length_a                    7.446464
_cell_length_b                    8.69306
_cell_length_c                    15.654066
_cell_angle_alpha                 94.19336
_cell_angle_beta                  75.026603
_cell_angle_gamma                 103.200708
_cell_volume                      952.946755589

loop_
_atom_site_label
_atom_site_type_symbol
_atom_type_description
_atom_site_fract_x
_atom_site_fract_y
_atom_site_fract_z
_atom_type_partial_charge
Br1   Br    Br    0.132401 0.434955 0.215604 -0.591890
Br2   Br    Br    0.724805 0.845402 0.837988 -0.555757
C1    C     C_R   0.545130 0.800142 0.502564 0.551441
C2    C     C_R   0.616303 0.514580 0.333448 0.556009
C3    C     C_R   0.311468 0.483988 0.763788 0.002234
C4    C     C_R   0.687671 0.554078 0.239465 0.019736
C5    C     C_R   0.054107 0.419071 0.895229 -0.111623
C6    C     C_R   0.891126 0.733644 0.125712 -0.118320
C7    C     C_R   0.116772 0.433575 0.803574 -0.106659
C8    C     C_R   0.848626 0.674764 0.210721 -0.090293
C9    C     C_R   0.440014 0.528773 0.817271 -0.079791
C10   C     C_R   0.571419 0.493455 0.182296 -0.088110
C11   C     C_R   0.376891 0.531376 0.909866 0.039294
C12   C     C_R   0.454938 0.199859 0.497349 0.552300
C13   C     C_R   0.591880 0.570057 0.103347 0.028432
C14   C     C_R   0.184379 0.462050 0.948178 0.011555
C15   C     C_R   0.762910 0.683391 0.072181 -0.001514
C16   C     C_R   0.502984 0.590071 0.964983 0.008784
C17   C     C_R   0.449906 0.537266 0.054238 0.017162
C18   C     C_R   0.253733 0.466013 0.091444 0.139759
C19   C     C_R   0.674022 0.706989 0.936416 0.135729
C20   C     C_R   0.124526 0.434388 0.038508 -0.091084
C21   C     C_R   0.800471 0.751160 0.989989 -0.089671
C22   C     C_2   0.570528 0.968071 0.503759 -0.137386
C23   C     C_2   0.429632 0.031924 0.496043 -0.139565
C24   C     C_R   0.383823 0.489033 0.666880 0.552357
Cu1   Cu    Cu3+1 0.322120 0.483240 0.490330 1.005246
Cu2   Cu    Cu3+1 0.677880 0.516760 0.509670 1.001876
H1    H     H_    0.975594 0.384715 0.068182 0.151057
H2    H     H_    0.590758 0.555214 0.786252 0.173226
H3    H     H_    0.706294 0.039503 0.511029 0.141634
H4    H     H_    0.293877 0.960487 0.488760 0.140677
H5    H     H_    0.927392 0.842983 0.968059 0.158902
H6    H     H_    0.939081 0.725338 0.254399 0.164314
H7    H     H_    0.014345 0.398888 0.763809 0.147191
H8    H     H_    0.904482 0.371859 0.924596 0.128745
H9    H     H_    0.019172 0.824117 0.103520 0.134847
H10   H     H_    0.003948 0.616139 0.568920 0.247585
H11   H     H_    0.995871 0.383615 0.431233 0.268839
H12   H     H_    0.465035 0.386824 0.201195 0.172535
N1    N     N_2   0.945180 0.542040 0.524240 -0.255565
N2    N     N_2   0.054820 0.457960 0.475760 -0.242159
O1    O     O_R   0.384450 0.714270 0.493720 -0.505345
O2    O     O_R   0.615550 0.285730 0.506280 -0.506212
O3    O     O_R   0.684880 0.742590 0.510050 -0.491416
O4    O     O_R   0.315120 0.257410 0.489950 -0.494027
O5    O     O_R   0.265540 0.477900 0.617090 -0.506876
O6    O     O_R   0.734460 0.522100 0.382910 -0.482270
O7    O     O_R   0.565970 0.506210 0.633420 -0.495186
O8    O     O_R   0.434030 0.493790 0.366580 -0.470749

loop_
_geom_bond_atom_site_label_1
_geom_bond_atom_site_label_2
_ccdc_geom_bond_type
C10   H12   S    
Cu1   O8    S    
C4    C8    A    
C20   H1    S    
C16   C19   A    
C5    H8    S    
C17   C18   A    
C10   C13   A    
C2    O8    A    
C23   H4    S    
C22   H3    S    
C1    O3    A    
C8    H6    S    
C13   C17   A    
C9    C11   A    
Cu1   N2    S    
C1    O1    A    
C1    C22   S    
C15   C21   A    
C24   O5    A    
Br2   C19   S    
C11   C16   A    
Cu1   O4    S    
C12   O2    A    
C5    C14   A    
C18   C20   A    
C3    C9    A    
H11   N2    S    
C5    C7    A    
C19   C21   A    
C12   C23   S    
C4    C10   A    
Cu2   O3    S    
C11   C14   A    
C2    C4    S    
C6    H9    S    
C3    C24   S    
Cu1   O1    S    
Cu2   N1    S    
C2    O6    A    
C22   C23   D    
H10   N1    S    
C12   O4    A    
C16   C17   A    
N1    N2    D    
C24   O7    A    
Cu1   O5    S    
Cu1   Cu2   S    
C7    H7    S    
Cu2   O6    S    
Br1   C18   S    
C14   C20   A    
C13   C15   A    
Cu2   O2    S    
C6    C8    A    
C6    C15   A    
C9    H2    S    
C3    C7    A    
C21   H5    S    
Cu2   O7    S    
