data_mof_unit_17337.cif
_audit_creation_date              2012-12-11T14:08:11-0500
_audit_creation_method            fapswitch 2.2
_symmetry_space_group_name_H-M    P1
_symmetry_Int_Tables_number       1
_space_group_crystal_system       triclinic
_cell_length_a                    10.917026
_cell_length_b                    10.950749
_cell_length_c                    18.673002
_cell_angle_alpha                 90.330772
_cell_angle_beta                  89.661666
_cell_angle_gamma                 60.323396
_cell_volume                      1939.41017203

loop_
_atom_site_label
_atom_site_type_symbol
_atom_type_description
_atom_site_fract_x
_atom_site_fract_y
_atom_site_fract_z
_atom_type_partial_charge
C1    C     C_R   0.237400 0.644933 0.609167 0.543906
C2    C     C_3   0.609441 0.607883 0.800274 -0.235064
C3    C     C_3   0.704462 0.673180 0.811059 0.046064
C4    C     C_3   0.674442 0.650395 0.674647 0.033652
C5    C     C_3   0.833726 0.584782 0.692211 -0.198749
C6    C     C_3   0.606076 0.579276 0.719994 -0.208994
C7    C     C_2   0.675270 0.158744 0.671240 -0.141268
C8    C     C_2   0.687464 0.170014 0.828685 -0.107106
C9    C     C_2   0.798664 0.129854 0.784557 -0.143684
C10   C     C_2   0.778246 0.164068 0.707967 -0.169585
C11   C     C_2   0.188611 0.657484 0.683096 -0.161306
C12   C     C_R   0.656213 0.624954 0.599665 0.535889
C13   C     C_2   0.199236 0.663346 0.840258 -0.097288
C14   C     C_2   0.223273 0.548608 0.802623 0.188822
C15   C     C_2   0.246958 0.542352 0.724843 -0.140298
C16   C     C_2   0.650711 0.646368 0.317308 -0.090023
C17   C     C_2   0.632830 0.665966 0.159746 -0.109454
C18   C     C_2   0.705882 0.546141 0.195287 -0.161623
C19   C     C_2   0.687338 0.537408 0.271897 -0.147457
C20   C     C_2   0.674420 0.137840 0.333411 -0.111576
C21   C     C_2   0.651751 0.146406 0.179218 -0.096371
C22   C     C_2   0.608772 0.075895 0.221809 -0.152842
C23   C     C_R   0.627823 0.228514 0.602250 0.543324
C24   C     C_2   0.592304 0.100243 0.298271 -0.163170
C25   C     C_2   0.121746 0.680830 0.345272 -0.106738
C26   C     C_2   0.112787 0.691596 0.190872 -0.089154
C27   C     C_2   0.041964 0.804412 0.234495 -0.148009
C28   C     C_2   0.074325 0.800058 0.309774 -0.165271
C29   C     C_R   0.703103 0.102791 0.897781 0.554818
C30   C     C_R   0.724795 0.687991 0.887885 0.542207
C31   C     C_R   0.121290 0.705323 0.908095 0.562440
C32   C     C_R   0.675402 0.105705 0.105058 0.550193
C33   C     C_R   0.692026 0.688794 0.094756 0.545954
C34   C     C_R   0.215454 0.651273 0.404656 0.558127
C35   C     C_R   0.086189 0.713600 0.115400 0.549544
C36   C     C_R   0.641831 0.621254 0.392736 0.549798
C37   C     C_R   0.621359 0.222675 0.397415 0.554358
C38   C     C_3   0.632028 0.821043 0.774224 -0.264503
C39   C     C_3   0.601869 0.807806 0.694835 -0.265280
C40   C     C_3   0.851636 0.578580 0.773349 0.132655
Cr1   Cr    Cr6+3 0.393010 0.398050 0.501480 1.028284
Cr2   Cr    Cr6+3 0.398820 0.707980 0.501630 1.023928
Cr3   Cr    Cr6+3 0.708140 0.393940 0.496850 1.018091
Cr4   Cr    Cr6+3 0.937950 0.938450 0.008940 1.042453
Cr5   Cr    Cr6+3 0.626180 0.937030 0.994750 1.050948
Cr6   Cr    Cr6+3 0.937790 0.625760 0.001410 1.106674
H1    H     H_    0.701818 0.868099 0.778027 0.114749
H2    H     H_    0.663899 0.463832 0.710118 0.162186
H3    H     H_    0.899130 0.477769 0.668865 0.197848
H4    H     H_    0.905672 0.067082 0.803884 0.175044
H5    H     H_    0.845793 0.198254 0.682598 0.183952
H6    H     H_    0.581080 0.234144 0.808673 0.144077
H7    H     H_    0.612155 0.119141 0.696629 0.116678
H8    H     H_    0.315077 0.439001 0.701483 0.183348
H9    H     H_    0.215824 0.743054 0.814756 0.069610
H10   H     H_    0.530494 0.894611 0.801369 0.172611
H11   H     H_    0.120182 0.761657 0.705320 0.094731
H12   H     H_    0.791912 0.454078 0.169539 0.156905
H13   H     H_    0.717376 0.433485 0.292188 0.150186
H14   H     H_    0.541440 0.755246 0.184065 0.105955
H15   H     H_    0.619462 0.751662 0.299042 0.087299
H16   H     H_    0.578116 0.002887 0.199786 0.151082
H17   H     H_    0.501211 0.102757 0.323620 0.157096
H18   H     H_    0.683309 0.219573 0.199772 0.085811
H19   H     H_    0.770301 0.126486 0.309064 0.094811
H20   H     H_    0.969775 0.907432 0.213037 0.156409
H21   H     H_    0.486002 0.857993 0.686822 0.158529
H22   H     H_    0.077621 0.889932 0.332542 0.153299
H23   H     H_    0.186412 0.587303 0.210065 0.096552
H24   H     H_    0.109622 0.594856 0.323878 0.113343
H25   H     H_    0.641927 0.863474 0.660523 0.116699
H26   H     H_    0.924821 0.618376 0.787023 0.151526
H27   H     H_    0.875650 0.650151 0.668668 0.081651
H28   H     H_    0.500835 0.681612 0.820217 0.112594
H29   H     H_    0.494622 0.618787 0.704137 0.127266
O1    O     O_R   0.507110 0.256280 0.580300 -0.515460
O2    O     O_R   0.524640 0.695370 0.425100 -0.493429
O3    O     O_R   0.735890 0.504390 0.415980 -0.512909
O4    O     O_R   0.690560 0.277820 0.422350 -0.507091
O5    O     O_3   0.499990 0.499990 0.499980 -0.251300
O6    O     O_R   0.089190 0.825870 0.932320 -0.522779
O7    O     O_R   0.819070 0.053960 0.931440 -0.490418
O8    O     O_R   0.607070 0.076440 0.916460 -0.485279
O9    O     O_R   0.647110 0.806550 0.917690 -0.520606
O10   O     O_R   0.837080 0.593860 0.915300 -0.440737
O11   O     O_R   0.064770 0.636080 0.932550 -0.434398
O12   O     O_R   0.280830 0.527190 0.577940 -0.498350
O13   O     O_R   0.068250 0.829200 0.092940 -0.514518
O14   O     O_R   0.799650 0.057040 0.080330 -0.504502
O15   O     O_R   0.586130 0.079760 0.077080 -0.501101
O16   O     O_R   0.627700 0.809630 0.066580 -0.504779
O17   O     O_R   0.816140 0.597180 0.075920 -0.506366
O18   O     O_R   0.045360 0.639170 0.081440 -0.491149
O19   O     O_3   0.833980 0.833750 0.001700 -0.279458
O20   O     O_R   0.261360 0.738990 0.584270 -0.511464
O21   O     O_R   0.532590 0.694780 0.574370 -0.504576
O22   O     O_R   0.744470 0.503750 0.577000 -0.528417
O23   O     O_R   0.698520 0.277230 0.571620 -0.498616
O24   O     O_R   0.498530 0.256920 0.419280 -0.510444
O25   O     O_R   0.272880 0.527780 0.428680 -0.498662
O26   O     O_R   0.252780 0.739630 0.423250 -0.510817
Cl1   Cl    Cl    0.934474 0.396739 0.800273 -0.564590
Cl2   Cl    Cl    0.238669 0.397053 0.843768 -0.530981
H30   H     H_    0.648255 0.508651 0.830721 0.174037

loop_
_geom_bond_atom_site_label_1
_geom_bond_atom_site_label_2
_ccdc_geom_bond_type
C1    O12   A    
C7    C10   D    
Cr2   O5    S    
C1    C11   S    
Cr3   O23   S    
C23   O1    A    
Cr1   O5    S    
C6    H29   S    
Cr5   O8    S    
C25   C28   D    
C37   O4    A    
C26   C27   D    
C6    H2    S    
Cr2   O21   S    
C8    C29   S    
C28   H22   S    
C29   O8    A    
Cr4   O7    S    
C36   O2    A    
C33   O16   A    
C38   C39   S    
Cr6   O17   S    
Cr5   O19   S    
Cr3   O4    S    
C18   C19   S    
C21   H18   S    
C11   C15   D    
C18   H12   S    
C32   O15   A    
C20   C24   D    
C3    C38   S    
C8    C9    D    
C34   O25   A    
Cr1   O24   S    
C4    C12   S    
C9    C10   S    
C8    H6    S    
C2    H28   S    
C25   C34   S    
Cr6   O10   S    
C31   O11   A    
C13   C14   D    
C30   O9    A    
C5    H3    S    
C2    C6    S    
C17   C33   S    
C10   H5    S    
C35   O18   A    
Cr1   O12   S    
C21   C32   S    
C34   O26   A    
Cr2   O20   S    
C15   H8    S    
C20   H19   S    
C4    C6    S    
Cr4   O6    S    
C33   O17   A    
C19   H13   S    
Cr3   O5    S    
Cr3   O3    S    
C3    C30   S    
C22   H16   S    
C35   O13   A    
C32   O14   A    
Cr6   O19   S    
C4    C39   S    
C2    H30   S    
C1    O20   A    
C17   C18   D    
C38   H1    S    
Cr1   O25   S    
C30   O10   A    
Cr5   O15   S    
C12   O22   A    
C11   H11   S    
C3    C40   S    
C24   H17   S    
C22   C24   S    
Cr5   O9    S    
C16   H15   S    
C7    H7    S    
Cr2   O26   S    
C37   O24   A    
C40   H26   S    
C39   H21   S    
C13   C31   S    
C9    H4    S    
Cr3   O22   S    
C4    C5    S    
C31   O6    A    
C2    C3    S    
C29   O7    A    
C27   H20   S    
C36   O3    A    
C16   C36   S    
Cr1   O1    S    
C20   C37   S    
C14   Cl2   S    
Cr6   O18   S    
C16   C19   D    
C7    C23   S    
Cr4   O13   S    
C5    H27   S    
Cr5   O16   S    
Cr4   O19   S    
C17   H14   S    
C40   Cl1   S    
C26   C35   S    
C23   O23   A    
C38   H10   S    
Cr2   O2    S    
C5    C40   S    
C27   C28   S    
C26   H23   S    
C39   H25   S    
C14   C15   S    
C12   O21   A    
C25   H24   S    
C13   H9    S    
C21   C22   D    
Cr4   O14   S    
Cr6   O11   S    
