data_mof_unit_24883.cif
_audit_creation_date              2012-12-10T17:14:45-0500
_audit_creation_method            fapswitch 2.2
_symmetry_space_group_name_H-M    P1
_symmetry_Int_Tables_number       1
_space_group_crystal_system       triclinic
_cell_length_a                    10.627419
_cell_length_b                    12.991061
_cell_length_c                    11.758916
_cell_angle_alpha                 100.551841
_cell_angle_beta                  94.517468
_cell_angle_gamma                 91.087523
_cell_volume                      1590.11716031

loop_
_atom_site_label
_atom_site_type_symbol
_atom_type_description
_atom_site_fract_x
_atom_site_fract_y
_atom_site_fract_z
_atom_type_partial_charge
C1    C     C_R   0.498808 0.299061 0.478160 0.800952
C2    C     C_R   0.501192 0.700939 0.521840 0.800952
C3    C     C_R   0.479833 0.139176 0.561519 -0.266676
C4    C     C_R   0.520167 0.860824 0.438481 -0.266676
C5    C     C_R   0.486246 0.031303 0.553004 0.175312
C6    C     C_R   0.513754 0.968697 0.446996 0.175313
C7    C     C_R   0.390203 0.395041 0.015956 -0.315306
C8    C     C_R   0.609797 0.604959 0.984044 -0.315306
C9    C     C_R   0.398934 0.403755 0.137975 0.387199
C10   C     C_R   0.601066 0.596245 0.862025 0.387199
C11   C     C_R   0.545838 0.547062 0.159110 -0.008011
C12   C     C_R   0.454162 0.452938 0.840890 -0.008011
C13   C     C_R   0.539423 0.538284 0.036144 0.024281
C14   C     C_R   0.460577 0.461716 0.963856 0.024281
C15   C     C_R   0.259248 0.499814 0.499571 0.780372
C16   C     C_R   0.740751 0.500185 0.500429 0.780373
C17   C     C_3   0.044087 0.418273 0.544543 -0.169217
C18   C     C_3   0.955913 0.581727 0.455457 -0.169217
C19   C     C_3   0.950041 0.410169 0.435761 -0.164599
C20   C     C_3   0.049959 0.589831 0.564238 -0.164598
C21   C     C_3   0.877740 0.500182 0.501143 0.021196
C22   C     C_3   0.122259 0.499818 0.498857 0.021195
C23   C     C_3   0.969518 0.508295 0.610017 -0.139096
C24   C     C_3   0.030482 0.491704 0.389983 -0.139096
C25   C     C_R   0.498924 0.814589 0.534283 -0.049968
C26   C     C_R   0.501076 0.185411 0.465717 -0.049968
C27   C     C_R   0.534323 0.014922 0.351183 -0.214743
C28   C     C_R   0.465677 0.985078 0.648817 -0.214743
C29   C     C_R   0.528201 0.122964 0.360575 -0.207202
C30   C     C_R   0.471799 0.877036 0.639425 -0.207202
Cu1   Cu    Cu3+1 0.509400 0.507730 0.615930 0.933852
Cu2   Cu    Cu3+1 0.490600 0.492270 0.384070 0.933852
H1    H     H_    0.905988 0.336686 0.383336 0.129925
H2    H     H_    0.094012 0.663314 0.616664 0.129925
H3    H     H_    0.083372 0.351413 0.580857 0.125436
H4    H     H_    0.916628 0.648587 0.419143 0.125436
H5    H     H_    0.941937 0.515164 0.700160 0.139297
H6    H     H_    0.058063 0.484836 0.299840 0.139297
H7    H     H_    0.541575 0.812955 0.357062 0.145011
H8    H     H_    0.458425 0.187045 0.642938 0.145011
H9    H     H_    0.452937 0.842353 0.713572 0.149492
H10   H     H_    0.547063 0.157646 0.286428 0.149492
H11   H     H_    0.555897 0.967718 0.269539 0.133090
H12   H     H_    0.444102 0.032282 0.730461 0.133090
H13   H     H_    0.392686 0.393483 0.785961 0.122436
H14   H     H_    0.607314 0.606517 0.214039 0.122436
H15   H     H_    0.330151 0.334278 0.961068 0.135024
H16   H     H_    0.669849 0.665722 0.038932 0.135024
N1    N     N_R   0.523540 0.519360 0.790140 -0.175881
N2    N     N_R   0.476460 0.480640 0.209860 -0.175881
O1    O     O_R   0.506670 0.354460 0.582000 -0.587569
O2    O     O_R   0.493330 0.645540 0.418000 -0.587569
O3    O     O_R   0.490800 0.341410 0.386200 -0.586819
O4    O     O_R   0.509200 0.658590 0.613800 -0.586820
O5    O     O_R   0.324790 0.506500 0.597880 -0.581858
O6    O     O_R   0.675210 0.493500 0.402120 -0.581858
O7    O     O_R   0.308910 0.493440 0.402080 -0.592189
O8    O     O_R   0.691090 0.506560 0.597920 -0.592189
C31   C     C_3   0.673935 0.679381 0.817736 -0.797699
H17   H     H_    0.746026 0.720528 0.885146 0.177674
H18   H     H_    0.727526 0.647803 0.743875 0.250145
H19   H     H_    0.609533 0.740413 0.796947 0.226139
C32   C     C_3   0.326065 0.320619 0.182264 -0.797699
H20   H     H_    0.253974 0.279472 0.114853 0.177674
H21   H     H_    0.390466 0.259586 0.203053 0.226139
H22   H     H_    0.272474 0.352197 0.256124 0.250145

loop_
_geom_bond_atom_site_label_1
_geom_bond_atom_site_label_2
_ccdc_geom_bond_type
C24   H6    S    
C16   O6    A    
C8    H16   S    
C30   H9    S    
C8    C13   A    
C17   C22   S    
C27   H11   S    
C29   H10   S    
C27   C29   A    
C5    C28   A    
C1    O1    A    
C3    C26   A    
Cu1   Cu2   S    
C17   C23   S    
C4    H7    S    
C3    C5    A    
C20   H2    S    
C18   H4    S    
C32   H21   S    
C19   C24   S    
C32   H22   S    
C31   H17   S    
C11   N2    A    
C9    C32   S    
C13   C14   A    
C15   O7    A    
Cu2   N2    S    
C16   C21   S    
C2    O2    A    
Cu2   O7    S    
Cu1   N1    S    
C18   C24   S    
C5    C6    A    
Cu1   O8    S    
C4    C6    A    
C17   C19   S    
C12   C14   A    
C3    H8    S    
C12   N1    A    
C2    C25   S    
C18   C20   S    
C7    C14   A    
Cu1   O4    S    
C19   H1    S    
C1    C26   S    
C28   H12   S    
C22   C24   S    
C31   H18   S    
C10   N1    A    
C7    H15   S    
C32   H20   S    
C18   C21   S    
C4    C25   A    
Cu2   O3    S    
C11   C13   A    
C28   C30   A    
C26   C29   A    
C8    C10   A    
C2    O4    A    
Cu1   O1    S    
C25   C30   A    
C7    C9    A    
C1    O3    A    
Cu2   O2    S    
C11   H14   S    
C16   O8    A    
C17   H3    S    
Cu1   O5    S    
C23   H5    S    
C20   C23   S    
C10   C31   S    
C21   C23   S    
Cu2   O6    S    
C15   C22   S    
C9    N2    A    
C6    C27   A    
C31   H19   S    
C20   C22   S    
C12   H13   S    
C19   C21   S    
C15   O5    A    
