data_mof_unit_46078.cif
_audit_creation_date              2012-12-11T21:01:31-0500
_audit_creation_method            fapswitch 2.2
_symmetry_space_group_name_H-M    P1
_symmetry_Int_Tables_number       1
_space_group_crystal_system       triclinic
_cell_length_a                    8.282097
_cell_length_b                    18.837347
_cell_length_c                    22.794774
_cell_angle_alpha                 99.765741
_cell_angle_beta                  89.343047
_cell_angle_gamma                 92.460239
_cell_volume                      3501.48070318

loop_
_atom_site_label
_atom_site_type_symbol
_atom_type_description
_atom_site_fract_x
_atom_site_fract_y
_atom_site_fract_z
_atom_type_partial_charge
Ba1   Ba    Ba6+2 0.157800 0.534120 0.474430 1.648464
Ba2   Ba    Ba6+2 0.652390 0.465870 0.525520 1.658209
C1    C     C_3   0.359882 0.704877 0.262479 -0.305519
C2    C     C_R   0.090800 0.905416 0.551921 0.038324
C3    C     C_R   0.243075 0.929480 0.575578 -0.073408
C4    C     C_3   0.915244 0.725391 0.355381 0.344691
C5    C     C_R   0.306310 0.998329 0.570855 -0.078411
C6    C     C_R   0.216679 0.045401 0.543786 0.045063
C7    C     C_R   0.062810 0.022467 0.520422 0.053857
C8    C     C_R   0.278079 0.115243 0.540759 -0.012926
C9    C     C_R   0.185587 0.164753 0.516956 0.012306
C10   C     C_R   0.030430 0.141881 0.493302 0.021378
C11   C     C_R   0.970483 0.070240 0.494374 0.037250
C12   C     C_3   0.394211 0.686069 0.323260 0.320459
C13   C     C_R   0.240533 0.237428 0.518557 0.024354
C14   C     C_R   0.141519 0.285681 0.497277 -0.280904
C15   C     C_R   0.988772 0.264424 0.473625 0.027210
C16   C     C_3   0.928493 0.800420 0.339079 -0.363791
C17   C     C_R   0.934205 0.190708 0.469437 -0.058934
C18   C     C_R   0.848910 0.927898 0.499617 0.007506
C19   C     C_R   0.790356 0.855854 0.500262 -0.007829
C20   C     C_R   0.883887 0.807832 0.526338 -0.057528
C21   C     C_R   0.028827 0.835438 0.555311 -0.045356
C22   C     C_R   0.786492 0.164397 0.442366 -0.056536
C23   C     C_3   0.482179 0.688753 0.621333 0.365461
C24   C     C_R   0.721675 0.094372 0.445314 -0.035444
C25   C     C_R   0.816061 0.046907 0.471278 0.017975
C26   C     C_R   0.756355 0.975690 0.473861 0.027774
C27   C     C_R   0.564448 0.070171 0.423743 -0.025714
C28   C     C_3   0.813669 0.377309 0.344710 0.241474
C29   C     C_R   0.509108 0.999294 0.426604 -0.080924
C30   C     C_R   0.603317 0.952187 0.450803 -0.004004
C31   C     C_R   0.638242 0.832114 0.474572 -0.037284
C32   C     C_R   0.544735 0.881607 0.451779 -0.101915
C33   C     C_R   0.585150 0.759314 0.471522 -0.000942
C34   C     C_3   0.449524 0.768943 0.635318 -0.022594
C35   C     C_R   0.682983 0.711314 0.493482 -0.307118
C36   C     C_R   0.829446 0.733983 0.521786 0.040033
C37   C     C_R   0.646112 0.524926 0.333647 -0.270859
C38   C     C_R   0.375094 0.560774 0.946778 -0.030497
C39   C     C_R   0.321022 0.556865 0.887370 0.592967
C40   C     C_3   0.785766 0.356200 0.277452 -0.258907
C41   C     C_R   0.250261 0.430839 0.880540 0.589876
C42   C     C_R   0.303041 0.432337 0.939351 -0.034299
C43   C     C_R   0.364299 0.497523 0.972865 -0.083787
C44   C     C_R   0.438831 0.625761 0.981120 0.188339
C45   C     C_3   0.853649 0.276187 0.655947 0.219439
C46   C     C_R   0.482165 0.627322 0.040497 -0.097139
C47   C     C_R   0.471671 0.564937 0.066611 -0.025104
C48   C     C_R   0.414841 0.499342 0.032637 -0.080320
C49   C     C_R   0.296465 0.369618 0.965010 -0.090148
C50   C     C_R   0.348430 0.370363 0.023387 0.188260
C51   C     C_R   0.409359 0.435688 0.058154 -0.023235
C52   C     C_3   0.001957 0.631569 0.657875 0.245246
C53   C     C_R   0.467203 0.439460 0.117198 0.635798
C54   C     C_R   0.519258 0.567110 0.126016 0.626662
C55   C     C_2   0.067604 0.472243 0.773406 -0.071943
C56   C     C_3   0.779385 0.208994 0.678120 -0.183071
C57   C     C_3   0.023713 0.480112 0.710394 -0.054402
C58   C     C_1   0.304637 0.510301 0.693838 0.018148
C59   C     C_2   0.346271 0.508896 0.749499 -0.095689
C60   C     C_2   0.221113 0.489158 0.792781 0.208358
C61   C     C_R   0.723063 0.537014 0.232125 -0.081998
C62   C     C_R   0.757864 0.548165 0.293701 -0.097712
C63   C     C_R   0.502838 0.487558 0.313585 -0.007930
C64   C     C_3   0.016257 0.657106 0.725067 -0.249070
C65   C     C_R   0.459655 0.483034 0.253575 -0.147903
C66   C     C_R   0.567437 0.508230 0.212355 0.242964
C67   C     C_3   0.417220 0.315981 0.674795 0.313657
C68   C     C_2   0.170932 0.477258 0.670895 -0.286716
C69   C     C_3   0.287294 0.317841 0.297497 0.480907
C70   C     C_3   0.403479 0.275238 0.253581 -0.393089
C71   C     C_2   0.928585 0.372490 0.240585 0.491704
C72   C     C_2   0.852939 0.657479 0.754299 0.555819
C73   C     C_3   0.174166 0.212400 0.337885 -0.127580
C74   C     C_3   0.691326 0.838049 0.677314 -0.161165
C75   C     C_2   0.026490 0.265992 0.637592 0.501440
C76   C     C_2   0.762878 0.144878 0.629034 0.482888
C77   C     C_2   0.450527 0.117066 0.400088 0.440307
C78   C     C_3   0.371100 0.297423 0.735473 -0.302373
C79   C     C_3   0.185432 0.295552 0.078242 -0.104686
C80   C     C_2   0.851007 0.552011 0.189031 0.553261
C81   C     C_3   0.617586 0.695772 0.927093 -0.113463
C82   C     C_R   0.000975 0.951812 0.523753 0.027481
H1    H     H_    0.315252 0.638731 0.328769 0.113686
H2    H     H_    0.479576 0.312627 0.231600 0.136983
H3    H     H_    0.335351 0.239258 0.217757 0.115095
H4    H     H_    0.480861 0.242059 0.276720 0.110926
H5    H     H_    0.522754 0.672000 0.325004 -0.037110
H6    H     H_    0.344656 0.654624 0.229487 0.117897
H7    H     H_    0.613762 0.681351 0.615583 0.006595
H8    H     H_    0.419598 0.667198 0.578773 0.002398
H9    H     H_    0.482986 0.794736 0.596210 0.005452
H10   H     H_    0.317466 0.774715 0.642933 0.065714
H11   H     H_    0.460896 0.739217 0.248708 0.127444
H12   H     H_    0.749395 0.298039 0.266300 0.138796
H13   H     H_    0.867401 0.839227 0.373364 0.077021
H14   H     H_    0.781968 0.284845 0.617114 0.033691
H15   H     H_    0.852753 0.195899 0.715174 0.153034
H16   H     H_    0.657883 0.220680 0.696338 0.069697
H17   H     H_    0.329352 0.354678 0.664457 -0.001852
H18   H     H_    0.539197 0.341538 0.677604 0.099241
H19   H     H_    0.237854 0.291034 0.739455 0.169718
H20   H     H_    0.414912 0.341857 0.770758 0.102496
H21   H     H_    0.977021 0.727356 0.398696 0.081503
H22   H     H_    0.424698 0.246776 0.742780 0.131034
H23   H     H_    0.686876 0.386964 0.264186 0.013316
H24   H     H_    0.314306 0.894834 0.597292 0.063965
H25   H     H_    0.424970 0.015064 0.589010 0.086083
H26   H     H_    0.183286 0.341395 0.500137 0.086212
H27   H     H_    0.397735 0.130659 0.558060 0.082276
H28   H     H_    0.097765 0.802505 0.579305 0.092356
H29   H     H_    0.722806 0.198825 0.418656 0.084705
H30   H     H_    0.389852 0.980324 0.410153 0.126224
H31   H     H_    0.425726 0.865897 0.433975 0.114640
H32   H     H_    0.784997 0.710295 0.359874 -0.050728
H33   H     H_    0.641492 0.655535 0.490278 0.072599
H34   H     H_    0.123816 0.621421 0.639154 0.028722
H35   H     H_    0.249531 0.319119 0.939754 0.121442
H36   H     H_    0.528774 0.677852 0.065804 0.119185
H37   H     H_    0.468964 0.523760 0.764389 0.103374
H38   H     H_    0.973238 0.460650 0.804280 0.101304
H39   H     H_    0.343656 0.458873 0.238316 0.092990
H40   H     H_    0.676450 0.531306 0.380336 0.079866
H41   H     H_    0.057572 0.818213 0.336429 0.140048
H42   H     H_    0.165700 0.451099 0.624615 0.074424
H43   H     H_    0.870027 0.800101 0.295428 0.126689
H44   H     H_    0.696634 0.391782 0.366183 0.025387
H45   H     H_    0.924864 0.581270 0.648271 0.026121
H46   H     H_    0.900288 0.424424 0.354463 0.047126
H47   H     H_    0.994998 0.423683 0.250630 0.013955
H48   H     H_    0.782242 0.607362 0.752964 -0.018410
H49   H     H_    0.075654 0.256916 0.270855 0.207379
H50   H     H_    0.056056 0.186803 0.347774 0.110499
H51   H     H_    0.238103 0.231216 0.380444 0.124065
H52   H     H_    0.244598 0.171565 0.308684 0.128493
H53   H     H_    0.466598 0.835508 0.718551 0.213460
H54   H     H_    0.754397 0.856224 0.720285 0.144755
H55   H     H_    0.673508 0.885557 0.655440 0.094284
H56   H     H_    0.075183 0.712058 0.733645 0.145040
H57   H     H_    0.768328 0.799747 0.648601 0.119233
H58   H     H_    0.090111 0.307905 0.618435 -0.118135
H59   H     H_    0.693962 0.148055 0.589510 0.016491
H60   H     H_    0.479035 0.173309 0.399132 -0.011740
H61   H     H_    0.360460 0.259833 0.016181 0.192494
H62   H     H_    0.190471 0.247319 0.100098 0.123611
H63   H     H_    0.082286 0.287993 0.046709 0.095111
H64   H     H_    0.166054 0.343331 0.113037 0.172241
H65   H     H_    0.947098 0.592186 0.202275 0.020595
H66   H     H_    0.438775 0.736300 0.985829 0.190045
H67   H     H_    0.094145 0.621488 0.745166 0.024785
H68   H     H_    0.622762 0.744574 0.905708 0.145331
H69   H     H_    0.634951 0.647963 0.892016 0.132650
H70   H     H_    0.717068 0.700366 0.960022 0.075521
H71   H     H_    0.242888 0.360885 0.274970 0.019418
H72   H     H_    0.246427 0.734362 0.263572 0.147707
N1    N     N_R   0.263352 0.492213 0.854846 -0.433396
N2    N     N_R   0.516973 0.504858 0.150824 -0.412358
N3    N     N_2   0.147529 0.272240 0.307779 -0.416037
N4    N     N_2   0.536919 0.803566 0.688028 -0.381422
N5    N     N_2   0.335349 0.304971 0.046834 -0.395678
N6    N     N_2   0.462775 0.689962 0.956395 -0.384245
O1    O     O_2   0.110690 0.676100 0.539200 -0.471786
O2    O     O_2   0.696487 0.451359 0.700381 -0.506163
O3    O     O_3   0.847333 0.335255 0.702838 -0.616718
O4    O     O_3   0.863220 0.586720 0.534720 -0.475934
O5    O     O_3   0.450900 0.461390 0.429220 -0.456554
O6    O     O_2   0.599830 0.538970 0.641850 -0.458513
O7    O     O_3   0.423587 0.655015 0.668246 -0.624718
O8    O     O_2   0.579385 0.245068 0.531701 -0.527692
O9    O     O_3   0.418573 0.253295 0.631556 -0.595813
O10   O     O_2   0.322251 0.611177 0.864694 -0.562271
O11   O     O_2   0.193226 0.374750 0.852044 -0.602195
O12   O     O_3   0.366205 0.344723 0.352340 -0.621796
O13   O     O_2   0.476411 0.384479 0.138430 -0.579547
O14   O     O_2   0.564899 0.624579 0.155602 -0.627722
O15   O     O_3   0.368310 0.629070 0.432760 -0.485233
O16   O     O_2   0.248404 0.755955 0.474591 -0.492794
O17   O     O_3   0.934269 0.686202 0.633317 -0.645116
O18   O     O_3   0.360388 0.745250 0.367200 -0.609753
O19   O     O_2   0.210480 0.460990 0.358130 -0.471948
O20   O     O_3   0.959520 0.592090 0.401630 -0.477690
O21   O     O_2   0.096642 0.546803 0.296902 -0.523182
O22   O     O_2   0.967411 0.328990 0.197371 -0.602769
O23   O     O_3   0.990051 0.676791 0.310751 -0.609081
O24   O     O_2   0.798751 0.713804 0.779735 -0.562200
O25   O     O_2   0.096801 0.212473 0.644826 -0.574573
O26   O     O_2   0.825950 0.088662 0.633475 -0.561531
O27   O     O_2   0.317724 0.092824 0.382042 -0.621801
O28   O     O_2   0.853390 0.517983 0.138443 -0.578177
O29   O     O_2   0.699610 0.323860 0.460780 -0.459128
O30   O     O_3   0.947090 0.413280 0.465240 -0.474632
O31   O     O_3   0.442000 0.370930 0.567190 -0.477934
O32   O     O_3   0.870400 0.318012 0.366376 -0.623165
O33   O     O_3   0.359410 0.538600 0.570730 -0.479602
O34   O     O_3   0.850780 0.407910 0.598320 -0.491308
P1    P     P_3+3 0.935930 0.665430 0.555670 0.976380
P2    P     P_3+3 0.382700 0.439650 0.365620 0.997308
P3    P     P_3+3 0.951370 0.589265 0.324984 0.911679
P4    P     P_3+3 0.874370 0.334570 0.444280 1.016562
P5    P     P_3+3 0.856586 0.418202 0.676657 0.932178
P6    P     P_3+3 0.391125 0.722348 0.437407 0.932668
P7    P     P_3+3 0.419010 0.561350 0.645343 0.960169
P8    P     P_3+3 0.422639 0.276962 0.560209 0.953418

loop_
_geom_bond_atom_site_label_1
_geom_bond_atom_site_label_2
_ccdc_geom_bond_type
C71   H47   S    
C72   H48   S    
O3    P5    S    
Ba1   P2    S    
C13   P8    S    
C73   H50   S    
C14   H26   S    
C55   C60   D    
C46   H36   S    
C81   H70   S    
C67   H18   S    
C42   C43   A    
C38   C44   A    
C37   C62   A    
C4    O23   S    
C24   C25   A    
C45   H14   S    
C54   O14   D    
C1    H6    S    
Ba2   P4    S    
Ba1   O4    S    
C57   C68   S    
C33   C35   A    
Ba2   O30   S    
Ba2   O33   S    
O18   P6    S    
C16   H41   S    
C45   O3    S    
C73   H51   S    
C55   C57   S    
O33   P7    S    
Ba1   O5    S    
C23   O7    S    
C13   C14   A    
C20   C36   A    
C78   H22   S    
C52   O17   S    
C15   P4    S    
C59   H37   S    
Ba1   Ba2   S    
C67   O9    S    
O9    P8    S    
C7    C11   A    
C75   H58   S    
C54   N2    Am   
C15   C17   A    
C55   H38   S    
Ba1   O15   S    
C34   H9    S    
C4    H21   S    
C53   N2    Am   
O32   P4    S    
C77   H60   S    
C14   C15   A    
C63   C65   A    
C2    C82   A    
C49   H35   S    
C16   H13   S    
C40   H23   S    
Ba2   O4    S    
C29   H30   S    
O8    P8    D    
C35   H33   S    
C50   N5    S    
C74   H57   S    
C68   H42   S    
C22   H29   S    
C19   C20   A    
C80   O28   D    
C37   C63   A    
C9    C13   A    
C28   C40   S    
C65   C66   A    
C66   N2    S    
O19   P2    D    
C70   H4    S    
C44   C46   A    
C51   C53   A    
C38   C43   A    
H66   N6    S    
C39   O10   D    
C28   H44   S    
C4    C16   S    
C23   H7    S    
C48   C51   A    
O12   P2    S    
O20   P3    S    
C78   H19   S    
C49   C50   A    
C26   C30   A    
C56   H16   S    
O29   P4    D    
C8    C9    A    
C3    C5    A    
C2    C21   A    
Ba1   O19   S    
C73   H52   S    
C6    C7    A    
C61   C80   S    
C79   H63   S    
C32   H31   S    
C28   H46   S    
O21   P3    D    
C37   H40   S    
C5    H25   S    
C58   C59   D    
H49   N3    S    
C30   C32   A    
C53   O13   D    
C41   C42   A    
C12   H5    S    
C35   C36   A    
C21   H28   S    
C60   N1    S    
C16   H43   S    
O7    P7    S    
C57   P5    S    
C58   P7    S    
C29   C30   A    
C27   C77   S    
C58   C68   D    
C52   H34   S    
C9    C10   A    
C79   H64   S    
C69   H71   S    
C31   C32   A    
C36   P1    S    
C64   H56   S    
C8    H27   S    
O23   P3    S    
O31   P8    S    
C4    H32   S    
C1    C12   S    
Ba2   O29   S    
C39   N1    Am   
C42   C49   A    
C38   C39   A    
C81   N6    S    
C78   H20   S    
C47   C48   A    
C34   N4    S    
C74   H54   S    
O16   P6    D    
C44   N6    S    
C75   O25   D    
C40   H12   S    
C76   O26   D    
C45   C75   S    
C18   C26   A    
Ba2   O6    S    
C70   H3    S    
C69   N3    S    
C50   C51   A    
C81   H68   S    
C74   H55   S    
C73   N3    S    
C71   O22   D    
C52   H45   S    
C61   C66   A    
C46   C47   A    
C23   H8    S    
H53   N4    S    
Ba1   O33   S    
C23   C34   S    
O15   P6    S    
C79   N5    S    
Ba1   P1    S    
C56   H15   S    
C12   H1    S    
C22   C24   A    
C2    C3    A    
C41   N1    Am   
C65   H39   S    
C70   H2    S    
Ba1   O20   S    
C69   O12   S    
C33   P6    S    
C52   C64   S    
O1    P1    D    
C67   H17   S    
C47   C54   A    
O17   P1    S    
O6    P7    D    
Ba2   O31   S    
C18   C82   A    
C17   C22   A    
O4    P1    S    
C64   H67   S    
C27   C29   A    
C76   H59   S    
C45   C56   S    
C41   O11   D    
C81   H69   S    
C28   O32   S    
C74   N4    S    
H61   N5    S    
C43   C48   A    
C10   C17   A    
C61   C62   A    
C1    H72   S    
C31   C33   A    
O5    P2    S    
Ba2   O34   S    
O30   P4    S    
C40   C71   S    
C59   C60   S    
C80   H65   S    
C5    C6    A    
O2    P5    D    
C56   C76   S    
C7    C82   A    
C63   P2    S    
Ba1   O30   S    
C34   H10   S    
C69   C70   S    
C19   C31   A    
C18   C19   A    
Ba1   O1    S    
C24   C27   A    
C6    C8    A    
C79   H62   S    
C77   O27   D    
C62   P3    S    
C25   C26   A    
C20   C21   A    
C11   C25   A    
C67   C78   S    
C1    H11   S    
C10   C11   A    
O34   P5    S    
Ba2   O5    S    
C12   O18   S    
C72   O24   D    
C3    H24   S    
C64   C72   S    
