data_mof_unit_14334.cif
_audit_creation_date              2012-12-11T15:28:50-0500
_audit_creation_method            fapswitch 2.2
_symmetry_space_group_name_H-M    P1
_symmetry_Int_Tables_number       1
_space_group_crystal_system       triclinic
_cell_length_a                    29.879297
_cell_length_b                    17.180785
_cell_length_c                    19.498797
_cell_angle_alpha                 90.000128
_cell_angle_beta                  140.007438
_cell_angle_gamma                 89.999816
_cell_volume                      6433.11765326

loop_
_atom_site_label
_atom_site_type_symbol
_atom_type_description
_atom_site_fract_x
_atom_site_fract_y
_atom_site_fract_z
_atom_type_partial_charge
Br1   Br    Br    0.028598 0.300662 0.239748 -0.565366
Br2   Br    Br    0.967710 0.704042 0.751246 -0.593755
Br3   Br    Br    0.981010 0.308467 0.777082 -0.566654
Br4   Br    Br    0.024560 0.685801 0.227052 -0.577827
Br5   Br    Br    0.518997 0.808477 0.222921 -0.566641
Br6   Br    Br    0.475444 0.185783 0.772958 -0.577819
Br7   Br    Br    0.471410 0.800655 0.760265 -0.565365
Br8   Br    Br    0.532293 0.204065 0.248774 -0.593783
C1    C     C_R   0.187203 0.401349 0.801514 -0.154369
C2    C     C_R   0.837300 0.705971 0.520301 -0.006162
C3    C     C_R   0.825607 0.730353 0.063151 -0.149231
C4    C     C_R   0.313980 0.748035 0.077900 -0.138321
C5    C     C_R   0.674398 0.230350 0.936850 -0.149228
C6    C     C_R   0.683081 0.746881 0.918365 -0.136325
C7    C     C_R   0.326261 0.223735 0.056441 -0.136163
C8    C     C_R   0.784187 0.280456 0.100196 0.125361
C9    C     C_R   0.204872 0.692260 0.921432 0.112876
C10   C     C_R   0.216925 0.279958 0.899767 0.126865
C11   C     C_R   0.792724 0.697877 0.081903 0.140935
C12   C     C_R   0.283075 0.779958 0.100232 0.126868
C13   C     C_R   0.849633 0.306437 0.547317 -0.006413
C14   C     C_R   0.707280 0.197883 0.918094 0.140941
C15   C     C_R   0.715814 0.780453 0.899802 0.125360
C16   C     C_R   0.295128 0.192255 0.078565 0.112873
C17   C     C_3   0.088257 0.772127 0.705564 -0.459723
C18   C     C_3   0.057815 0.797448 0.601009 -0.263551
C19   C     C_3   0.044027 0.884914 0.583406 -0.927586
C20   C     C_3   0.917315 0.223105 0.334125 -0.492391
C21   C     C_3   0.869013 0.182790 0.329254 -0.221010
C22   C     C_3   0.897614 0.103876 0.385064 -0.915744
C23   C     C_3   0.909111 0.775251 0.305962 -0.473206
C24   C     C_R   0.153661 0.693172 0.457528 -0.008976
C25   C     C_3   0.870466 0.808042 0.323423 -0.274402
C26   C     C_3   0.791950 0.815493 0.221053 -0.799849
C27   C     C_3   0.082067 0.223105 0.667527 -0.491608
C28   C     C_3   0.129434 0.181323 0.671379 -0.223664
C29   C     C_3   0.099542 0.102660 0.615142 -0.916578
C30   C     C_3   0.590879 0.275253 0.694032 -0.473217
C31   C     C_3   0.629526 0.308065 0.676585 -0.274343
C32   C     C_3   0.708041 0.315524 0.778963 -0.799820
C33   C     C_3   0.417932 0.723105 0.332474 -0.491608
C34   C     C_3   0.370566 0.681329 0.328628 -0.223665
C35   C     C_R   0.650370 0.806434 0.452689 -0.006417
C36   C     C_3   0.400455 0.602665 0.384862 -0.916564
C37   C     C_3   0.411750 0.272122 0.294429 -0.459707
C38   C     C_3   0.442190 0.297454 0.398980 -0.263572
C39   C     C_3   0.456019 0.384912 0.416602 -0.927595
C40   C     C_3   0.582686 0.723105 0.665872 -0.492394
C41   C     C_3   0.630986 0.682791 0.670740 -0.221011
C42   C     C_3   0.602385 0.603879 0.614928 -0.915741
C43   C     C_R   0.346343 0.193165 0.542482 -0.008983
C44   C     C_R   0.341832 0.796268 0.529232 -0.006422
C45   C     C_R   0.662708 0.205978 0.479718 -0.006160
C46   C     C_R   0.831807 0.754813 0.629020 -0.257126
C47   C     C_R   0.164686 0.248064 0.363065 -0.258230
C48   C     C_R   0.160299 0.739357 0.349206 -0.257585
C49   C     C_R   0.818119 0.588837 0.190736 -0.166129
C50   C     C_R   0.844859 0.258368 0.657367 -0.258428
C51   C     C_R   0.339706 0.239342 0.650807 -0.257586
C52   C     C_R   0.655149 0.758372 0.342644 -0.258432
C53   C     C_R   0.668196 0.254827 0.370996 -0.257120
C54   C     C_R   0.335321 0.748062 0.636947 -0.258229
C55   C     C_R   0.870918 0.724954 0.621453 0.349391
C56   C     C_R   0.125141 0.278419 0.369773 0.349780
C57   C     C_R   0.120788 0.709359 0.356306 0.349127
C58   C     C_R   0.883736 0.288286 0.648949 0.349786
C59   C     C_R   0.379217 0.209346 0.643706 0.349126
C60   C     C_R   0.812929 0.401492 0.198285 -0.152377
C61   C     C_R   0.616270 0.788288 0.351057 0.349788
C62   C     C_R   0.629086 0.224968 0.378565 0.349390
C63   C     C_R   0.374866 0.778419 0.630240 0.349780
C64   C     C_R   0.766353 0.719427 0.427525 -0.297249
C65   C     C_R   0.228578 0.280609 0.564024 -0.298976
C66   C     C_R   0.224138 0.708704 0.550392 -0.295404
C67   C     C_R   0.778878 0.292128 0.455366 -0.299265
C68   C     C_R   0.275868 0.208703 0.449619 -0.295404
C69   C     C_R   0.721124 0.792119 0.544643 -0.299267
C70   C     C_R   0.733656 0.219428 0.572492 -0.297241
C71   C     C_R   0.179724 0.585600 0.810552 -0.141153
C72   C     C_R   0.271428 0.780619 0.435990 -0.298979
C73   C     C_R   0.727036 0.747872 0.434885 0.142968
C74   C     C_R   0.268274 0.251741 0.557655 0.145113
C75   C     C_R   0.263871 0.736326 0.543735 0.142884
C76   C     C_R   0.739891 0.264785 0.463398 0.144438
C77   C     C_R   0.236135 0.236323 0.456278 0.142883
C78   C     C_R   0.760113 0.764776 0.536615 0.144440
C79   C     C_R   0.772971 0.247874 0.565129 0.142966
C80   C     C_R   0.231732 0.751751 0.442359 0.145112
C81   C     C_R   0.845585 0.594606 0.450113 -0.118650
C82   C     C_R   0.687071 0.901492 0.801715 -0.152373
C83   C     C_R   0.152432 0.406358 0.545563 -0.127692
C84   C     C_R   0.149126 0.588245 0.538061 -0.120450
C85   C     C_R   0.852415 0.412008 0.464895 -0.127191
C86   C     C_R   0.350877 0.088243 0.461944 -0.120452
C87   C     C_R   0.647586 0.912008 0.535106 -0.127191
C88   C     C_R   0.654419 0.094609 0.549896 -0.118644
C89   C     C_R   0.347572 0.906362 0.454446 -0.127700
C90   C     C_R   0.937841 0.324663 0.557712 -0.115202
C91   C     C_R   0.063646 0.675078 0.443688 -0.129852
C92   C     C_R   0.065930 0.320232 0.450580 -0.107113
C93   C     C_R   0.320277 0.085598 0.189447 -0.141158
C94   C     C_R   0.930447 0.682034 0.542571 -0.120662
C95   C     C_R   0.434074 0.820236 0.549429 -0.107123
C96   C     C_R   0.569559 0.182040 0.457444 -0.120640
C97   C     C_R   0.562160 0.824662 0.442289 -0.115202
C98   C     C_R   0.436356 0.175075 0.556317 -0.129843
C99   C     C_R   0.101707 0.685392 0.724672 0.175603
C100  C     C_R   0.892615 0.304538 0.289595 0.159166
C101  C     C_R   0.895569 0.689280 0.278539 0.207010
C102  C     C_R   0.107334 0.304695 0.710958 0.156892
C103  C     C_R   0.604433 0.189283 0.721459 0.207014
C104  C     C_R   0.312797 0.901349 0.198486 -0.154370
C105  C     C_R   0.392666 0.804696 0.289042 0.156890
C106  C     C_R   0.398294 0.185389 0.275325 0.175619
C107  C     C_R   0.607385 0.804538 0.710404 0.159164
C108  C     C_R   0.174153 0.325583 0.806173 0.001944
C109  C     C_R   0.833867 0.659933 0.180274 0.026137
C110  C     C_R   0.825931 0.325444 0.194075 -0.000947
C111  C     C_R   0.162415 0.654171 0.822613 -0.001008
C112  C     C_R   0.674069 0.825443 0.805924 -0.000944
C113  C     C_R   0.337586 0.154167 0.177384 -0.001012
C114  C     C_R   0.325848 0.825584 0.193827 0.001945
C115  C     C_R   0.681885 0.088841 0.809262 -0.166132
C116  C     C_R   0.666138 0.159939 0.819723 0.026136
C117  C     C_R   0.871948 0.661174 0.509679 0.133913
C118  C     C_R   0.124015 0.341283 0.482209 0.132799
C119  C     C_R   0.119574 0.650730 0.470929 0.150011
C120  C     C_R   0.882794 0.349250 0.532559 0.142149
C121  C     C_R   0.380430 0.150724 0.529079 0.150012
C122  C     C_R   0.617208 0.849249 0.467443 0.142149
C123  C     C_R   0.628060 0.161181 0.490339 0.133894
C124  C     C_R   0.375991 0.841289 0.517805 0.132815
C125  C     C_R   0.778506 0.204091 0.991124 -0.187006
C126  C     C_R   0.158174 0.296262 0.470782 -0.006422
C127  C     C_R   0.213208 0.768407 0.033804 -0.193187
C128  C     C_R   0.225128 0.203201 0.011342 -0.173861
C129  C     C_R   0.786806 0.772509 0.971343 -0.186996
C130  C     C_R   0.274874 0.703200 0.988659 -0.173861
C131  C     C_R   0.713197 0.272506 0.028658 -0.187003
C132  C     C_R   0.721498 0.704079 0.008870 -0.186989
C133  C     C_R   0.286791 0.268400 0.966191 -0.193192
C134  C     C_R   0.816922 0.246891 0.081631 -0.136330
C135  C     C_R   0.173738 0.723745 0.943551 -0.136158
C136  C     C_R   0.186022 0.248038 0.922103 -0.138319
H1    H     H_    0.237563 0.429199 0.858966 0.105593
H2    H     H_    0.202236 0.432559 0.592808 0.100241
H3    H     H_    0.406997 0.417507 0.349661 0.273918
H4    H     H_    0.476605 0.401963 0.491804 0.250814
H5    H     H_    0.405327 0.282438 0.397637 0.206847
H6    H     H_    0.491465 0.265980 0.465624 0.194825
H7    H     H_    0.444737 0.290590 0.289467 0.205342
H8    H     H_    0.361516 0.303524 0.229079 0.206775
H9    H     H_    0.591541 0.566730 0.647591 0.266283
H10   H     H_    0.553956 0.611662 0.527819 0.263091
H11   H     H_    0.641253 0.573923 0.627680 0.258088
H12   H     H_    0.637365 0.720080 0.632029 0.197496
H13   H     H_    0.197719 0.560115 0.582592 0.099902
H14   H     H_    0.683121 0.673704 0.755329 0.212009
H15   H     H_    0.579820 0.688410 0.710424 0.198002
H16   H     H_    0.529817 0.726032 0.581783 0.191630
H17   H     H_    0.804325 0.440430 0.422262 0.102701
H18   H     H_    0.302283 0.060112 0.417414 0.099903
H19   H     H_    0.695675 0.940429 0.577738 0.102703
H20   H     H_    0.704158 0.067808 0.597859 0.096853
H21   H     H_    0.297768 0.932562 0.407202 0.100240
H22   H     H_    0.969108 0.273547 0.602751 0.124019
H23   H     H_    0.033026 0.725714 0.397425 0.119908
H24   H     H_    0.035392 0.268261 0.407886 0.121796
H25   H     H_    0.769883 0.557110 0.129580 0.110655
H26   H     H_    0.956542 0.736802 0.576931 0.124242
H27   H     H_    0.464613 0.768265 0.592124 0.121801
H28   H     H_    0.543471 0.236812 0.423097 0.124247
H29   H     H_    0.530893 0.773546 0.397251 0.124015
H30   H     H_    0.466976 0.225711 0.602583 0.119905
H31   H     H_    0.803502 0.179089 0.975772 0.130948
H32   H     H_    0.189884 0.793496 0.051935 0.137313
H33   H     H_    0.201799 0.180033 0.030271 0.135040
H34   H     H_    0.811589 0.798729 0.956185 0.137495
H35   H     H_    0.298204 0.680029 0.969733 0.135037
H36   H     H_    0.762829 0.429975 0.139951 0.104865
H37   H     H_    0.688414 0.298718 0.043819 0.137498
H38   H     H_    0.696501 0.679071 0.024219 0.130943
H39   H     H_    0.310114 0.293486 0.948056 0.137316
H40   H     H_    0.871898 0.255305 0.136027 0.158644
H41   H     H_    0.119046 0.714755 0.890066 0.182148
H42   H     H_    0.131972 0.259082 0.871405 0.160093
H43   H     H_    0.881116 0.724027 0.120331 0.172103
H44   H     H_    0.368030 0.759075 0.128601 0.160084
H45   H     H_    0.618889 0.224018 0.879673 0.172098
H46   H     H_    0.628104 0.755290 0.863967 0.158638
H47   H     H_    0.227976 0.553978 0.871862 0.109129
H48   H     H_    0.380952 0.214741 0.109923 0.182155
H49   H     H_    0.252924 0.294124 0.641447 0.141602
H50   H     H_    0.741461 0.704612 0.350032 0.144915
H51   H     H_    0.753616 0.305347 0.377238 0.141728
H52   H     H_    0.248553 0.696415 0.628122 0.144772
H53   H     H_    0.746382 0.805335 0.622770 0.141729
H54   H     H_    0.251453 0.196419 0.371888 0.144772
H55   H     H_    0.247081 0.794138 0.358568 0.141603
H56   H     H_    0.758550 0.204607 0.649985 0.144913
H57   H     H_    0.364300 0.251320 0.728595 0.169169
H58   H     H_    0.737170 0.929976 0.860049 0.104864
H59   H     H_    0.629703 0.744989 0.264572 0.169920
H60   H     H_    0.643029 0.268236 0.293096 0.169206
H61   H     H_    0.359899 0.735540 0.714623 0.169902
H62   H     H_    0.856972 0.768216 0.706919 0.169206
H63   H     H_    0.140108 0.235548 0.285388 0.169903
H64   H     H_    0.135705 0.751340 0.271420 0.169168
H65   H     H_    0.870308 0.244981 0.735439 0.169919
H66   H     H_    0.005113 0.900858 0.577467 0.264177
H67   H     H_    0.093068 0.917484 0.650342 0.273918
H68   H     H_    0.023430 0.901953 0.508193 0.250817
H69   H     H_    0.272024 0.053977 0.128137 0.109132
H70   H     H_    0.094665 0.782393 0.602334 0.206848
H71   H     H_    0.008524 0.766000 0.534365 0.194823
H72   H     H_    0.055272 0.790608 0.710527 0.205310
H73   H     H_    0.138493 0.803523 0.770910 0.206788
H74   H     H_    0.908459 0.066729 0.352401 0.266285
H75   H     H_    0.946042 0.111659 0.472173 0.263090
H76   H     H_    0.858746 0.073920 0.372308 0.258089
H77   H     H_    0.862634 0.220077 0.367965 0.197496
H78   H     H_    0.816879 0.173704 0.244664 0.212010
H79   H     H_    0.920181 0.188411 0.289572 0.198005
H80   H     H_    0.262437 0.929199 0.141035 0.105591
H81   H     H_    0.970182 0.226031 0.418214 0.191628
H82   H     H_    0.779985 0.844504 0.157480 0.263514
H83   H     H_    0.767022 0.757342 0.193688 0.248045
H84   H     H_    0.769594 0.850980 0.237003 0.241991
H85   H     H_    0.880565 0.771268 0.380839 0.198115
H86   H     H_    0.891430 0.867027 0.359085 0.201780
H87   H     H_    0.964730 0.785920 0.380001 0.155199
H88   H     H_    0.895072 0.809385 0.243211 0.199824
H89   H     H_    0.087782 0.066839 0.647311 0.268690
H90   H     H_    0.051399 0.110914 0.528028 0.263475
H91   H     H_    0.730120 0.057115 0.870416 0.110657
H92   H     H_    0.138002 0.071121 0.628113 0.260170
H93   H     H_    0.136067 0.217817 0.632534 0.197011
H94   H     H_    0.181586 0.171610 0.755732 0.212148
H95   H     H_    0.079904 0.189607 0.713612 0.198361
H96   H     H_    0.028810 0.225767 0.583831 0.192143
H97   H     H_    0.720002 0.344510 0.842544 0.263502
H98   H     H_    0.732978 0.257379 0.806318 0.248033
H99   H     H_    0.730397 0.351037 0.763028 0.241985
H100  H     H_    0.619431 0.271305 0.619162 0.198098
H101  H     H_    0.608557 0.367049 0.640925 0.201764
H102  H     H_    0.795846 0.567807 0.402150 0.096855
H103  H     H_    0.535260 0.285913 0.619984 0.155196
H104  H     H_    0.604905 0.309381 0.756775 0.199818
H105  H     H_    0.412206 0.566839 0.352683 0.268680
H106  H     H_    0.448603 0.610916 0.471975 0.263472
H107  H     H_    0.361997 0.571132 0.371901 0.260171
H108  H     H_    0.363939 0.717826 0.367478 0.197011
H109  H     H_    0.318412 0.671619 0.244276 0.212147
H110  H     H_    0.420092 0.689603 0.286386 0.198360
H111  H     H_    0.471190 0.725766 0.416168 0.192142
H112  H     H_    0.494955 0.400812 0.422574 0.264173
N1    N     N_R   0.127770 0.430660 0.707120 -0.041969
N2    N     N_R   0.110270 0.426120 0.547030 -0.042778
N3    N     N_R   0.110270 0.573880 0.547030 -0.043953
N4    N     N_R   0.889730 0.426120 0.452970 -0.045233
N5    N     N_R   0.389730 0.073880 0.452970 -0.043953
N6    N     N_R   0.610270 0.926120 0.547030 -0.045234
N7    N     N_R   0.610270 0.073880 0.547030 -0.041057
N8    N     N_R   0.389730 0.926120 0.452970 -0.042778
N9    N     N_R   0.941150 0.372910 0.507880 -0.053893
N10   N     N_R   0.058850 0.627090 0.492120 -0.056803
N11   N     N_R   0.058850 0.372910 0.492120 -0.051835
N12   N     N_R   0.872230 0.569340 0.292880 -0.045536
N13   N     N_R   0.941150 0.627090 0.507880 -0.051833
N14   N     N_R   0.441150 0.872910 0.507880 -0.051838
N15   N     N_R   0.558850 0.127090 0.492120 -0.051829
N16   N     N_R   0.558850 0.872910 0.492120 -0.053893
N17   N     N_R   0.441150 0.127090 0.507880 -0.056802
N18   N     N_R   0.076340 0.631640 0.652210 -0.057846
N19   N     N_R   0.923660 0.368360 0.347790 -0.054893
N20   N     N_R   0.923660 0.631640 0.347790 -0.065389
N21   N     N_R   0.076340 0.368360 0.652210 -0.055144
N22   N     N_R   0.576340 0.131640 0.652210 -0.065394
N23   N     N_R   0.872230 0.430660 0.292880 -0.041374
N24   N     N_R   0.423660 0.868360 0.347790 -0.055144
N25   N     N_R   0.423660 0.131640 0.347790 -0.057851
N26   N     N_R   0.576340 0.868360 0.652210 -0.054893
N27   N     N_R   0.127770 0.569340 0.707120 -0.048082
N28   N     N_R   0.627770 0.930660 0.707120 -0.041374
N29   N     N_R   0.372230 0.069340 0.292880 -0.048083
N30   N     N_R   0.372230 0.930660 0.292880 -0.041969
N31   N     N_R   0.627770 0.069340 0.707120 -0.045537
N32   N     N_R   0.889730 0.573880 0.452970 -0.041058
Ni1   Ni    Ni4+2 0.119340 0.500000 0.625930 0.214857
Ni2   Ni    Ni4+2 0.880660 0.500000 0.374070 0.215245
Ni3   Ni    Ni4+2 0.619340 0.000000 0.625930 0.215245
Ni4   Ni    Ni4+2 0.380660 0.000000 0.374070 0.214857
Ni5   Ni    Ni4+2 0.000000 0.373980 0.500000 0.215679
Ni6   Ni    Ni4+2 0.000000 0.626020 0.500000 0.209071
Ni7   Ni    Ni4+2 0.500000 0.873980 0.500000 0.215678
Ni8   Ni    Ni4+2 0.500000 0.126020 0.500000 0.209074

loop_
_geom_bond_atom_site_label_1
_geom_bond_atom_site_label_2
_ccdc_geom_bond_type
C53   C62   A    
C70   C79   A    
C98   C121  A    
C134  H40   S    
C54   C75   A    
C84   C119  A    
C91   N10   A    
N1    N21   A    
C83   C118  A    
C65   H49   S    
C13   C58   A    
C23   C101  S    
C104  H80   S    
C33   C34   S    
N13   N32   A    
C17   H73   S    
C2    C55   A    
C51   C74   A    
C66   C75   A    
C7    H48   S    
C100  N19   A    
C50   C79   A    
C93   C113  A    
C43   C121  S    
C101  C109  A    
C115  C116  A    
C60   N23   A    
C81   C117  A    
C37   C38   S    
N27   Ni1   S    
C21   H77   S    
N9    Ni5   S    
C40   H16   S    
N29   Ni4   S    
C3    C11   A    
C125  C134  A    
C39   H4    S    
C34   C36   S    
C104  N30   A    
C92   C118  A    
C5    C131  A    
C24   C119  S    
C22   H76   S    
C28   C29   S    
C94   N13   A    
C42   H10   S    
C26   H84   S    
C1    N1    A    
N25   Ni8   S    
Br7   C63   S    
Br4   C57   S    
C128  C136  A    
C89   H21   S    
N26   Ni7   S    
C48   C80   A    
N5    N17   A    
C46   C55   A    
C45   C62   A    
C42   H9    S    
C71   N27   A    
C48   C57   A    
C4    H44   S    
N5    Ni4   S    
C52   C61   A    
C38   H5    S    
N24   Ni7   S    
C5    H45   S    
N6    Ni3   S    
C18   H70   S    
N8    Ni4   S    
C1    H1    S    
N11   Ni5   S    
C99   N18   A    
N2    N11   A    
C16   C113  S    
Br5   C61   S    
N19   Ni5   S    
C89   N8    A    
C60   C110  A    
N14   Ni7   S    
C7    C133  A    
C106  C113  A    
C37   C106  S    
C50   C58   A    
C87   N6    A    
C105  C114  A    
C27   C28   S    
N28   Ni3   S    
C93   H69   S    
C11   C132  A    
C46   H62   S    
C96   C123  A    
C23   H87   S    
C5    C14   A    
C87   C122  A    
C23   C25   S    
C9    C130  A    
C45   C123  S    
C106  N25   A    
C101  N20   A    
C2    C117  S    
C95   C124  A    
C86   H18   S    
C54   H61   S    
C12   C114  S    
C64   C73   A    
C131  H37   S    
C92   N11   A    
C67   H51   S    
C22   H74   S    
C102  N21   A    
C51   C59   A    
C94   C117  A    
C97   N16   A    
N7    N15   A    
C75   C80   A    
C26   H83   S    
N22   Ni8   S    
C35   C61   A    
C31   H101  S    
C97   H29   S    
C23   H88   S    
C95   H27   S    
C135  H41   S    
C4    C12   A    
C98   N17   A    
C70   H56   S    
C25   H85   S    
C130  H35   S    
C99   C111  A    
N3    N10   A    
C91   H23   S    
C10   C133  A    
C107  N26   A    
C28   H94   S    
C21   H78   S    
C40   H15   S    
C56   C126  A    
C86   C121  A    
N22   N31   A    
C129  H34   S    
C14   C125  A    
C82   N28   A    
C44   C124  S    
C95   N14   A    
C100  C110  A    
C29   H90   S    
C27   H95   S    
C43   C68   A    
C49   N12   A    
C9    C135  A    
C10   C108  S    
C15   C112  S    
C46   C78   A    
Br3   C58   S    
C136  H42   S    
C34   H109  S    
C17   C18   S    
C72   H55   S    
N6    N16   A    
C128  H33   S    
C60   H36   S    
C19   H66   S    
C132  H38   S    
C88   H20   S    
C71   C111  A    
C84   H13   S    
C133  H39   S    
N17   Ni8   S    
C82   C112  A    
C6    C15   A    
C47   C77   A    
N19   N23   A    
C103  N22   A    
C104  C114  A    
C21   C22   S    
C8    C110  S    
C85   N4    A    
N20   Ni6   S    
C52   C73   A    
C51   H57   S    
C36   H107  S    
C82   H58   S    
C48   H64   S    
N10   Ni6   S    
C85   H17   S    
C42   H11   S    
N23   Ni2   S    
C30   H104  S    
C47   C56   A    
N12   N20   A    
C19   H67   S    
C25   C26   S    
C98   H30   S    
C73   C78   A    
C93   N29   A    
C43   C59   A    
C13   C120  S    
C29   H89   S    
C125  H31   S    
C105  N24   A    
C118  C126  S    
N13   Ni6   S    
C90   H22   S    
C27   C102  S    
C115  N31   A    
N26   N28   A    
C8    C134  A    
C115  H91   S    
N2    Ni1   S    
C36   H106  S    
C7    C16   A    
C38   H6    S    
C6    C132  A    
C81   H102  S    
C41   C42   S    
C88   N7    A    
C40   C107  S    
C18   C19   S    
C10   C136  A    
C4    C130  A    
C41   H14   S    
C8    C131  A    
N12   Ni2   S    
C25   H86   S    
C20   C21   S    
Br1   C56   S    
C102  C108  A    
C65   C74   A    
C31   C32   S    
C84   N3    A    
Br2   C55   S    
C17   C99   S    
C29   H92   S    
C49   C109  A    
C31   H100  S    
C50   H65   S    
C28   H93   S    
C30   C103  S    
C13   C67   A    
C38   C39   S    
C40   C41   S    
N8    N14   A    
C41   H12   S    
C68   H54   S    
C26   H82   S    
C103  C116  A    
N1    Ni1   S    
C1    C108  A    
N7    Ni3   S    
C15   C129  A    
C17   H72   S    
N18   N27   A    
C32   H97   S    
C89   C124  A    
C33   C105  S    
C53   C76   A    
C20   H81   S    
C69   C78   A    
C91   C119  A    
C66   H52   S    
C14   C116  S    
C97   C122  A    
C76   C79   A    
N30   Ni4   S    
C35   C69   A    
C74   C77   A    
C47   H63   S    
C35   C122  S    
C33   H111  S    
Br8   C62   S    
N4    Ni2   S    
C96   H28   S    
C87   H19   S    
C92   H24   S    
C37   H8    S    
C127  H32   S    
C90   C120  A    
C3    H43   S    
C45   C70   A    
N18   Ni6   S    
C96   N15   A    
C39   H112  S    
C53   H60   S    
C44   C63   A    
Br6   C59   S    
C24   C66   A    
C16   C128  A    
C30   C31   S    
C94   H26   S    
C20   C100  S    
C20   H79   S    
C52   H59   S    
C30   H103  S    
C33   H110  S    
C127  C135  A    
C19   H68   S    
C54   C63   A    
C27   H96   S    
N31   Ni3   S    
C12   C127  A    
C3    C129  A    
C49   H25   S    
C67   C76   A    
N24   N30   A    
N15   Ni8   S    
C85   C120  A    
C32   H99   S    
C9    C111  S    
N16   Ni7   S    
C34   H108  S    
C6    H46   S    
C36   H105  S    
C86   N5    A    
N21   Ni5   S    
C65   C126  A    
C11   C109  S    
C81   N32   A    
C72   C80   A    
C107  C112  A    
C39   H3    S    
C83   N2    A    
C64   H50   S    
N3    Ni1   S    
C18   H71   S    
C71   H47   S    
C90   N9    A    
C88   C123  A    
C37   H7    S    
N4    N9    A    
C44   C72   A    
C69   H53   S    
C68   C77   A    
C83   H2    S    
C32   H98   S    
N32   Ni2   S    
C24   C57   A    
C22   H75   S    
N25   N29   A    
C2    C64   A    
