data_mof_unit_21268.cif
_audit_creation_date              2013-03-05T15:45:12-0500
_audit_creation_method            fapswitch 2.2
_symmetry_space_group_name_H-M    P1
_symmetry_Int_Tables_number       1
_space_group_crystal_system       triclinic
_cell_length_a                    24.451088
_cell_length_b                    17.287591
_cell_length_c                    15.753856
_cell_angle_alpha                 90.184116
_cell_angle_beta                  50.752066
_cell_angle_gamma                 90.180027
_cell_volume                      5156.92559026

loop_
_atom_site_label
_atom_site_type_symbol
_atom_site_description
_atom_site_fract_x
_atom_site_fract_y
_atom_site_fract_z
_atom_type_partial_charge
C1    C     C_R   0.332629 0.101640 0.804395 0.319068
C2    C     C_R   0.667155 0.897521 0.195799 0.327532
C3    C     C_R   0.661670 0.122115 0.211634 0.409840
C4    C     C_R   0.339801 0.874770 0.785136 0.406601
C5    C     C_R   0.839189 0.623816 0.786575 0.409308
C6    C     C_R   0.160387 0.375243 0.215081 0.410949
C7    C     C_R   0.167122 0.602785 0.196188 0.323491
C8    C     C_R   0.832811 0.397619 0.804175 0.326453
N1    N     N_R   0.388930 0.078160 0.705470 -0.077637
N2    N     N_R   0.611070 0.921840 0.294530 -0.077900
N3    N     N_R   0.611070 0.078160 0.294530 -0.083669
N4    N     N_R   0.388930 0.921840 0.705470 -0.084058
N5    N     N_R   0.888930 0.578160 0.705470 -0.084650
N6    N     N_R   0.111070 0.421840 0.294530 -0.082197
N7    N     N_R   0.111070 0.578160 0.294530 -0.076643
N8    N     N_R   0.888930 0.421840 0.705470 -0.078206
C9    C     C_R   0.616347 0.098639 0.590456 -0.092259
C10   C     C_R   0.383121 0.901780 0.409925 -0.086819
C11   C     C_R   0.410518 0.145147 0.412063 -0.100400
C12   C     C_R   0.596276 0.858569 0.586682 -0.101826
C13   C     C_R   0.093853 0.642981 0.587665 -0.095409
C14   C     C_R   0.903937 0.358227 0.413083 -0.101226
C15   C     C_R   0.884042 0.598780 0.409229 -0.093046
C16   C     C_R   0.115451 0.391711 0.588143 -0.087220
H1    H     H_    0.593788 0.094744 0.675340 0.079831
H2    H     H_    0.404607 0.906812 0.325613 0.083166
H3    H     H_    0.436751 0.159993 0.328219 0.086050
H4    H     H_    0.573338 0.844222 0.669715 0.095960
H5    H     H_    0.068091 0.658339 0.671367 0.092758
H6    H     H_    0.927154 0.343691 0.329905 0.095950
H7    H     H_    0.906830 0.594704 0.324246 0.081136
H8    H     H_    0.094382 0.390321 0.672513 0.085084
N9    N     N_R   0.580500 0.077840 0.556650 -0.043016
N10   N     N_R   0.419500 0.922160 0.443350 -0.043325
N11   N     N_R   0.419500 0.077840 0.443350 -0.048108
N12   N     N_R   0.580500 0.922160 0.556650 -0.047626
N13   N     N_R   0.080500 0.577840 0.556650 -0.047489
N14   N     N_R   0.919500 0.422160 0.443350 -0.047912
N15   N     N_R   0.919500 0.577840 0.443350 -0.043299
N16   N     N_R   0.080500 0.422160 0.556650 -0.043966
C17   C     C_R   0.690469 0.095371 0.409741 -0.044501
C18   C     C_R   0.309995 0.901829 0.590698 -0.053298
C19   C     C_R   0.338078 0.143719 0.594311 -0.120154
C20   C     C_R   0.662527 0.857438 0.405213 -0.116319
C21   C     C_R   0.167249 0.639706 0.405397 -0.117609
C22   C     C_R   0.837343 0.357436 0.594621 -0.117091
C23   C     C_R   0.809691 0.595746 0.589984 -0.045464
C24   C     C_R   0.189364 0.400162 0.407343 -0.082143
H9    H     H_    0.736999 0.082319 0.329266 0.157419
H10   H     H_    0.263375 0.907517 0.673405 0.155578
H11   H     H_    0.299627 0.155739 0.679216 0.150800
H12   H     H_    0.691225 0.839905 0.322744 0.148396
H13   H     H_    0.208428 0.648255 0.320659 0.152341
H14   H     H_    0.808263 0.340438 0.677234 0.146921
H15   H     H_    0.762968 0.583287 0.670522 0.157547
H16   H     H_    0.236479 0.419204 0.330129 0.154424
N17   N     N_R   0.626210 0.077590 0.443410 -0.042090
N18   N     N_R   0.373790 0.922410 0.556590 -0.041644
N19   N     N_R   0.373790 0.077590 0.556590 -0.041442
N20   N     N_R   0.626210 0.922410 0.443410 -0.043071
N21   N     N_R   0.126210 0.577590 0.443410 -0.041375
N22   N     N_R   0.873790 0.422410 0.556590 -0.043210
N23   N     N_R   0.873790 0.577590 0.556590 -0.042692
N24   N     N_R   0.126210 0.422410 0.443410 -0.038236
C25   C     C_R   0.570693 0.120207 0.211087 -0.201132
C26   C     C_R   0.431627 0.875717 0.783928 -0.197796
C27   C     C_R   0.425030 0.105113 0.800627 -0.117009
C28   C     C_R   0.574633 0.894254 0.199885 -0.112149
C29   C     C_R   0.074600 0.605840 0.200159 -0.112737
C30   C     C_R   0.925385 0.394249 0.799910 -0.114360
C31   C     C_R   0.930528 0.622610 0.786448 -0.201605
C32   C     C_R   0.068899 0.375410 0.215488 -0.197138
H17   H     H_    0.540999 0.122771 0.181757 0.116407
H18   H     H_    0.462251 0.871170 0.811440 0.119342
H19   H     H_    0.456469 0.104086 0.827070 0.108987
H20   H     H_    0.542966 0.894765 0.173843 0.114392
H21   H     H_    0.043127 0.604741 0.173774 0.112769
H22   H     H_    0.957162 0.394517 0.825760 0.114557
H23   H     H_    0.960566 0.626352 0.815101 0.120178
H24   H     H_    0.038571 0.370393 0.187457 0.119659
N25   N     N_R   0.554800 0.077270 0.294580 -0.065871
N26   N     N_R   0.445200 0.922730 0.705420 -0.066711
N27   N     N_R   0.445200 0.077270 0.705420 -0.065361
N28   N     N_R   0.554800 0.922730 0.294580 -0.065629
N29   N     N_R   0.054800 0.577270 0.294580 -0.066271
N30   N     N_R   0.945200 0.422730 0.705420 -0.065555
N31   N     N_R   0.945200 0.577270 0.705420 -0.066799
N32   N     N_R   0.054800 0.422730 0.294580 -0.066814
C33   C     C_R   0.354409 0.119765 0.863857 0.091356
C34   C     C_R   0.645064 0.878774 0.136921 0.067804
C35   C     C_R   0.635428 0.152549 0.162893 0.098955
C36   C     C_R   0.367679 0.841777 0.830156 0.100627
C37   C     C_R   0.866321 0.655872 0.833521 0.098425
C38   C     C_R   0.133052 0.341834 0.169474 0.100520
C39   C     C_R   0.145004 0.621557 0.137463 0.070572
C40   C     C_R   0.854911 0.378835 0.862866 0.069122
C41   C     C_R   0.687125 0.107484 0.499491 0.012030
C42   C     C_R   0.312690 0.891655 0.501302 0.017553
C43   C     C_R   0.361072 0.189892 0.505853 0.056965
C44   C     C_R   0.647970 0.815917 0.491423 0.052169
C45   C     C_R   0.146824 0.685390 0.493308 0.055630
C46   C     C_R   0.852243 0.315477 0.508193 0.052642
C47   C     C_R   0.813345 0.608128 0.499946 0.012450
C48   C     C_R   0.185030 0.376644 0.494173 0.028624
Ni1   Ni    Ni4+2 0.382710 0.000000 0.629850 0.279498
Ni2   Ni    Ni4+2 0.617290 0.000000 0.370150 0.276437
Ni3   Ni    Ni4+2 0.882710 0.500000 0.629850 0.276040
Ni4   Ni    Ni4+2 0.117290 0.500000 0.370150 0.282145
Ni5   Ni    Ni4+2 0.513020 0.000000 0.629850 0.209015
Ni6   Ni    Ni4+2 0.486980 0.000000 0.370150 0.209263
Ni7   Ni    Ni4+2 0.013020 0.500000 0.629850 0.212576
Ni8   Ni    Ni4+2 0.986980 0.500000 0.370150 0.209352
C49   C     C_R   0.272903 0.303591 0.601155 0.150208
C50   C     C_R   0.746766 0.713327 0.384748 0.148445
C51   C     C_R   0.815690 0.142255 0.408265 0.151325
C52   C     C_R   0.184242 0.857491 0.596679 0.153931
C53   C     C_R   0.684984 0.642996 0.590031 0.152199
C54   C     C_R   0.310447 0.323062 0.391946 0.118215
C55   C     C_R   0.233930 0.800427 0.391731 0.155917
C56   C     C_R   0.754655 0.211063 0.614331 0.148985
C57   C     C_R   0.648752 0.700321 0.581025 -0.204655
C58   C     C_R   0.357835 0.292761 0.404244 -0.174306
C59   C     C_R   0.270783 0.857038 0.400488 -0.224493
C60   C     C_R   0.724477 0.147139 0.603940 -0.182756
C61   C     C_R   0.233851 0.352088 0.587066 -0.215935
C62   C     C_R   0.777292 0.649913 0.394682 -0.182941
C63   C     C_R   0.851825 0.199878 0.417508 -0.203757
C64   C     C_R   0.148797 0.796884 0.590618 -0.204637
H25   H     H_    0.595702 0.715237 0.652771 0.132748
H26   H     H_    0.410511 0.278084 0.332837 0.130395
H27   H     H_    0.317610 0.881785 0.326150 0.124745
H28   H     H_    0.678630 0.120002 0.675678 0.115002
H29   H     H_    0.189055 0.382122 0.658031 0.125242
H30   H     H_    0.823654 0.623764 0.322662 0.115162
H31   H     H_    0.904621 0.215407 0.345596 0.132133
H32   H     H_    0.100037 0.776538 0.665898 0.125001
C65   C     C_R   0.681696 0.742085 0.483359 0.054727
C66   C     C_R   0.333015 0.266165 0.506757 0.061009
C67   C     C_R   0.253313 0.874934 0.501062 0.053004
C68   C     C_R   0.745333 0.125882 0.502003 0.043993
C69   C     C_R   0.245135 0.352424 0.488386 0.049748
C70   C     C_R   0.755697 0.627641 0.496679 0.046302
C71   C     C_R   0.819035 0.241070 0.515740 0.053655
C72   C     C_R   0.176692 0.761805 0.489634 0.066496
C73   C     C_2   0.673949 0.204210 0.071288 -0.255334
C74   C     C_2   0.329457 0.789660 0.921217 -0.255553
C75   C     C_2   0.307991 0.148408 0.973877 -0.250797
C76   C     C_2   0.690878 0.847795 0.028275 -0.206596
C77   C     C_2   0.191307 0.650417 0.027725 -0.207583
C78   C     C_2   0.809333 0.346718 0.970642 -0.203900
C79   C     C_2   0.828388 0.708461 0.924358 -0.254835
C80   C     C_2   0.172472 0.289953 0.078065 -0.246172
C81   C     C_2   0.708175 0.262009 0.075993 0.328452
C82   C     C_2   0.293777 0.732956 0.917885 0.326282
C83   C     C_2   0.279688 0.216981 0.985298 0.314935
C84   C     C_2   0.721066 0.781021 0.018798 0.328622
C85   C     C_2   0.221531 0.717771 0.016349 0.319819
C86   C     C_2   0.780049 0.279472 0.978258 0.320268
C87   C     C_2   0.793088 0.764987 0.920461 0.323244
C88   C     C_2   0.207365 0.233209 0.082822 0.325004
H33   H     H_    0.313754 0.812790 0.997787 0.166559
H34   H     H_    0.689725 0.181532 0.994407 0.170700
H35   H     H_    0.715056 0.888652 0.961234 0.182111
H36   H     H_    0.281446 0.105821 0.039084 0.189167
H37   H     H_    0.784567 0.386990 0.038618 0.183787
H38   H     H_    0.215961 0.608136 0.962067 0.182936
H39   H     H_    0.190039 0.313769 0.000936 0.167361
H40   H     H_    0.813353 0.686671 0.001024 0.168855
Br1   Br    Br    0.237322 0.076085 0.868631 -0.570633
Br2   Br    Br    0.763620 0.917207 0.131847 -0.599075
Br3   Br    Br    0.759438 0.121475 0.147199 -0.515735
Br4   Br    Br    0.241198 0.875355 0.854057 -0.499661
Br5   Br    Br    0.741198 0.622746 0.852227 -0.503316
Br6   Br    Br    0.258564 0.378231 0.147161 -0.540675
Br7   Br    Br    0.262723 0.577541 0.129864 -0.564446
Br8   Br    Br    0.736433 0.417680 0.868482 -0.584134
C89   C     C_3   0.243507 0.293121 0.718513 -0.418370
C90   C     C_3   0.175515 0.243636 0.781678 -0.272747
C91   C     C_3   0.135938 0.243916 0.904516 -0.816053
H41   H     H_    0.169883 0.219995 0.921647 0.293859
H42   H     H_    0.119691 0.303689 0.937524 0.236921
H43   H     H_    0.087880 0.207339 0.946310 0.258707
H44   H     H_    0.138880 0.266496 0.768681 0.200112
H45   H     H_    0.187944 0.183127 0.751268 0.220125
H46   H     H_    0.283210 0.271209 0.724809 0.219254
H47   H     H_    0.229992 0.351243 0.757619 0.210451
C92   C     C_3   0.786931 0.751027 0.271694 -0.422505
C93   C     C_3   0.862080 0.721233 0.178581 -0.315990
C94   C     C_3   0.898149 0.769494 0.074541 -0.805331
H48   H     H_    0.864905 0.772182 0.049444 0.280620
H49   H     H_    0.907853 0.829238 0.087903 0.273172
H50   H     H_    0.949688 0.743038 0.007015 0.234603
H51   H     H_    0.895157 0.723970 0.204373 0.210795
H52   H     H_    0.859339 0.660492 0.158065 0.207094
H53   H     H_    0.755761 0.741764 0.243426 0.230074
H54   H     H_    0.793343 0.813391 0.280557 0.214264
C95   C     C_3   0.856128 0.097705 0.301200 -0.435604
C96   C     C_3   0.850018 0.009928 0.320151 -0.252059
C97   C     C_3   0.894743 0.965750 0.211962 -0.826252
H55   H     H_    0.874934 0.976022 0.166058 0.295109
H56   H     H_    0.950917 0.983992 0.160918 0.272379
H57   H     H_    0.891624 0.903018 0.229155 0.245158
H58   H     H_    0.868390 0.995060 0.367083 0.223994
H59   H     H_    0.794322 0.990603 0.368507 0.198328
H60   H     H_    0.840530 0.115816 0.252012 0.218951
H61   H     H_    0.913241 0.112591 0.248869 0.205255
C98   C     C_3   0.147289 0.902610 0.702816 -0.461255
C99   C     C_3   0.073039 0.929912 0.749924 -0.255582
C100  C     C_3   0.040208 0.980645 0.851195 -0.773495
H62   H     H_    0.035662 0.947875 0.915980 0.263249
H63   H     H_    0.072914 0.033171 0.829897 0.257698
H64   H     H_    0.986534 0.998957 0.883962 0.271617
H65   H     H_    0.076291 0.963617 0.686854 0.225679
H66   H     H_    0.037478 0.879686 0.774270 0.211081
H67   H     H_    0.143506 0.865990 0.764230 0.228655
H68   H     H_    0.177736 0.955963 0.687372 0.205561
C101  C     C_3   0.644567 0.598253 0.696761 -0.432385
C102  C     C_3   0.651389 0.510397 0.677378 -0.270071
C103  C     C_3   0.608656 0.466175 0.785364 -0.795316
H69   H     H_    0.629287 0.478304 0.829793 0.298137
H70   H     H_    0.552081 0.482816 0.837795 0.272145
H71   H     H_    0.612872 0.403222 0.768311 0.239010
H72   H     H_    0.631774 0.494553 0.632353 0.225647
H73   H     H_    0.707371 0.491946 0.627024 0.199592
H74   H     H_    0.659774 0.617108 0.746373 0.218872
H75   H     H_    0.587348 0.612340 0.748836 0.205558
C104  C     C_3   0.327861 0.316273 0.280227 -0.386028
C105  C     C_3   0.388391 0.260672 0.196555 -0.343959
C106  C     C_3   0.393124 0.248989 0.095919 -0.743206
H76   H     H_    0.343122 0.224088 0.119993 0.283876
H77   H     H_    0.404029 0.304913 0.053252 0.295168
H78   H     H_    0.436743 0.208339 0.038004 0.217313
H79   H     H_    0.439718 0.284807 0.168012 0.209422
H80   H     H_    0.379675 0.203331 0.235179 0.204536
H81   H     H_    0.280333 0.293424 0.294045 0.236381
H82   H     H_    0.342143 0.374451 0.241981 0.219385
C107  C     C_3   0.262776 0.784780 0.275298 -0.431601
C108  C     C_3   0.331546 0.736988 0.212808 -0.252810
C109  C     C_3   0.372920 0.739064 0.089294 -0.812169
H83   H     H_    0.340406 0.715854 0.068753 0.293330
H84   H     H_    0.389099 0.799280 0.058422 0.232757
H85   H     H_    0.421135 0.702996 0.047866 0.261488
H86   H     H_    0.366639 0.760439 0.228831 0.201352
H87   H     H_    0.320030 0.676069 0.241053 0.224535
H88   H     H_    0.222884 0.761110 0.270359 0.218688
H89   H     H_    0.275435 0.841526 0.233216 0.211837
C110  C     C_3   0.714739 0.248050 0.727815 -0.417304
C111  C     C_3   0.640603 0.216203 0.821548 -0.324543
C112  C     C_3   0.604345 0.264537 0.925725 -0.809592
H90   H     H_    0.639424 0.272142 0.946991 0.286296
H91   H     H_    0.590208 0.322387 0.914608 0.275783
H92   H     H_    0.555354 0.234961 0.994794 0.229050
H93   H     H_    0.606639 0.217003 0.797305 0.208089
H94   H     H_    0.645159 0.155905 0.840836 0.208327
H95   H     H_    0.746928 0.240062 0.754434 0.229137
H96   H     H_    0.706786 0.310089 0.720458 0.212871
Br9   Br    Br    0.331303 0.683214 0.780065 -0.492973
Br10  Br    Br    0.668116 0.312089 0.214866 -0.493437
Br11  Br    Br    0.670912 0.707200 0.139629 -0.497332
Br12  Br    Br    0.332630 0.293161 0.868048 -0.516466
Br13  Br    Br    0.831447 0.206823 0.855750 -0.513110
Br14  Br    Br    0.171013 0.793846 0.134524 -0.512826
Br15  Br    Br    0.168754 0.184349 0.221356 -0.522960
Br16  Br    Br    0.831384 0.814095 0.782114 -0.504255

loop_
_geom_bond_atom_site_label_1
_geom_bond_atom_site_label_2
_geom_bond_distance
_ccdc_geom_bond_type
C49   C89   1.512419 S    
C80   C88   1.335094 D    
C27   N27   1.336192 A    
C99   H65   1.111983 S    
C59   C67   1.389208 A    
C92   H54   1.109999 S    
C30   H22   1.081606 S    
C29   H21   1.081639 S    
C109  H83   1.104715 S    
C10   H2    1.079487 S    
C9    C41   1.390535 A    
C24   H16   1.068725 S    
N5    Ni3   1.867002 S    
N29   Ni8   1.857371 S    
C19   H11   1.060380 S    
C18   N18   1.336280 A    
C31   H23   1.079993 S    
C90   C91   1.520442 S    
C89   H46   1.104603 S    
C102  H72   1.112009 S    
N3    N25   1.375400 A    
C104  H82   1.109941 S    
C51   C95   1.517194 S    
C112  H90   1.108095 S    
N19   Ni1   1.873254 S    
C22   N22   1.318055 A    
N11   N19   1.381588 A    
C63   H31   1.082235 S    
C106  H78   1.110423 S    
C92   H53   1.110426 S    
C75   H36   1.084777 S    
C18   C42   1.378300 A    
C23   N23   1.338049 A    
N4    Ni1   1.873225 S    
C50   C62   1.391927 A    
C45   C72   1.490888 S    
C111  H94   1.112187 S    
C24   N24   1.321877 A    
C6    N6    1.326435 A    
C73   H34   1.084501 S    
C38   C80   1.431086 S    
C79   H40   1.084452 S    
C14   N14   1.348076 A    
C108  H87   1.108602 S    
C27   C33   1.364813 A    
C100  H64   1.110574 S    
C51   C63   1.396600 A    
C60   H28   1.072853 S    
C3    C35   1.380696 A    
C54   C58   1.393916 A    
C50   C65   1.436793 A    
C57   C65   1.404532 A    
C81   C86   1.458094 S    
C2    C34   1.374083 A    
N21   Ni4   1.866950 S    
C53   C57   1.397334 A    
C34   C76   1.429336 S    
C8    C40   1.373901 A    
N2    N28   1.375496 A    
N8    Ni3   1.873225 S    
C16   N16   1.339618 A    
C82   Br9   1.941029 S    
C95   H60   1.104648 S    
C2    N2    1.333057 A    
C15   C47   1.389597 A    
C61   C69   1.396506 A    
C99   C100  1.527685 S    
C6    C38   1.378067 A    
C7    Br7   1.912927 S    
C97   H57   1.109291 S    
C28   C34   1.364137 A    
N27   Ni5   1.859360 S    
C43   C66   1.484127 S    
C53   C101  1.517576 S    
C96   C97   1.523995 S    
C39   C77   1.429958 S    
C56   C110  1.531771 S    
C4    N4    1.331557 A    
C75   C83   1.327725 D    
C41   C68   1.482151 S    
C5    N5    1.329632 A    
C90   H44   1.111455 S    
C19   N19   1.329611 A    
C101  H75   1.112780 S    
N7    N29   1.375400 A    
C91   H43   1.110470 S    
C32   C38   1.373732 A    
C110  H96   1.110022 S    
C54   C69   1.430479 A    
C7    N7    1.331776 A    
C85   Br14  1.950902 S    
C93   H52   1.111932 S    
C97   H55   1.110711 S    
C8    N8    1.332981 A    
C4    Br4   1.918165 S    
C107  C108  1.545358 S    
N8    N30   1.375405 A    
C55   C72   1.432736 A    
N5    N31   1.375501 A    
C95   H61   1.112807 S    
C94   H48   1.107354 S    
C56   C71   1.437278 A    
C9    N9    1.329900 A    
C5    C37   1.382052 A    
C81   Br10  1.943444 S    
N23   Ni3   1.873254 S    
C17   H9    1.061715 S    
C105  C106  1.527632 S    
C32   N32   1.338752 A    
N24   Ni4   1.873254 S    
N16   Ni7   1.859947 S    
C10   N10   1.334970 A    
C74   H33   1.083612 S    
C1    C33   1.373915 A    
N6    Ni4   1.867005 S    
C112  H91   1.109158 S    
C23   C47   1.381043 A    
C104  H81   1.109718 S    
C36   C74   1.431678 S    
C98   C99   1.538779 S    
C28   N28   1.335800 A    
N26   Ni5   1.857370 S    
C6    Br6   1.912997 S    
C10   C42   1.389765 A    
C1    N1    1.331682 A    
C58   C66   1.396678 A    
C82   C85   1.458775 S    
C25   H17   1.080500 S    
C57   H25   1.082425 S    
C103  H69   1.110634 S    
C94   H49   1.107982 S    
C11   C43   1.407613 A    
C111  H93   1.112250 S    
C87   Br16  1.942243 S    
C26   C36   1.369514 A    
N22   Ni3   1.866952 S    
C12   H4    1.077049 S    
C29   C39   1.363853 A    
C101  C102  1.536880 S    
C78   H37   1.084191 S    
C13   H5    1.074169 S    
C108  H86   1.111566 S    
C62   C70   1.392163 A    
C52   C67   1.411705 A    
N28   Ni6   1.859363 S    
C50   C92   1.533476 S    
N14   N22   1.381574 A    
C93   C94   1.528193 S    
C16   C48   1.402555 A    
C15   H7    1.078683 S    
N7    Ni4   1.873226 S    
C94   H50   1.110436 S    
C30   C40   1.363914 A    
C16   H8    1.079960 S    
C106  H76   1.111251 S    
C29   N29   1.335277 A    
C26   N26   1.336320 A    
C26   H18   1.079808 S    
C22   C46   1.371282 A    
C25   N25   1.337825 A    
C104  C105  1.544082 S    
C74   C82   1.333054 D    
C86   Br13  1.951104 S    
C40   C78   1.428619 S    
C22   H14   1.056377 S    
N3    Ni2   1.873226 S    
C98   H67   1.111639 S    
C100  H62   1.111176 S    
N4    N26   1.375405 A    
C109  H84   1.110825 S    
C63   C71   1.404022 A    
C51   C68   1.416119 A    
C64   C72   1.409705 A    
C105  H79   1.111366 S    
N11   Ni6   1.859944 S    
C21   C45   1.382548 A    
C18   H10   1.061728 S    
C31   N31   1.337329 A    
N32   Ni8   1.859363 S    
N15   Ni8   1.859944 S    
C17   N17   1.337167 A    
N1    N27   1.375501 A    
C93   H51   1.112173 S    
C48   C69   1.475654 S    
C4    C36   1.381950 A    
C96   H59   1.110213 S    
N10   Ni6   1.857805 S    
C17   C41   1.378968 A    
C37   C79   1.432512 S    
C27   H19   1.081738 S    
C46   C71   1.483351 S    
N14   Ni8   1.857805 S    
C30   N30   1.335545 A    
C47   C70   1.482618 S    
N12   Ni5   1.859947 S    
C35   C73   1.431930 S    
C80   H39   1.082635 S    
C7    C39   1.374720 A    
C111  C112  1.527225 S    
C23   H15   1.061804 S    
C107  H88   1.103727 S    
C61   H29   1.081455 S    
C25   C35   1.367814 A    
C108  C109  1.523271 S    
C112  H92   1.109386 S    
N9    N17   1.381574 A    
N30   Ni7   1.857370 S    
C78   C86   1.328730 D    
C59   H27   1.081163 S    
C83   C88   1.459050 S    
C2    Br2   1.919485 S    
C76   H35   1.084405 S    
C5    Br5   1.917034 S    
C105  H80   1.112094 S    
C60   C68   1.391103 A    
C84   C87   1.458152 S    
C55   C107  1.515296 S    
C77   H38   1.084663 S    
C99   H66   1.110172 S    
N12   N20   1.381588 A    
C14   C46   1.411971 A    
C20   H12   1.057083 S    
N13   N21   1.381574 A    
C110  C111  1.543197 S    
C8    Br8   1.918817 S    
C88   Br15  1.941008 S    
C102  H73   1.109880 S    
C31   C37   1.369331 A    
N20   Ni2   1.873254 S    
C55   C59   1.392737 A    
C54   C104  1.530822 S    
C28   H20   1.081656 S    
C58   H26   1.074995 S    
N15   N23   1.381588 A    
N16   N24   1.381588 A    
C42   C67   1.481776 S    
N18   Ni1   1.866952 S    
C9    H1    1.078907 S    
C84   Br11  1.951416 S    
C64   H32   1.078216 S    
C53   C70   1.416205 A    
C13   C45   1.410504 A    
C73   C81   1.333046 D    
C12   C44   1.411382 A    
C32   H24   1.079876 S    
C11   N11   1.336917 A    
C19   C43   1.381376 A    
N31   Ni7   1.859360 S    
C83   Br12  1.949708 S    
C20   C44   1.370927 A    
C3    Br3   1.916952 S    
C102  C103  1.524604 S    
C77   C85   1.327553 D    
C20   N20   1.318340 A    
C21   N21   1.325016 A    
C33   C75   1.430494 S    
C49   C61   1.392235 A    
C1    Br1   1.913693 S    
C98   H68   1.109994 S    
C100  H63   1.111109 S    
C79   C87   1.332798 D    
C107  H89   1.113683 S    
N17   Ni2   1.866950 S    
N9    Ni5   1.857804 S    
C103  H70   1.110744 S    
C95   C96   1.535956 S    
C14   H6    1.077030 S    
C97   H56   1.110837 S    
N13   Ni7   1.857804 S    
C52   C98   1.518201 S    
C3    N3    1.330261 A    
C44   C65   1.482671 S    
C89   H47   1.113042 S    
C21   H13   1.057003 S    
C91   H41   1.104104 S    
C12   N12   1.348379 A    
C109  H85   1.110391 S    
C92   C93   1.543974 S    
C13   N13   1.345198 A    
N25   Ni6   1.857371 S    
C62   H30   1.071993 S    
C106  H77   1.110571 S    
C89   C90   1.545671 S    
C52   C64   1.398704 A    
C101  H74   1.104838 S    
C96   H58   1.112082 S    
N10   N18   1.381574 A    
N2    Ni2   1.867005 S    
C49   C66   1.422853 A    
C76   C84   1.328339 D    
C91   H42   1.110731 S    
N6    N32   1.375496 A    
N1    Ni1   1.867002 S    
C15   N15   1.328378 A    
C90   H45   1.109346 S    
C56   C60   1.392489 A    
C110  H95   1.110456 S    
C11   H3    1.072882 S    
C103  H71   1.109495 S    
C24   C48   1.366606 A    
