data_mof_unit_46807.cif
_audit_creation_date              2012-12-10T18:29:33-0500
_audit_creation_method            fapswitch 2.2
_symmetry_space_group_name_H-M    P1
_symmetry_Int_Tables_number       1
_space_group_crystal_system       triclinic
_cell_length_a                    11.555283
_cell_length_b                    15.043655
_cell_length_c                    15.430373
_cell_angle_alpha                 81.225218
_cell_angle_beta                  90.103856
_cell_angle_gamma                 105.438621
_cell_volume                      2553.14835646

loop_
_atom_site_label
_atom_site_type_symbol
_atom_type_description
_atom_site_fract_x
_atom_site_fract_y
_atom_site_fract_z
_atom_type_partial_charge
C1    C     C_R   0.481024 0.440523 0.662451 0.851373
C2    C     C_R   0.519741 0.559682 0.337539 0.854897
C3    C     C_R   0.440140 0.349160 0.939839 -0.167987
C4    C     C_R   0.611736 0.652312 0.063832 -0.115595
C5    C     C_R   0.537776 0.512942 0.954466 -0.158261
C6    C     C_R   0.532635 0.487082 0.046204 -0.193491
C7    C     C_R   0.505039 0.390292 0.082384 0.408612
C8    C     C_R   0.569072 0.609891 0.918829 0.360064
C9    C     C_R   0.451542 0.322530 0.030917 0.356488
C10   C     C_R   0.620977 0.677581 0.971394 0.328781
C11   C     C_R   0.709873 0.855160 0.608274 0.397704
C12   C     C_R   0.297608 0.148176 0.382282 0.420005
C13   C     C_R   0.669615 0.761681 0.596465 0.010212
C14   C     C_R   0.334164 0.240026 0.399323 0.001622
C15   C     C_R   0.504168 0.792030 0.516803 -0.047744
C16   C     C_R   0.495664 0.207734 0.482463 -0.045873
C17   C     C_R   0.543367 0.887685 0.524871 -0.028839
C18   C     C_R   0.458340 0.112811 0.471488 -0.030350
C19   C     C_R   0.638941 0.915246 0.580185 -0.058820
C20   C     C_R   0.366489 0.086952 0.412668 -0.057902
C21   C     C_R   0.488845 0.955904 0.482818 -0.033820
C22   C     C_R   0.512668 0.044341 0.513318 -0.036133
C23   C     C_R   0.718215 0.501634 0.500283 0.895909
C24   C     C_R   0.281786 0.498375 0.499676 0.895099
C25   C     C_R   0.588051 0.060953 0.585452 0.465225
C26   C     C_R   0.414763 0.939493 0.409998 0.462771
C27   C     C_R   0.657709 0.999351 0.612267 -0.308862
C28   C     C_R   0.349492 0.003377 0.379795 -0.319972
C29   C     C_1   0.839740 0.504105 0.500862 -0.165599
C30   C     C_1   0.160265 0.495935 0.498959 -0.160301
C31   C     C_1   0.941328 0.502125 0.500372 0.016751
C32   C     C_1   0.058677 0.497925 0.499362 0.018927
C33   C     C_R   0.466850 0.401746 0.756439 -0.197335
C34   C     C_R   0.545971 0.599462 0.244140 -0.197337
C35   C     C_R   0.376199 0.286490 0.884398 -0.026438
C36   C     C_R   0.649545 0.718337 0.122506 -0.013556
C37   C     C_R   0.386692 0.314704 0.791810 -0.058324
C38   C     C_R   0.619782 0.690702 0.213596 -0.079426
C39   C     C_R   0.527942 0.460228 0.812284 -0.144434
C40   C     C_R   0.507996 0.538058 0.185223 -0.160236
C41   C     C_R   0.501621 0.441575 0.901917 0.063294
C42   C     C_R   0.553212 0.558367 0.099052 0.043164
H1    H     H_    0.442978 0.472237 0.207860 0.195897
H2    H     H_    0.596498 0.522088 0.784696 0.182545
H3    H     H_    0.720326 0.012618 0.663856 0.172842
H4    H     H_    0.290915 0.991617 0.325658 0.182071
H5    H     H_    0.575636 0.235932 0.515815 0.196405
H6    H     H_    0.422878 0.763455 0.484983 0.196294
N1    N     N_R   0.566020 0.731700 0.552730 -0.181805
N2    N     N_R   0.433980 0.268300 0.447270 -0.182937
O1    O     O_R   0.466720 0.383110 0.605620 -0.627728
O2    O     O_R   0.533280 0.616890 0.394380 -0.626361
O3    O     O_R   0.509090 0.531900 0.639510 -0.625166
O4    O     O_R   0.490910 0.468100 0.360490 -0.626748
O5    O     O_R   0.644370 0.425610 0.483050 -0.628896
O6    O     O_R   0.355630 0.574390 0.516950 -0.627017
O7    O     O_R   0.686740 0.574390 0.516930 -0.611781
O8    O     O_R   0.313260 0.425610 0.483070 -0.612190
Zn1   Zn    Zn3+2 0.471710 0.400660 0.477370 0.930760
Zn2   Zn    Zn3+2 0.528290 0.599340 0.522630 0.932011
O9    O     O_3   0.411217 0.230691 0.071897 -0.594259
C43   C     C_3   0.500189 0.183918 0.061678 0.106225
H7    H     H_    0.585536 0.217699 0.090727 0.146184
H8    H     H_    0.518176 0.182194 0.991173 0.144618
C44   C     C_3   0.456607 0.083915 0.109114 -0.719908
H9    H     H_    0.525553 0.046121 0.101557 0.230029
H10   H     H_    0.440272 0.083595 0.180112 0.259178
H11   H     H_    0.371829 0.047285 0.081121 0.259001
O10   O     O_3   0.654564 0.770729 0.933256 -0.606312
C45   C     C_3   0.760890 0.788951 0.880678 0.114629
H12   H     H_    0.742714 0.757121 0.819914 0.211653
H13   H     H_    0.831199 0.762026 0.917100 0.099118
C46   C     C_3   0.810138 0.894016 0.853999 -0.710487
H14   H     H_    0.827369 0.928914 0.912921 0.239587
H15   H     H_    0.895928 0.909507 0.815318 0.237895
H16   H     H_    0.744517 0.922370 0.813718 0.263658
O11   O     O_3   0.576113 0.127437 0.636463 -0.621070
C47   C     C_3   0.685576 0.172449 0.671504 0.076364
H17   H     H_    0.762358 0.189329 0.622665 0.141215
H18   H     H_    0.703586 0.128069 0.731697 0.167494
C48   C     C_3   0.675066 0.263325 0.698272 -0.815839
H19   H     H_    0.598770 0.249030 0.746637 0.260713
H20   H     H_    0.759101 0.297574 0.728599 0.213066
H21   H     H_    0.660415 0.311519 0.639988 0.256781
O12   O     O_3   0.423925 0.870352 0.361400 -0.628858
C49   C     C_3   0.312978 0.825755 0.327934 0.069584
H22   H     H_    0.295748 0.868597 0.266478 0.168588
H23   H     H_    0.236947 0.812338 0.376852 0.143542
C50   C     C_3   0.319209 0.732441 0.304515 -0.822451
H24   H     H_    0.335328 0.686217 0.363747 0.256556
H25   H     H_    0.232991 0.697685 0.277136 0.215202
H26   H     H_    0.392854 0.743407 0.254646 0.258290
C51   C     C_2   0.668436 0.756713 0.275679 0.491490
H27   H     H_    0.608416 0.774887 0.319676 0.129063
O13   O     O_2   0.776478 0.791620 0.277624 -0.586874
C52   C     C_2   0.310857 0.255535 0.733199 0.496758
H28   H     H_    0.351499 0.233199 0.680065 0.111148
O14   O     O_2   0.201675 0.231118 0.744270 -0.571849
C53   C     C_2   0.292673 0.195192 0.922532 0.507699
H29   H     H_    0.235875 0.190230 0.979939 0.108103
O15   O     O_2   0.288254 0.124612 0.891206 -0.565348
C54   C     C_2   0.724463 0.814530 0.090867 0.575384
H30   H     H_    0.805903 0.825159 0.051528 0.045282
O16   O     O_2   0.695616 0.882185 0.108860 -0.566808
O17   O     O_3   0.525854 0.359049 0.168802 -0.596259
C55   C     C_3   0.650976 0.377741 0.180672 0.093197
H31   H     H_    0.691459 0.453133 0.182617 0.160061
H32   H     H_    0.698411 0.356900 0.127568 0.110348
C56   C     C_3   0.672053 0.322979 0.267795 -0.780879
H33   H     H_    0.631236 0.247093 0.268691 0.254637
H34   H     H_    0.769988 0.335382 0.277408 0.210441
H35   H     H_    0.631013 0.345875 0.322435 0.276045
O18   O     O_3   0.540732 0.641128 0.834441 -0.637165
C57   C     C_3   0.422545 0.650797 0.836758 0.143199
H36   H     H_    0.412217 0.697489 0.884125 0.167256
H37   H     H_    0.356410 0.581367 0.855112 0.143352
C58   C     C_3   0.394361 0.694063 0.746314 -0.793061
H38   H     H_    0.398649 0.647564 0.697809 0.275148
H39   H     H_    0.302558 0.703908 0.747921 0.207890
H40   H     H_    0.459992 0.763053 0.725858 0.258671
C59   C     C_2   0.264664 0.305425 0.362522 0.560112
H41   H     H_    0.308706 0.373699 0.327808 0.076756
O19   O     O_2   0.155104 0.282748 0.369545 -0.593453
C60   C     C_2   0.739142 0.696525 0.634159 0.512377
H42   H     H_    0.694744 0.626899 0.665079 0.089405
O20   O     O_2   0.848825 0.720424 0.631787 -0.588043
O21   O     O_3   0.814281 0.885677 0.652147 -0.612330
C61   C     C_3   0.906856 0.937097 0.589867 0.109143
H43   H     H_    0.886341 0.001522 0.555715 0.126879
H44   H     H_    0.920605 0.894166 0.539949 0.173594
C62   C     C_3   0.023789 0.966148 0.636556 -0.770517
H45   H     H_    0.046080 0.903487 0.672641 0.275327
H46   H     H_    0.098039 0.003800 0.587987 0.191910
H47   H     H_    0.015008 0.013188 0.683601 0.262421
O22   O     O_3   0.200084 0.121196 0.330484 -0.579933
C63   C     C_3   0.100528 0.066368 0.385231 0.081701
H48   H     H_    0.080371 0.104557 0.437275 0.168312
H49   H     H_    0.116762 0.999470 0.417005 0.123349
C64   C     C_3   0.990371 0.043233 0.330215 -0.705481
H50   H     H_    0.006654 0.003400 0.278646 0.265364
H51   H     H_    0.911692 0.000208 0.372659 0.194337
H52   H     H_    0.970197 0.108569 0.298613 0.269402

loop_
_geom_bond_atom_site_label_1
_geom_bond_atom_site_label_2
_ccdc_geom_bond_type
C21   C26   A    
C4    C36   A    
C51   H27   S    
O5    Zn1   S    
C64   H51   S    
C46   H14   S    
C24   O6    A    
C62   H47   S    
C61   H43   S    
C57   H36   S    
C1    C33   S    
O22   C63   S    
C39   C41   A    
O12   C49   S    
C11   C19   A    
C33   C39   A    
N1    Zn2   S    
C4    C42   A    
C9    O9    S    
N2    Zn1   S    
C23   C29   S    
C35   C37   A    
C16   N2    A    
C56   H34   S    
C5    C6    A    
C64   H52   S    
C47   H18   S    
C55   H31   S    
C36   C54   S    
C1    O3    A    
C25   O11   S    
C43   H8    S    
O2    Zn2   S    
C40   H1    S    
C47   H17   S    
C53   H29   S    
C44   H10   S    
C22   C25   A    
C52   O14   D    
C7    O17   S    
C45   H12   S    
C50   H25   S    
C19   C27   A    
C18   C20   A    
O9    C43   S    
C27   H3    S    
C40   C42   A    
C51   O13   D    
C14   C59   S    
C34   C38   A    
C21   C22   A    
C46   H15   S    
C54   H30   S    
C15   H6    S    
C63   C64   S    
C35   C53   S    
C15   C17   A    
C16   H5    S    
C48   H20   S    
O3    Zn2   S    
C48   H19   S    
O4    Zn1   S    
C24   O8    A    
C63   H49   S    
C2    O4    A    
C56   H35   S    
C13   C60   S    
C49   H22   S    
O7    Zn2   S    
C20   C28   A    
O8    Zn1   S    
O11   C47   S    
C12   O22   S    
C33   C37   A    
O6    Zn2   S    
C37   C52   S    
C11   O21   S    
C43   H7    S    
C3    C9    A    
C31   C32   S    
C3    C35   A    
C44   H11   S    
C28   H4    S    
C52   H28   S    
C12   C20   A    
C45   C46   S    
C50   H26   S    
C54   O16   D    
C1    O1    A    
C59   H41   S    
C39   H2    S    
C2    O2    A    
C8    O18   S    
C13   N1    A    
C8    C10   A    
C53   O15   D    
C12   C14   A    
C46   H16   S    
C34   C40   A    
C58   H40   S    
O1    Zn1   S    
C4    C10   A    
O21   C61   S    
C61   C62   S    
C48   H21   S    
C60   O20   D    
O18   C57   S    
C23   O7    A    
C5    C41   A    
C3    C41   A    
C43   C44   S    
C18   C22   A    
C63   H48   S    
C62   H46   S    
C49   C50   S    
C61   H44   S    
C5    C8    A    
C57   H37   S    
C64   H50   S    
C23   O5    A    
C6    C7    A    
C25   C27   A    
O17   C55   S    
C26   C28   A    
C58   H39   S    
C29   C31   T    
C58   H38   S    
C30   C32   T    
C11   C13   A    
C47   C48   S    
C2    C34   S    
C14   N2    A    
C55   H32   S    
C26   O12   S    
C38   C51   S    
C36   C38   A    
C17   C19   A    
C49   H23   S    
C15   N1    A    
O10   C45   S    
C24   C30   S    
C59   O19   D    
C57   C58   S    
C10   O10   S    
C7    C9    A    
C16   C18   A    
C44   H9    S    
C6    C42   A    
C45   H13   S    
C50   H24   S    
C56   H33   S    
C62   H45   S    
C60   H42   S    
C55   C56   S    
C17   C21   A    
