data_mof_unit_26794.cif
_audit_creation_date              2012-10-26T20:14:32-0400
_audit_creation_method            fapswitch 2.2
_symmetry_space_group_name_H-M    P1
_symmetry_Int_Tables_number       1
_space_group_crystal_system       triclinic
_cell_length_a                    7.844975
_cell_length_b                    9.083802
_cell_length_c                    17.272966
_cell_angle_alpha                 89.903205
_cell_angle_beta                  87.515248
_cell_angle_gamma                 89.995136
_cell_volume                      1229.75048784

loop_
_atom_site_label
_atom_site_type_symbol
_atom_type_description
_atom_site_fract_x
_atom_site_fract_y
_atom_site_fract_z
_atom_type_partial_charge
Br1   Br    Br    0.449900 0.801828 0.915245 -0.254478
Br2   Br    Br    0.867581 0.335486 0.095200 -0.266376
Br3   Br    Br    0.188024 0.563616 0.097301 -0.279842
Br4   Br    Br    0.704632 0.203681 0.890897 -0.252892
Br5   Br    Br    0.588866 0.189747 0.708433 -0.324674
Br6   Br    Br    0.179840 0.349448 0.275060 -0.306976
Br7   Br    Br    0.869891 0.592129 0.252202 -0.288808
Br8   Br    Br    0.357409 0.793408 0.728127 -0.309309
C1    C     C_R   0.499994 0.779718 0.500005 0.566773
C2    C     C_R   0.369366 0.453194 0.226290 0.170775
C3    C     C_R   0.595271 0.371909 0.845662 0.180835
C4    C     C_R   0.370679 0.465662 0.146063 0.194627
C5    C     C_R   0.567502 0.501949 0.888649 -0.036868
C6    C     C_R   0.522088 0.440142 0.103654 -0.027154
C7    C     C_R   0.493075 0.626130 0.854812 0.188464
C8    C     C_R   0.675569 0.436774 0.141755 0.188422
C9    C     C_R   0.449714 0.621470 0.776979 0.144199
C10   C     C_R   0.676220 0.484777 0.218837 0.166773
C11   C     C_2   0.604884 0.505497 0.970851 -0.027109
C12   C     C_R   0.500015 0.220281 0.499752 0.569251
C13   C     C_2   0.515358 0.419289 0.020085 -0.023394
C14   C     C_1   0.499986 0.934553 0.499936 0.025682
C15   C     C_1   0.499992 0.065444 0.499828 0.028850
C16   C     C_R   0.480613 0.498809 0.649829 0.595063
C17   C     C_R   0.519504 0.495383 0.349396 0.567951
C18   C     C_R   0.480983 0.492657 0.733774 -0.025759
C19   C     C_R   0.522483 0.479288 0.264284 -0.044476
C20   C     C_R   0.550459 0.367096 0.768277 0.147479
Cu1   Cu    Cu3+1 0.330920 0.500000 0.500000 1.153813
Cu2   Cu    Cu3+1 0.669080 0.500000 0.500000 1.149969
H1    H     H_    0.418015 0.346374 0.998668 0.197349
H2    H     H_    0.688233 0.590576 0.992132 0.201198
N1    N     N_1   0.923170 0.500000 0.500010 -0.047606
N2    N     N_1   0.076830 0.500000 0.499990 -0.046416
O1    O     O_R   0.357240 0.711600 0.500000 -0.491965
O2    O     O_R   0.642760 0.288400 0.500000 -0.490385
O3    O     O_R   0.642760 0.711600 0.500000 -0.494818
O4    O     O_R   0.357240 0.288400 0.500000 -0.492035
O5    O     O_R   0.340660 0.500000 0.613590 -0.476287
O6    O     O_R   0.659340 0.500000 0.386410 -0.468017
O7    O     O_R   0.626230 0.500000 0.613600 -0.488633
O8    O     O_R   0.373770 0.500000 0.386400 -0.473195

loop_
_geom_bond_atom_site_label_1
_geom_bond_atom_site_label_2
_ccdc_geom_bond_type
C2    C19   A    
Br6   C2    S    
Cu2   O7    S    
C7    C9    A    
Cu1   Cu2   S    
Br1   C7    S    
Cu1   O8    S    
C17   C19   S    
Br5   C20   S    
C12   O4    A    
Cu1   O1    S    
C18   C20   A    
Br8   C9    S    
C12   C15   S    
Cu2   O2    S    
Br7   C10   S    
Cu1   O5    S    
C1    O3    A    
N1    N2    T    
Cu2   O6    S    
Br4   C3    S    
C16   O7    A    
C3    C5    A    
C13   H1    S    
C17   O8    A    
C2    C4    A    
C3    C20   A    
C9    C18   A    
Cu1   N2    S    
C6    C13   S    
C11   C13   D    
C4    C6    A    
C5    C7    A    
C17   O6    A    
C6    C8    A    
C1    C14   S    
C11   H2    S    
C12   O2    A    
Cu1   O4    S    
Br2   C8    S    
C8    C10   A    
C1    O1    A    
C5    C11   S    
C14   C15   T    
Br3   C4    S    
Cu2   N1    S    
C16   O5    A    
C10   C19   A    
Cu2   O3    S    
C16   C18   S    
