data_mof_unit_44836.cif
_audit_creation_date              2012-12-10T18:09:53-0500
_audit_creation_method            fapswitch 2.2
_symmetry_space_group_name_H-M    P1
_symmetry_Int_Tables_number       1
_space_group_crystal_system       triclinic
_cell_length_a                    10.655272
_cell_length_b                    12.581217
_cell_length_c                    13.106149
_cell_angle_alpha                 82.205414
_cell_angle_beta                  90.635208
_cell_angle_gamma                 102.575848
_cell_volume                      1698.65703397

loop_
_atom_site_label
_atom_site_type_symbol
_atom_type_description
_atom_site_fract_x
_atom_site_fract_y
_atom_site_fract_z
_atom_type_partial_charge
C1    C     C_R   0.477251 0.438723 0.691111 0.862985
C2    C     C_R   0.439916 0.444677 0.972932 0.087525
C3    C     C_R   0.421059 0.469777 0.867093 0.060061
C4    C     C_R   0.741934 0.501231 0.498775 0.881769
C5    C     C_R   0.451972 0.530218 0.034484 0.089443
C6    C     C_R   0.424688 0.633265 0.993985 0.047120
C7    C     C_R   0.380180 0.647940 0.892762 -0.009987
C8    C     C_R   0.377127 0.565932 0.830849 -0.244941
C9    C     C_R   0.497274 0.516971 0.134001 -0.355310
C10   C     C_R   0.485863 0.702103 0.157054 0.506815
C11   C     C_R   0.449673 0.398972 0.800224 -0.131413
C12   C     C_3   0.120636 0.498915 0.498985 0.022367
C13   C     C_R   0.320248 0.087732 0.347216 -0.297084
C14   C     C_R   0.653052 0.799688 0.629583 0.017177
C15   C     C_R   0.684431 0.904341 0.658250 -0.233861
C16   C     C_R   0.513205 0.561379 0.308126 0.893415
C17   C     C_R   0.626108 0.985819 0.609515 -0.176252
C18   C     C_R   0.535625 0.962546 0.531359 0.021763
C19   C     C_R   0.506978 0.854446 0.505224 0.195974
C20   C     C_R   0.472830 0.041661 0.478173 -0.012420
C21   C     C_R   0.382800 0.010995 0.400695 0.166220
C22   C     C_R   0.356416 0.904221 0.376967 -0.255533
C23   C     C_3   0.063099 0.469363 0.393598 -0.206552
C24   C     C_R   0.418183 0.827448 0.428320 -0.160354
C25   C     C_R   0.495657 0.150794 0.498193 -0.046694
C26   C     C_R   0.347256 0.194208 0.370772 0.018027
C27   C     C_R   0.257946 0.499134 0.500908 0.837477
C28   C     C_3   0.904784 0.417394 0.588126 -0.537577
C29   C     C_3   0.048647 0.414776 0.589815 -0.177479
C30   C     C_3   0.917335 0.470196 0.393088 0.334649
C31   C     C_3   0.958894 0.617420 0.512162 -0.373359
C32   C     C_3   0.878539 0.502174 0.497543 0.069225
C33   C     C_3   0.804483 0.494378 0.238563 0.056194
C34   C     C_3   0.100882 0.615444 0.513945 -0.413300
C35   C     C_3   0.876727 0.444014 0.163820 -0.358477
C36   C     C_3   0.786440 0.392981 0.083760 -0.946407
C37   C     C_1   0.135086 0.542500 0.305255 0.226995
C38   C     C_3   0.606870 0.867225 0.191900 0.072685
C39   C     C_3   0.721133 0.841972 0.255466 -0.329209
C40   C     C_3   0.840621 0.934231 0.233093 -0.955036
C41   C     C_1   0.342521 0.747765 0.848475 0.153068
C42   C     C_1   0.470967 0.150718 0.986453 0.144682
C43   C     C_1   0.064175 0.300962 0.587978 0.187471
C44   C     C_R   0.443416 0.718631 0.055757 -0.280165
C45   C     C_R   0.504154 0.597390 0.197905 -0.172723
C46   C     C_R   0.465010 0.293300 0.839935 -0.233414
C47   C     C_R   0.459332 0.260366 0.945752 0.074748
C48   C     C_R   0.449333 0.335892 0.012229 -0.248877
H1    H     H_    0.843469 0.334711 0.581415 0.183105
H2    H     H_    0.288465 0.879986 0.317703 0.178423
H3    H     H_    0.251561 0.065611 0.287891 0.149513
H4    H     H_    0.562110 0.181980 0.555106 0.121707
H5    H     H_    0.697818 0.735840 0.667192 0.137558
H6    H     H_    0.653735 0.065564 0.634647 0.132734
H7    H     H_    0.753626 0.922276 0.718071 0.152985
H8    H     H_    0.395894 0.747666 0.404988 0.241224
H9    H     H_    0.088893 0.439864 0.663877 0.134957
H10   H     H_    0.864669 0.383654 0.388976 0.057054
H11   H     H_    0.073017 0.384861 0.384560 0.100838
H12   H     H_    0.152237 0.679177 0.452275 0.195984
H13   H     H_    0.941248 0.680568 0.448702 0.215713
H14   H     H_    0.931414 0.641846 0.585954 0.175927
H15   H     H_    0.140660 0.638199 0.588948 0.189332
H16   H     H_    0.762523 0.558702 0.193096 0.164049
H17   H     H_    0.722626 0.431859 0.277195 0.151327
H18   H     H_    0.954883 0.508992 0.123695 0.245394
H19   H     H_    0.920494 0.379279 0.206858 0.206452
H20   H     H_    0.708658 0.326377 0.122112 0.261925
H21   H     H_    0.841151 0.357400 0.030607 0.268335
H22   H     H_    0.743079 0.456392 0.037982 0.271595
H23   H     H_    0.423621 0.797997 0.026817 0.172026
H24   H     H_    0.587418 0.945727 0.210638 0.185678
H25   H     H_    0.631912 0.881015 0.107962 0.132590
H26   H     H_    0.696136 0.831682 0.338838 0.247061
H27   H     H_    0.743195 0.764188 0.237218 0.219558
H28   H     H_    0.868779 0.945417 0.150304 0.268019
H29   H     H_    0.921494 0.913126 0.279961 0.269571
H30   H     H_    0.822007 0.012473 0.253250 0.263188
H31   H     H_    0.527675 0.442918 0.164262 0.175816
H32   H     H_    0.483668 0.237282 0.788864 0.162263
H33   H     H_    0.446675 0.307070 0.093807 0.136169
H34   H     H_    0.876768 0.440313 0.662449 0.177619
H35   H     H_    0.340452 0.578220 0.753732 0.170309
H36   H     H_    0.300174 0.255084 0.330304 0.132949
N1    N     N_R   0.433240 0.222190 0.444680 -0.102077
N2    N     N_R   0.566070 0.776970 0.554790 -0.137919
N3    N     N_1   0.190937 0.599719 0.236284 -0.204636
N4    N     N_1   0.312564 0.827647 0.812805 -0.199088
N5    N     N_1   0.480253 0.062645 0.019160 -0.232678
N6    N     N_1   0.076240 0.211940 0.586565 -0.197068
O1    O     O_R   0.468120 0.366740 0.627160 -0.609116
O2    O     O_3   0.494866 0.784193 0.218703 -0.649721
O3    O     O_R   0.510770 0.544830 0.662520 -0.619593
O4    O     O_R   0.663880 0.410950 0.482330 -0.648391
O5    O     O_R   0.706530 0.589040 0.517700 -0.628575
O6    O     O_R   0.489230 0.455170 0.337480 -0.633388
O7    O     O_R   0.531880 0.633260 0.372840 -0.599710
O8    O     O_R   0.293470 0.410960 0.482300 -0.608706
O9    O     O_R   0.336120 0.589050 0.517670 -0.655750
O10   O     O_3   0.888489 0.546485 0.310098 -0.650983
Zn1   Zn    Zn3+2 0.471520 0.381090 0.476390 0.933884
Zn2   Zn    Zn3+2 0.528480 0.618910 0.523610 0.923136

loop_
_geom_bond_atom_site_label_1
_geom_bond_atom_site_label_2
_ccdc_geom_bond_type
C46   H32   S    
C27   O8    A    
C9    C45   A    
C38   O2    S    
C12   C29   S    
C8    H35   S    
C31   H13   S    
C35   C36   S    
C1    C11   S    
C19   N2    A    
C33   H17   S    
C7    C8    A    
C23   H11   S    
C12   C23   S    
C27   O9    A    
C28   C29   S    
C33   H16   S    
C38   C39   S    
C16   O7    A    
C20   C25   A    
C30   O10   S    
C48   H33   S    
C44   H23   S    
C18   C19   A    
C9    H31   S    
C39   H26   S    
C13   H3    S    
C47   C48   A    
O4    Zn1   S    
C39   H27   S    
C18   C20   A    
O7    Zn2   S    
O5    Zn2   S    
C22   H2    S    
C10   O2    S    
C1    O1    A    
C6    C44   A    
C21   C22   A    
C29   C43   S    
C34   H12   S    
C31   H14   S    
O1    Zn1   S    
C36   H22   S    
C38   H24   S    
C16   O6    A    
C43   N6    T    
C12   C27   S    
C28   H34   S    
C23   C30   S    
C28   C32   S    
C14   N2    A    
C3    C8    A    
C39   C40   S    
C35   H18   S    
C2    C48   A    
C23   C37   S    
C10   C44   A    
C40   H28   S    
C15   H7    S    
O3    Zn2   S    
C5    C9    A    
C4    O5    A    
C28   H1    S    
C31   C32   S    
C35   H19   S    
C14   H5    S    
C10   C45   A    
C25   N1    A    
C17   C18   A    
C31   C34   S    
C13   C21   A    
C4    C32   S    
C4    O4    A    
C29   H9    S    
C40   H30   S    
C13   C26   A    
C2    C5    A    
C12   C34   S    
N2    Zn2   S    
N1    Zn1   S    
C36   H21   S    
C15   C17   A    
C41   N4    T    
C46   C47   A    
C26   H36   S    
C40   H29   S    
C37   N3    T    
C16   C45   S    
C36   H20   S    
C6    C7    A    
C24   H8    S    
O8    Zn1   S    
C42   N5    T    
C33   O10   S    
C2    C3    A    
C25   H4    S    
C30   C32   S    
C5    C6    A    
C26   N1    A    
C30   H10   S    
C34   H15   S    
C33   C35   S    
C19   C24   A    
C22   C24   A    
C42   C47   S    
C7    C41   S    
C3    C11   A    
O9    Zn2   S    
C20   C21   A    
C1    O3    A    
C14   C15   A    
C11   C46   A    
O6    Zn1   S    
C17   H6    S    
C38   H25   S    
