data_mof_unit_35543.cif
_audit_creation_date              2012-12-11T15:47:05-0500
_audit_creation_method            fapswitch 2.2
_symmetry_space_group_name_H-M    P1
_symmetry_Int_Tables_number       1
_space_group_crystal_system       triclinic
_cell_length_a                    20.234109
_cell_length_b                    7.25967
_cell_length_c                    13.555893
_cell_angle_alpha                 90.360206
_cell_angle_beta                  103.305509
_cell_angle_gamma                 89.733901
_cell_volume                      1937.7643827

loop_
_atom_site_label
_atom_site_type_symbol
_atom_type_description
_atom_site_fract_x
_atom_site_fract_y
_atom_site_fract_z
_atom_type_partial_charge
O1    O     O_R   0.449560 0.506810 0.599700 -0.534237
O2    O     O_R   0.550440 0.006810 0.400300 -0.537548
O3    O     O_R   0.587960 0.180060 0.595760 -0.535002
O4    O     O_R   0.412040 0.680060 0.404240 -0.534122
C1    C     C_R   0.615850 0.343598 0.614722 0.681877
C2    C     C_R   0.384224 0.843790 0.384898 0.683836
O5    O     O_R   0.452380 0.177430 0.611700 -0.543567
O6    O     O_R   0.547620 0.677430 0.388300 -0.540620
O7    O     O_R   0.413900 0.001890 0.416350 -0.538204
O8    O     O_R   0.586100 0.501890 0.583650 -0.538245
C3    C     C_R   0.436469 0.346207 0.637450 0.680500
C4    C     C_R   0.564106 0.845068 0.363180 0.676404
O9    O     O_3   0.487530 0.337490 0.435890 -0.377237
O10   O     O_3   0.512470 0.837490 0.564110 -0.377834
V1    V     V_3+5 0.502310 0.064660 0.511890 1.435100
V2    V     V_3+5 0.497690 0.564660 0.488110 1.443736
C5    C     C_R   0.612211 0.895195 0.114937 -0.166252
C6    C     C_R   0.387007 0.408732 0.884204 -0.165642
H1    H     H_    0.519806 0.905980 0.165821 0.122116
H2    H     H_    0.480485 0.394412 0.836473 0.121824
H3    H     H_    0.693138 0.892324 0.987286 0.124827
H4    H     H_    0.304460 0.467247 0.006010 0.126789
H5    H     H_    0.585973 0.915332 0.036499 0.124848
H6    H     H_    0.412722 0.437827 0.962087 0.125343
C7    C     C_R   0.606184 0.852196 0.288943 -0.105194
C8    C     C_R   0.394120 0.355193 0.711326 -0.098382
C9    C     C_R   0.933908 0.875261 0.317628 -0.163010
C10   C     C_R   0.067187 0.287967 0.688239 -0.160555
C11   C     C_R   0.899376 0.891681 0.394626 -0.145206
C12   C     C_R   0.102880 0.235678 0.616740 -0.146310
C13   C     C_R   0.828653 0.891370 0.372140 -0.095766
C14   C     C_R   0.173306 0.250571 0.638328 -0.095791
C15   C     C_R   0.790242 0.866767 0.271389 0.088577
C16   C     C_R   0.210077 0.329204 0.730744 0.087871
C17   C     C_R   0.826054 0.863454 0.192289 0.053948
C18   C     C_R   0.173272 0.371986 0.806019 0.052825
C19   C     C_R   0.717502 0.858898 0.245827 0.045090
C20   C     C_R   0.282361 0.355047 0.753848 0.043158
C21   C     C_R   0.683040 0.879149 0.142341 0.085662
C22   C     C_R   0.316083 0.397549 0.855734 0.085416
C23   C     C_R   0.719340 0.881683 0.066386 -0.183370
C24   C     C_R   0.278952 0.431644 0.928877 -0.185486
C25   C     C_R   0.789544 0.867612 0.090589 -0.189870
C26   C     C_R   0.208700 0.424339 0.903902 -0.195043
C27   C     C_R   0.677685 0.827587 0.318201 0.269748
C28   C     C_R   0.322361 0.344373 0.679977 0.267122
C29   C     C_R   0.574427 0.888324 0.188215 -0.211323
C30   C     C_R   0.425674 0.384415 0.812900 -0.217698
C31   C     C_R   0.897972 0.864029 0.216657 -0.066347
C32   C     C_R   0.101740 0.352131 0.783379 -0.069143
H7    H     H_    0.988933 0.878714 0.336469 0.108091
H8    H     H_    0.012634 0.268733 0.671387 0.108822
H9    H     H_    0.805689 0.921810 0.434599 0.180869
H10   H     H_    0.197307 0.188184 0.583406 0.175231
H11   H     H_    0.927608 0.909578 0.472245 0.126304
H12   H     H_    0.076003 0.176324 0.545340 0.125904
H13   H     H_    0.815090 0.866974 0.028633 0.116250
H14   H     H_    0.182480 0.455426 0.963223 0.123575
C33   C     C_R   0.226130 0.013532 0.197768 -0.134022
C34   C     C_R   0.773245 0.512196 0.803631 -0.132893
H15   H     H_    0.210218 0.138479 0.155517 0.136018
H16   H     H_    0.788472 0.636158 0.847751 0.131375
C35   C     C_R   0.290663 0.008063 0.263191 -0.177776
C36   C     C_R   0.708743 0.506646 0.738154 -0.174449
H17   H     H_    0.322817 0.128320 0.268632 0.157340
H18   H     H_    0.675910 0.625887 0.734550 0.152315
C37   C     C_R   0.313833 0.849044 0.319625 -0.148652
C38   C     C_R   0.686360 0.348721 0.679502 -0.139587
C39   C     C_R   0.269239 0.695193 0.310378 0.360025
C40   C     C_R   0.731792 0.196083 0.686244 0.358880
C41   C     C_R   0.206107 0.699764 0.241200 -0.157639
C42   C     C_R   0.794978 0.200690 0.755574 -0.159282
H19   H     H_    0.173434 0.580347 0.234896 0.146182
H20   H     H_    0.828368 0.082338 0.760234 0.143010
C43   C     C_R   0.183318 0.858856 0.185399 -0.122304
C44   C     C_R   0.816867 0.358641 0.813872 -0.116721
O11   O     O_R   0.913920 0.203370 0.916260 -0.540646
O12   O     O_R   0.086080 0.703370 0.083740 -0.542154
O13   O     O_R   0.047620 0.535540 0.888290 -0.539534
O14   O     O_R   0.952380 0.035540 0.111710 -0.537625
C45   C     C_R   0.063337 0.367303 0.862184 0.679608
C46   C     C_R   0.936627 0.868940 0.137881 0.681436
O15   O     O_R   0.912040 0.532780 0.904220 -0.542131
O16   O     O_R   0.087960 0.032780 0.095780 -0.541809
O17   O     O_R   0.949550 0.708160 0.099720 -0.536649
O18   O     O_R   0.050450 0.208160 0.900280 -0.536352
C47   C     C_R   0.885500 0.364968 0.883171 0.693971
C48   C     C_R   0.114573 0.864994 0.116582 0.693901
O19   O     O_3   0.012480 0.375300 0.064060 -0.378261
O20   O     O_3   0.987520 0.875300 0.935940 -0.379222
V3    V     V_3+5 0.997690 0.648180 0.988110 1.418354
V4    V     V_3+5 0.002310 0.148180 0.011890 1.422227
O21   O     O_3   0.284136 0.540404 0.369608 -0.638961
H21   H     H_    0.308516 0.580960 0.438121 0.308574
O22   O     O_3   0.717646 0.042366 0.624892 -0.644398
H22   H     H_    0.691514 0.082346 0.557375 0.292112
O23   O     O_3   0.708762 0.759220 0.412735 -0.657818
H23   H     H_    0.675606 0.738862 0.454802 0.297871
O24   O     O_3   0.290844 0.344279 0.578111 -0.660285
H24   H     H_    0.321559 0.293064 0.537629 0.291312

loop_
_geom_bond_atom_site_label_1
_geom_bond_atom_site_label_2
_ccdc_geom_bond_type
O15   C47   A    
C28   O24   S    
C35   H17   S    
O11   V4    S    
O4    V2    S    
O21   H21   S    
C7    C27   A    
C9    C11   A    
O22   H22   S    
O1    C3    A    
C42   C44   A    
O2    C4    A    
C2    O7    A    
O23   H23   S    
O17   V3    S    
C18   C32   A    
O8    V2    S    
C21   C23   A    
O5    C3    A    
C5    H5    S    
C6    H6    S    
C36   C38   A    
C20   C22   A    
C39   O21   S    
H1    C29   S    
C34   H16   S    
C5    C21   A    
C39   C41   A    
C6    C22   A    
C10   C32   A    
C26   H14   S    
C17   C31   A    
C13   C15   A    
C12   C14   A    
C17   C25   A    
C7    C29   A    
O13   V3    S    
C45   O18   A    
C8    C30   A    
C22   C24   A    
O6    V2    S    
C23   C25   A    
C24   C26   A    
C1    C38   S    
C14   H10   S    
C9    H7    S    
C19   C21   A    
C35   C37   A    
C33   H15   S    
O16   C48   A    
C42   H20   S    
O13   C45   A    
C25   H13   S    
C11   H11   S    
C3    C8    S    
C12   H12   S    
C34   C44   A    
C15   C19   A    
C37   C39   A    
C14   C16   A    
C31   C46   S    
O14   V4    S    
O24   H24   S    
O6    C4    A    
O1    V2    S    
C13   H9    S    
O19   V4    S    
O2    V1    S    
C44   C47   S    
H2    C30   S    
H3    C23   S    
O4    C2    A    
C2    C37   S    
C18   C26   A    
C19   C27   A    
C33   C43   A    
O3    V1    S    
C41   H19   S    
O12   C48   A    
C16   C20   A    
C5    C29   A    
O3    C1    A    
C6    C30   A    
C40   C42   A    
O12   V3    S    
C46   O17   A    
O15   V3    S    
C33   C35   A    
C4    C7    S    
C34   C36   A    
C10   C12   A    
C40   O22   S    
O7    V1    S    
C1    O8    A    
C11   C13   A    
C27   O23   S    
C41   C43   A    
C10   H8    S    
O20   V3    S    
H4    C24   S    
O5    V1    S    
C15   C17   A    
O14   C46   A    
C16   C18   A    
C20   C28   A    
C8    C28   A    
C43   C48   S    
O11   C47   A    
C38   C40   A    
O9    V2    S    
O10   V1    S    
O18   V4    S    
O16   V4    S    
C9    C31   A    
C32   C45   S    
C36   H18   S    
