data_mof_unit_68176.cif
_audit_creation_date              2012-12-11T16:30:30-0500
_audit_creation_method            fapswitch 2.2
_symmetry_space_group_name_H-M    P1
_symmetry_Int_Tables_number       1
_space_group_crystal_system       triclinic
_cell_length_a                    6.957838
_cell_length_b                    14.566472
_cell_length_c                    16.023353
_cell_angle_alpha                 89.999768
_cell_angle_beta                  89.52756
_cell_angle_gamma                 89.999389
_cell_volume                      1623.93008443

loop_
_atom_site_label
_atom_site_type_symbol
_atom_type_description
_atom_site_fract_x
_atom_site_fract_y
_atom_site_fract_z
_atom_type_partial_charge
O1    O     O_R   0.611670 0.415650 0.164070 -0.539214
O2    O     O_R   0.388330 0.915650 0.835930 -0.539214
O3    O     O_R   0.940950 0.405490 0.337780 -0.532285
O4    O     O_R   0.059050 0.905490 0.662220 -0.532286
O5    O     O_R   0.111350 0.584350 0.338470 -0.540439
O6    O     O_R   0.888650 0.084350 0.661530 -0.540442
C1    C     C_R   0.771403 0.383524 0.367277 0.718307
C2    C     C_R   0.228598 0.883526 0.632720 0.718320
O7    O     O_R   0.941380 0.404630 0.164680 -0.545206
O8    O     O_R   0.058620 0.904630 0.835320 -0.545206
O9    O     O_R   0.111780 0.583470 0.164130 -0.537027
O10   O     O_R   0.888220 0.083470 0.835870 -0.537028
C3    C     C_R   0.773005 0.383117 0.135633 0.692727
C4    C     C_R   0.226995 0.883119 0.864367 0.692729
O11   O     O_R   0.611240 0.416530 0.338400 -0.535872
O12   O     O_R   0.388760 0.916530 0.661600 -0.535873
O13   O     O_3   0.778020 0.558680 0.251290 -0.378567
O14   O     O_3   0.221980 0.058680 0.748710 -0.378568
V1    V     V_3+5 0.052840 0.489110 0.251260 1.421414
V2    V     V_3+5 0.947160 0.989110 0.748740 1.421408
O15   O     O_R   0.441500 0.594510 0.164760 -0.547115
O16   O     O_R   0.558500 0.094510 0.835240 -0.547115
C5    C     C_R   0.273313 0.618016 0.137298 0.697308
C6    C     C_R   0.726685 0.118015 0.862703 0.697300
O17   O     O_R   0.441080 0.595370 0.337860 -0.547611
O18   O     O_R   0.558920 0.095370 0.662140 -0.547608
C7    C     C_R   0.271015 0.618172 0.366583 0.730681
C8    C     C_R   0.728984 0.118171 0.633417 0.730680
V3    V     V_3+5 0.552850 0.510890 0.251270 1.402638
V4    V     V_3+5 0.447150 0.010890 0.748730 1.402644
O19   O     O_3   0.277800 0.441320 0.251250 -0.365820
O20   O     O_3   0.722200 0.941320 0.748750 -0.365822
C9    C     C_3   0.065602 0.683123 0.487233 -0.351431
C10   C     C_3   0.934409 0.183129 0.512777 -0.351430
H1    H     H_    0.932737 0.676776 0.450601 0.119060
H2    H     H_    0.067258 0.176801 0.549418 0.119058
H3    H     H_    0.069736 0.617742 0.522029 0.196302
H4    H     H_    0.930322 0.117743 0.477991 0.196297
C11   C     C_3   0.046557 0.763549 0.549824 -0.349235
C12   C     C_3   0.953445 0.263547 0.450177 -0.349222
H5    H     H_    0.997750 0.735982 0.611046 0.136915
H6    H     H_    0.002251 0.235972 0.388957 0.136912
H7    H     H_    0.933718 0.811987 0.529573 0.200826
H8    H     H_    0.066282 0.311988 0.470422 0.200830
C13   C     C_3   0.288445 0.790785 0.401156 0.252796
C14   C     C_3   0.711521 0.290781 0.598839 0.252821
C15   C     C_3   0.418028 0.673858 0.501619 -0.412250
C16   C     C_3   0.581994 0.173848 0.498373 -0.412266
C17   C     C_3   0.256973 0.690425 0.435930 -0.026990
C18   C     C_3   0.743024 0.190423 0.564069 -0.027009
H9    H     H_    0.562082 0.685620 0.472909 0.141930
H10   H     H_    0.437935 0.185599 0.527079 0.141942
H11   H     H_    0.413980 0.601568 0.523193 0.181817
H12   H     H_    0.586072 0.101562 0.476797 0.181844
C19   C     C_3   0.241222 0.814697 0.560062 0.012597
C20   C     C_3   0.758778 0.314694 0.439935 0.012597
C21   C     C_3   0.296639 0.863862 0.474652 0.344152
C22   C     C_3   0.703345 0.363857 0.525342 0.344162
C23   C     C_3   0.392714 0.737988 0.578635 -0.423844
C24   C     C_3   0.607298 0.237983 0.421360 -0.423857
H13   H     H_    0.344426 0.696667 0.633368 0.160118
H14   H     H_    0.655590 0.196666 0.366625 0.160109
H15   H     H_    0.534502 0.767362 0.595755 0.173713
H16   H     H_    0.465506 0.267354 0.404242 0.173711
H17   H     H_    0.435714 0.787857 0.373373 0.037325
H18   H     H_    0.564248 0.287847 0.626612 0.037338
H19   H     H_    0.214796 0.569069 0.755958 0.095931
H20   H     H_    0.785033 0.069056 0.244062 0.095903
C25   C     C_R   0.290707 0.940955 0.035566 -0.270325
C26   C     C_R   0.709259 0.440952 0.964438 -0.270332
C27   C     C_R   0.336919 0.971292 0.117000 0.456493
C28   C     C_R   0.663023 0.471288 0.883006 0.456488
C29   C     C_R   0.377767 0.905285 0.177190 -0.145711
C30   C     C_R   0.622182 0.405281 0.822816 -0.145705
C31   C     C_R   0.356351 0.812085 0.160935 -0.202394
C32   C     C_R   0.643621 0.312081 0.839070 -0.202404
C33   C     C_R   0.297839 0.780825 0.082161 0.043659
C34   C     C_R   0.702149 0.280823 0.917842 0.043658
C35   C     C_R   0.274098 0.846100 0.016851 0.027800
C36   C     C_R   0.725890 0.346097 0.983151 0.027800
C37   C     C_R   0.266383 0.685985 0.067517 -0.175454
C38   C     C_R   0.733615 0.185984 0.932485 -0.175441
C39   C     C_R   0.234752 0.655572 0.984998 0.046905
C40   C     C_R   0.765245 0.155571 0.015004 0.046879
C41   C     C_R   0.225483 0.720089 0.918154 0.059817
C42   C     C_R   0.774508 0.220087 0.081848 0.059798
C43   C     C_R   0.237189 0.815656 0.934333 -0.169066
C44   C     C_R   0.762810 0.315654 0.065668 -0.169069
C45   C     C_R   0.223715 0.560733 0.966801 -0.175012
C46   C     C_R   0.776272 0.060731 0.033202 -0.175064
C47   C     C_R   0.211237 0.530230 0.884861 -0.084258
C48   C     C_R   0.788707 0.030226 0.115146 -0.084246
C49   C     C_R   0.211517 0.592953 0.819508 -0.048426
C50   C     C_R   0.788400 0.092948 0.180501 -0.048373
C51   C     C_R   0.214041 0.686792 0.835562 -0.147475
C52   C     C_R   0.785914 0.186788 0.164443 -0.147462
H21   H     H_    0.269692 0.990686 0.986561 0.096231
H22   H     H_    0.730266 0.490684 0.013441 0.096244
H23   H     H_    0.425089 0.926665 0.238275 0.146074
H24   H     H_    0.574846 0.426661 0.761733 0.146100
H25   H     H_    0.387408 0.764613 0.210845 0.150131
H26   H     H_    0.612566 0.264610 0.789160 0.150146
H27   H     H_    0.229925 0.509050 0.015208 0.110966
H28   H     H_    0.770069 0.009049 0.984795 0.110975
H29   H     H_    0.208554 0.457429 0.872365 0.114596
H30   H     H_    0.791355 0.957422 0.127647 0.114590
H31   H     H_    0.212676 0.732749 0.782516 0.076410
H32   H     H_    0.787255 0.232743 0.217492 0.076401
C53   C     C_1   0.498374 0.898767 0.484292 0.129298
N1    N     N_1   0.653816 0.925592 0.491716 -0.396060
C54   C     C_1   0.501612 0.398763 0.515697 0.129284
N2    N     N_1   0.346175 0.425594 0.508271 -0.396039
O21   O     O_3   0.355597 0.062788 0.142005 -0.558957
C55   C     C_3   0.281098 0.127406 0.085223 0.081381
H33   H     H_    0.135287 0.108131 0.065046 0.135330
H34   H     H_    0.376584 0.133750 0.029746 0.134128
C56   C     C_3   0.266929 0.220653 0.127752 -0.630237
H35   H     H_    0.410226 0.244370 0.147802 0.219522
H36   H     H_    0.206381 0.271871 0.083880 0.174177
H37   H     H_    0.173260 0.216055 0.183947 0.207385
O22   O     O_3   0.644293 0.562784 0.858010 -0.558950
C57   C     C_3   0.718870 0.627402 0.914766 0.081378
H38   H     H_    0.864687 0.608116 0.934925 0.135321
H39   H     H_    0.623439 0.633765 0.970257 0.134132
C58   C     C_3   0.733033 0.720640 0.872222 -0.630248
H40   H     H_    0.589737 0.744350 0.852162 0.219536
H41   H     H_    0.793559 0.771866 0.916087 0.174182
H42   H     H_    0.826712 0.716035 0.816034 0.207365
O23   O     O_3   0.175298 0.819957 0.331392 -0.563672
C59   C     C_3   0.977280 0.798155 0.334529 0.153890
H43   H     H_    0.907899 0.824127 0.392136 0.171008
H44   H     H_    0.956469 0.724141 0.326500 0.138361
C60   C     C_3   0.871955 0.839151 0.260485 -0.767190
H45   H     H_    0.962700 0.836395 0.203301 0.240005
H46   H     H_    0.738292 0.799647 0.248861 0.177173
H47   H     H_    0.827895 0.910511 0.273836 0.201383
O24   O     O_3   0.824637 0.319957 0.668608 -0.563666
C61   C     C_3   0.022657 0.298160 0.665482 0.153913
H48   H     H_    0.092047 0.324123 0.607873 0.171006
H49   H     H_    0.043478 0.224147 0.673524 0.138352
C62   C     C_3   0.127959 0.339172 0.739521 -0.767193
H50   H     H_    0.037222 0.336410 0.796706 0.240001
H51   H     H_    0.261641 0.299686 0.751145 0.177166
H52   H     H_    0.171977 0.410534 0.726169 0.201406
O25   O     O_3   0.163071 0.936707 0.459307 -0.557816
C63   C     C_3   0.235192 0.008062 0.406637 0.159399
H53   H     H_    0.369349 0.991000 0.371815 0.112412
H54   H     H_    0.263236 0.068832 0.446165 0.106368
C64   C     C_3   0.088934 0.034623 0.341323 -0.702849
H55   H     H_    0.114233 0.106324 0.320713 0.168262
H56   H     H_    0.106424 0.990700 0.285507 0.251209
H57   H     H_    0.940625 0.027464 0.366313 0.221505
O26   O     O_3   0.836919 0.436698 0.540694 -0.557807
C65   C     C_3   0.764783 0.508075 0.593331 0.159392
H58   H     H_    0.630587 0.491040 0.628131 0.112433
H59   H     H_    0.736814 0.568835 0.553784 0.106377
C66   C     C_3   0.910981 0.534637 0.658670 -0.702997
H60   H     H_    0.885700 0.606335 0.679257 0.168262
H61   H     H_    0.893428 0.490738 0.714487 0.251209
H62   H     H_    0.059294 0.527458 0.633715 0.221515

loop_
_geom_bond_atom_site_label_1
_geom_bond_atom_site_label_2
_ccdc_geom_bond_type
C13   O23   S    
C66   H60   S    
O11   V3    S    
C19   C23   S    
C28   O22   S    
O13   V3    S    
C47   H29   S    
C54   N2    T    
O4    C2    A    
V1    O19   S    
C35   C43   A    
O25   C63   S    
C64   H55   S    
C11   H5    S    
C16   H12   S    
C13   C21   S    
C9    C11   S    
C30   C32   A    
C10   C12   S    
C40   C42   A    
C4    C43   S    
C14   H18   S    
C16   H10   S    
O3    C1    A    
C64   H56   S    
C42   C44   A    
C9    C17   S    
C30   H24   S    
C27   O21   S    
C24   H14   S    
C2    O12   A    
C25   C27   A    
O7    C3    A    
C6    C38   S    
O13   V1    S    
O5    C7    A    
C8    C18   S    
O7    V1    S    
C21   C53   S    
O8    V2    S    
C12   C20   S    
C58   H42   S    
O3    V1    S    
O14   V4    S    
C13   C17   S    
C20   C22   S    
C45   C47   A    
C5    C37   S    
C65   H59   S    
C15   H11   S    
C16   C18   S    
C52   H32   S    
C66   H61   S    
C14   C22   S    
O17   V3    S    
C29   C31   A    
C40   C46   A    
C1    C20   S    
C2    C19   S    
O1    V3    S    
C37   C39   A    
C16   C24   S    
C63   H54   S    
C33   C35   A    
O15   C5    A    
C32   H26   S    
C39   C45   A    
C11   C19   S    
C10   C18   S    
C23   H13   S    
C63   H53   S    
C41   C43   A    
C26   C36   A    
C22   C54   S    
C65   C66   S    
C28   C30   A    
O8    C4    A    
C64   H57   S    
C27   C29   A    
C15   H9    S    
C1    O11   A    
O15   V3    S    
C9    H3    S    
C20   C24   S    
C62   H51   S    
C14   O24   S    
C59   H44   S    
C22   O26   S    
C47   C49   A    
C63   C64   S    
C21   O25   S    
C34   C38   A    
C46   C48   A    
C33   C37   A    
O9    V1    S    
O10   V2    S    
C48   C50   A    
C65   H58   S    
C34   C36   A    
C42   C52   A    
C50   C52   A    
C31   C33   A    
C46   H28   S    
O22   C57   S    
C51   H31   S    
C60   H47   S    
C48   H30   S    
C39   C41   A    
O18   V4    S    
C66   H62   S    
C38   C40   A    
C19   C21   S    
C13   H17   S    
C60   H45   S    
C61   H49   S    
O16   C6    A    
C62   H52   S    
C59   C60   S    
O1    C3    A    
C57   H39   S    
C58   H41   S    
O21   C55   S    
V2    O20   S    
C29   H23   S    
C14   C18   S    
C31   H25   S    
O16   V4    S    
C10   H4    S    
O18   C8    A    
C32   C34   A    
C12   H6    S    
C61   C62   S    
C55   H34   S    
C55   H33   S    
C36   C44   A    
O5    V1    S    
C15   C17   S    
O6    V2    S    
O24   C61   S    
O10   C6    A    
C23   H15   S    
O2    V4    S    
C24   H16   S    
C57   C58   S    
C56   H36   S    
C59   H43   S    
O23   C59   S    
V3    O19   S    
C62   H50   S    
V4    O20   S    
C41   C51   A    
C58   H40   S    
C3    C44   S    
O9    C5    A    
C9    H1    S    
C10   H2    S    
C56   H37   S    
O14   V2    S    
O2    C4    A    
H20   C50   S    
C55   C56   S    
C25   C35   A    
C61   H48   S    
C15   C23   S    
O4    V2    S    
C7    C17   S    
O6    C8    A    
C12   H8    S    
C11   H7    S    
C49   C51   A    
C53   N1    T    
H19   C49   S    
C60   H46   S    
C26   C28   A    
C57   H38   S    
C56   H35   S    
O12   V4    S    
C45   H27   S    
C26   H22   S    
O26   C65   S    
O17   C7    A    
C25   H21   S    
