data_mof_unit_34695.cif
_audit_creation_date              2012-10-26T17:46:31-0400
_audit_creation_method            fapswitch 2.2
_symmetry_space_group_name_H-M    P1
_symmetry_Int_Tables_number       1
_space_group_crystal_system       triclinic
_cell_length_a                    18.781441
_cell_length_b                    18.736296
_cell_length_c                    19.07032
_cell_angle_alpha                 109.705927
_cell_angle_beta                  109.628042
_cell_angle_gamma                 109.260372
_cell_volume                      5154.31478199

loop_
_atom_site_label
_atom_site_type_symbol
_atom_type_description
_atom_site_fract_x
_atom_site_fract_y
_atom_site_fract_z
_atom_type_partial_charge
C1    C     C_R   0.384778 0.503117 0.382570 0.530134
C2    C     C_R   0.823699 0.819746 0.575401 -0.049702
C3    C     C_R   0.294012 0.337004 0.755699 -0.101417
C4    C     C_R   0.336156 0.302004 0.796925 -0.077640
C5    C     C_R   0.087087 0.322166 0.827938 0.241192
C6    C     C_R   0.006344 0.314378 0.819966 -0.010248
C7    C     C_R   0.926223 0.244876 0.745586 -0.074066
C8    C     C_R   0.926041 0.183580 0.679457 -0.118077
C9    C     C_R   0.004190 0.189298 0.686494 -0.049090
C10   C     C_R   0.812661 0.810859 0.495742 0.010486
C11   C     C_R   0.735892 0.739611 0.417509 -0.000906
C12   C     C_R   0.676380 0.676041 0.422546 -0.104898
C13   C     C_R   0.686842 0.686268 0.501881 0.023471
C14   C     C_R   0.759905 0.759598 0.579270 0.024023
C15   C     C_R   0.626140 0.702929 0.272290 -0.102490
C16   C     C_R   0.602752 0.694276 0.190988 -0.009897
C17   C     C_R   0.664814 0.712029 0.165290 0.278337
C18   C     C_R   0.619696 0.619097 0.501288 0.544369
C19   C     C_R   0.758280 0.792979 0.811912 -0.070064
C20   C     C_R   0.751000 0.738123 0.222183 -0.038705
C21   C     C_R   0.773689 0.744576 0.302746 -0.029099
C22   C     C_R   0.712466 0.729846 0.330234 0.046546
C23   C     C_R   0.508048 0.795109 0.525308 -0.105728
C24   C     C_R   0.432980 0.713061 0.467068 -0.059283
C25   C     C_R   0.410509 0.669357 0.380639 -0.024868
C26   C     C_R   0.461375 0.711652 0.352351 -0.086927
C27   C     C_R   0.535961 0.794824 0.409491 0.284750
C28   C     C_R   0.560449 0.837135 0.497896 0.269544
C29   C     C_R   0.264043 0.578427 0.250872 -0.097020
C30   C     C_R   0.085047 0.258051 0.760541 -0.061645
C31   C     C_R   0.615572 0.497003 0.617809 0.590391
C32   C     C_R   0.188432 0.498398 0.186217 0.056502
C33   C     C_R   0.177541 0.420314 0.186934 0.033415
C34   C     C_R   0.243167 0.424537 0.252834 -0.092956
C35   C     C_R   0.318733 0.504574 0.317336 0.039993
C36   C     C_R   0.329756 0.582958 0.317190 -0.002475
C37   C     C_R   0.026058 0.291302 0.117566 0.220095
C38   C     C_R   0.957635 0.206004 0.047488 0.237452
C39   C     C_R   0.961893 0.170629 0.971497 0.177123
C40   C     C_R   0.038827 0.210435 0.971670 -0.010628
C41   C     C_R   0.793778 0.186895 0.758455 0.002809
C42   C     C_R   0.110794 0.287928 0.043308 0.184462
C43   C     C_R   0.378234 0.381177 0.496820 0.548009
C44   C     C_R   0.103287 0.332419 0.114914 -0.059624
C45   C     C_R   0.221731 0.524095 0.605780 0.197624
C46   C     C_R   0.229905 0.449699 0.592024 -0.085964
C47   C     C_R   0.234507 0.404203 0.519697 -0.043775
C48   C     C_R   0.229952 0.433719 0.460532 0.022609
C49   C     C_R   0.222279 0.508461 0.473939 0.253790
C50   C     C_R   0.217856 0.553393 0.546814 -0.101804
C51   C     C_R   0.180283 0.257894 0.505862 -0.129224
C52   C     C_R   0.716109 0.183862 0.751278 -0.071626
C53   C     C_R   0.187144 0.184103 0.499247 0.006316
C54   C     C_R   0.257310 0.176362 0.492413 0.012404
C55   C     C_R   0.724531 0.830873 0.768265 -0.090522
C56   C     C_R   0.314065 0.239029 0.484769 -0.066358
C57   C     C_R   0.308899 0.313857 0.493953 0.021895
C58   C     C_R   0.241984 0.324689 0.505977 -0.017113
C59   C     C_R   0.351212 0.121135 0.558362 0.243439
C60   C     C_R   0.373032 0.055348 0.550056 -0.072525
C61   C     C_R   0.321098 0.973232 0.475662 0.208297
C62   C     C_R   0.244231 0.955121 0.409786 0.011898
C63   C     C_R   0.685123 0.230056 0.717737 -0.059064
C64   C     C_R   0.221259 0.019785 0.414861 0.183138
C65   C     C_R   0.273884 0.103748 0.490555 -0.000681
C66   C     C_2   0.738485 0.486460 0.816414 0.214672
C67   C     C_R   0.728690 0.822171 0.694434 -0.084980
C68   C     C_2   0.819802 0.512422 0.828995 -0.067043
C69   C     C_2   0.679381 0.503795 0.758001 0.228099
C70   C     C_2   0.675057 0.487372 0.681890 -0.052419
C71   C     C_R   0.996901 0.876879 0.382182 0.518335
C72   C     C_R   0.880603 0.879604 0.498196 0.521099
C73   C     C_R   0.000628 0.120115 0.618223 0.543065
C74   C     C_R   0.732027 0.279857 0.691777 -0.075748
C75   C     C_R   0.119398 0.116990 0.498550 0.538172
C76   C     C_R   0.004995 0.381054 0.886181 0.568331
C77   C     C_R   0.121504 0.498895 0.120188 0.578952
C78   C     C_R   0.003035 0.619484 0.121237 0.559581
C79   C     C_R   0.767638 0.776429 0.663940 0.023850
C80   C     C_R   0.884894 0.502823 0.887738 0.572040
C81   C     C_R   0.022658 0.726302 0.522473 -0.110550
C82   C     C_R   0.041890 0.743753 0.463414 0.221082
C83   C     C_R   0.973313 0.706471 0.378266 -0.072643
C84   C     C_R   0.888490 0.640343 0.350571 0.242879
C85   C     C_R   0.810356 0.284027 0.699930 -0.084840
C86   C     C_R   0.871550 0.622279 0.411163 0.254648
C87   C     C_R   0.938546 0.667399 0.497152 -0.147708
C88   C     C_R   0.996538 0.672177 0.253648 -0.014858
C89   C     C_R   0.005443 0.687469 0.189300 0.064609
C90   C     C_R   0.011271 0.764438 0.188929 0.067298
C91   C     C_R   0.804917 0.740911 0.710163 0.252483
C92   C     C_R   0.002502 0.821388 0.250166 -0.054989
C93   C     C_R   0.996185 0.807979 0.315995 0.010223
C94   C     C_R   0.991148 0.731147 0.317052 0.046987
C95   C     C_R   0.113957 0.823966 0.141500 0.211702
C96   C     C_R   0.841584 0.237534 0.733379 0.047875
C97   C     C_R   0.135190 0.861517 0.093860 -0.135108
C98   C     C_R   0.074359 0.870851 0.036562 0.151547
C99   C     C_R   0.989313 0.840517 0.025343 0.239795
C100  C     C_R   0.964922 0.795258 0.066767 0.212943
C101  C     C_R   0.028442 0.790183 0.127934 0.016644
C102  C     C_R   0.293556 0.244999 0.820330 0.336782
C103  C     C_R   0.798374 0.748276 0.783158 -0.038173
C104  C     C_R   0.209444 0.226371 0.805765 0.391213
C105  C     C_R   0.167982 0.264787 0.766365 0.019712
C106  C     C_R   0.210105 0.317946 0.739791 -0.111565
Cu1   Cu    Cu3+1 0.499580 0.561790 0.561390 0.995504
Cu2   Cu    Cu3+1 0.500420 0.438210 0.438610 1.035121
Cu3   Cu    Cu3+1 0.061410 0.999960 0.561370 1.115795
Cu4   Cu    Cu3+1 0.938590 0.000000 0.438590 1.026160
Cu5   Cu    Cu3+1 0.065060 0.561820 0.003180 1.123778
Cu6   Cu    Cu3+1 0.941450 0.438250 0.003210 1.113070
H1    H     H_    0.753624 0.798732 0.868355 0.214869
H2    H     H_    0.043118 0.179757 0.915030 0.189211
H3    H     H_    0.211098 0.610723 0.557295 0.172407
H4    H     H_    0.233017 0.427326 0.637875 0.141290
H5    H     H_    0.232220 0.398552 0.403862 0.142455
H6    H     H_    0.698625 0.848331 0.659104 0.199555
H7    H     H_    0.127233 0.264195 0.512665 0.135161
H8    H     H_    0.366366 0.231776 0.476960 0.164004
H9    H     H_    0.433312 0.069572 0.600444 0.164048
H10   H     H_    0.203655 0.891499 0.352149 0.226512
H11   H     H_    0.842000 0.548247 0.799150 0.104809
H12   H     H_    0.800312 0.752285 0.203791 0.197420
H13   H     H_    0.711641 0.458506 0.662527 0.042881
H14   H     H_    0.926767 0.652917 0.543723 0.224493
H15   H     H_    0.073987 0.755688 0.588053 0.187370
H16   H     H_    0.991891 0.612877 0.253600 0.173830
H17   H     H_    0.002635 0.878253 0.247492 0.195098
H18   H     H_    0.200552 0.885830 0.103485 0.165190
H19   H     H_    0.824496 0.719569 0.818098 0.204268
H20   H     H_    0.402379 0.319730 0.811283 0.172153
H21   H     H_    0.179204 0.347664 0.710055 0.152040
H22   H     H_    0.327121 0.380455 0.737497 0.179003
H23   H     H_    0.839081 0.760824 0.343659 0.104300
H24   H     H_    0.864389 0.130262 0.622582 0.194805
H25   H     H_    0.880459 0.876027 0.635034 0.172792
H26   H     H_    0.817523 0.151250 0.784895 0.172754
H27   H     H_    0.680095 0.146024 0.772069 0.137235
H28   H     H_    0.625010 0.227499 0.712265 0.180314
H29   H     H_    0.708090 0.315836 0.666092 0.130907
H30   H     H_    0.846978 0.323884 0.680933 0.129082
H31   H     H_    0.619265 0.618953 0.363874 0.143904
H32   H     H_    0.576296 0.688368 0.289748 0.134738
H33   H     H_    0.535957 0.673590 0.147755 0.165510
H34   H     H_    0.524165 0.826283 0.591873 0.146343
H35   H     H_    0.689569 0.714276 0.074962 0.388449
H36   H     H_    0.609644 0.987120 0.663840 0.340296
H37   H     H_    0.637041 0.884631 0.421608 0.389792
H38   H     H_    0.911401 0.344627 0.232456 0.383325
H39   H     H_    0.850085 0.122899 0.155021 0.375619
H40   H     H_    0.838050 0.091547 0.892608 0.368941
H41   H     H_    0.235734 0.368092 0.095868 0.352204
H42   H     H_    0.301922 0.711242 0.733010 0.346977
H43   H     H_    0.214185 0.589378 0.433646 0.358558
H44   H     H_    0.517540 0.274207 0.783909 0.362032
H45   H     H_    0.391876 0.684251 0.489457 0.177149
H46   H     H_    0.496857 0.990349 0.535101 0.344679
H47   H     H_    0.143556 0.050893 0.349351 0.333976
H48   H     H_    0.648181 0.424939 0.835573 0.345059
H49   H     H_    0.643767 0.547549 0.839785 0.369973
H50   H     H_    0.761419 0.555340 0.586457 0.349848
H51   H     H_    0.228617 0.811418 0.617571 0.367171
H52   H     H_    0.767609 0.567176 0.118491 0.401631
H53   H     H_    0.789355 0.551693 0.433679 0.362845
H54   H     H_    0.232482 0.847173 0.204548 0.343746
H55   H     H_    0.158640 0.051177 0.080022 0.344123
H56   H     H_    0.442445 0.679800 0.284849 0.138406
H57   H     H_    0.958503 0.903234 0.967558 0.387823
H58   H     H_    0.859587 0.873667 0.095631 0.378962
H59   H     H_    0.391901 0.227467 0.865061 0.340342
H60   H     H_    0.112761 0.164221 0.819014 0.323510
H61   H     H_    0.266644 0.547699 0.950718 0.376546
H62   H     H_    0.271709 0.638086 0.250065 0.171716
H63   H     H_    0.235830 0.364719 0.253103 0.131058
H64   H     H_    0.693542 0.865532 0.790632 0.166918
O1    O     O_R   0.410050 0.552190 0.462250 -0.520293
O2    O     O_R   0.951650 0.357670 0.913630 -0.546484
O3    O     O_R   0.145040 0.552210 0.092780 -0.489722
O4    O     O_R   0.410760 0.447830 0.358560 -0.513605
O5    O     O_R   0.040660 0.447850 0.092810 -0.490888
O6    O     O_R   0.054850 0.642400 0.092760 -0.488774
O7    O     O_R   0.950470 0.538040 0.092790 -0.482271
O8    O     O_R   0.965850 0.552220 0.913580 -0.515291
O9    O     O_R   0.861470 0.447860 0.913610 -0.447902
O10   O     O_R   0.589820 0.642360 0.551840 -0.538623
O11   O     O_R   0.590530 0.538000 0.448150 -0.483877
O12   O     O_R   0.948740 0.909840 0.358530 -0.522906
O13   O     O_R   0.589240 0.552170 0.641440 -0.444193
O14   O     O_R   0.589950 0.447810 0.537750 -0.515949
O15   O     O_R   0.409470 0.462000 0.551850 -0.489210
O16   O     O_R   0.410180 0.357640 0.448160 -0.515400
O17   O     O_R   0.052450 0.909800 0.462220 -0.459785
O18   O     O_3   0.639114 0.702357 0.084370 -0.642260
O19   O     O_2   0.734172 0.939545 0.583237 -0.312490
O20   O     O_2   0.647515 0.006994 0.545456 -0.263674
O21   O     O_3   0.659771 0.977327 0.671499 -0.552088
O22   O     O_3   0.580668 0.831839 0.375138 -0.679936
O23   O     O_R   0.961680 0.909780 0.551820 -0.505348
O24   O     O_2   0.051186 0.322515 0.274211 -0.251854
O25   O     O_2   0.066257 0.444064 0.248008 -0.250728
O26   O     O_3   0.911209 0.317396 0.177895 -0.426911
O27   O     O_2   0.796328 0.153914 0.024363 -0.242104
O28   O     O_2   0.841067 0.043215 0.999431 -0.260714
O29   O     O_3   0.903796 0.158290 0.156696 -0.437743
O30   O     O_3   0.893185 0.095518 0.896215 -0.646973
O31   O     O_3   0.186653 0.317093 0.039705 -0.601082
O32   O     O_2   0.122913 0.530850 0.677229 -0.198676
O33   O     O_2   0.275567 0.581642 0.773187 -0.242392
O34   O     O_R   0.857970 0.909820 0.448140 -0.505085
O35   O     O_3   0.240079 0.682069 0.717932 -0.464972
O36   O     O_3   0.219085 0.535841 0.414908 -0.647353
O37   O     O_2   0.503831 0.266289 0.636615 -0.322149
O38   O     O_2   0.392341 0.285631 0.665718 -0.306453
O39   O     O_3   0.467841 0.215325 0.737228 -0.534885
O40   O     O_2   0.365581 0.871890 0.529854 -0.232864
O41   O     O_2   0.298213 0.817060 0.374362 -0.214819
O42   O     O_3   0.457893 0.944995 0.473348 -0.476897
O43   O     O_3   0.151554 0.999832 0.341523 -0.730813
O44   O     O_3   0.711612 0.446928 0.859295 -0.646191
O45   O     O_R   0.051260 0.090120 0.641420 -0.507153
O46   O     O_3   0.626530 0.532354 0.779330 -0.628403
O47   O     O_2   0.936435 0.754428 0.681222 -0.220652
O48   O     O_2   0.897690 0.660609 0.740896 -0.274171
O49   O     O_3   0.794884 0.603137 0.579522 -0.564645
O50   O     O_2   0.166123 0.779939 0.419182 -0.229663
O51   O     O_2   0.190724 0.897757 0.547368 -0.269524
O52   O     O_3   0.209137 0.769743 0.557553 -0.492417
O53   O     O_2   0.811061 0.487768 0.206898 -0.220983
O54   O     O_2   0.716816 0.545212 0.230766 -0.210712
O55   O     O_3   0.815260 0.613771 0.177799 -0.551874
O56   O     O_R   0.947550 0.090150 0.537740 -0.498551
O57   O     O_3   0.789687 0.558101 0.384312 -0.598474
O58   O     O_3   0.175990 0.820147 0.202241 -0.665472
O59   O     O_2   0.192066 0.928181 0.988737 -0.221467
O60   O     O_2   0.037957 0.864338 0.885447 -0.159469
O61   O     O_3   0.116487 0.019657 0.017445 -0.479417
O62   O     O_3   0.929120 0.855870 0.976930 -0.663622
O63   O     O_2   0.793461 0.718003 0.952233 -0.257452
O64   O     O_2   0.830906 0.673009 0.058796 -0.268929
O65   O     O_3   0.844584 0.826481 0.109761 -0.544144
O66   O     O_3   0.333458 0.208354 0.859681 -0.587728
O67   O     O_R   0.142030 0.090140 0.551820 -0.487328
O68   O     O_3   0.172096 0.173630 0.833982 -0.576987
O69   O     O_2   0.185275 0.443097 0.999341 -0.280561
O70   O     O_2   0.264398 0.396296 0.935107 -0.253887
O71   O     O_3   0.212643 0.497123 0.897595 -0.462489
O72   O     O_R   0.038320 0.090170 0.448130 -0.506748
O73   O     O_R   0.056040 0.462030 0.913600 -0.434181
S1    S     S_3+6 0.652970 0.942830 0.574633 -0.036282
S2    S     S_3+6 0.106483 0.919720 0.979355 0.068117
S3    S     S_3+6 0.855124 0.749365 0.044244 0.013878
S4    S     S_3+6 0.190139 0.414559 0.918480 0.050044
S5    S     S_3+6 0.016018 0.346417 0.207768 0.090623
S6    S     S_3+6 0.871400 0.138038 0.055128 0.078988
S7    S     S_3+6 0.214756 0.579329 0.696192 0.057075
S8    S     S_3+6 0.429679 0.226237 0.650338 -0.030553
S9    S     S_3+6 0.358698 0.897563 0.462224 0.057462
S10   S     S_3+6 0.861905 0.689913 0.679768 0.014578
S11   S     S_3+6 0.153842 0.800710 0.495912 0.048409
S12   S     S_3+6 0.805363 0.569579 0.239633 0.043139

loop_
_geom_bond_atom_site_label_1
_geom_bond_atom_site_label_2
_ccdc_geom_bond_type
H54   O58   S    
C66   C68   D    
O19   S1    D    
H53   O57   S    
C93   C94   A    
C8    H24   S    
C63   H28   S    
C6    C7    A    
H58   O65   S    
Cu5   Cu6   S    
C37   S5    S    
O40   S9    D    
C29   H62   S    
C66   C69   S    
C52   H27   S    
C97   C98   A    
C7    C8    A    
C4    H20   S    
C54   C65   S    
C53   C75   S    
C53   C54   A    
C7    C96   S    
O65   S3    S    
C31   O14   A    
Cu4   O12   S    
C26   C27   A    
H42   O35   S    
C42   C44   A    
C13   C18   S    
H52   O55   S    
C5    C6    A    
O21   S1    S    
H40   O30   S    
H43   O36   S    
C84   C86   A    
C97   H18   S    
C34   C35   A    
C29   C32   A    
C76   O2    A    
C73   O45   A    
O33   S7    D    
C98   S2    S    
C85   C96   A    
H36   O21   S    
C71   O17   A    
C41   C96   A    
Cu3   O67   S    
C19   C55   A    
C15   C16   A    
C39   O30   S    
C18   O11   A    
C17   C20   A    
C56   C57   A    
Cu2   O4    S    
H35   O18   S    
C50   H3    S    
C5    S4    S    
C49   C50   A    
C90   C92   A    
C92   C93   A    
C62   C64   A    
C34   H63   S    
Cu2   O11   S    
C13   C14   A    
C32   C77   S    
H41   O31   S    
C99   O62   S    
C1    O1    A    
C40   H2    S    
C31   C70   S    
C72   O34   A    
C35   C36   A    
C8    C9    A    
C33   C44   S    
C64   C65   A    
C4    C102  A    
C66   O44   S    
Cu1   Cu2   S    
O38   S8    D    
Cu3   O17   S    
H51   O52   S    
C102  O66   S    
C95   O58   S    
O59   S2    D    
C71   O12   A    
C41   C52   A    
C79   C91   A    
O29   S6    S    
H37   O22   S    
C88   C89   A    
H61   O71   S    
C40   C42   A    
C38   S6    S    
O55   S12   S    
O54   S12   D    
C43   O15   A    
C59   C60   A    
C3    C106  A    
C91   S10   S    
C21   C22   A    
Cu1   O1    S    
Cu5   O3    S    
C56   H8    S    
Cu2   O14   S    
C17   O18   S    
Cu4   O34   S    
C27   O22   S    
C9    C73   S    
C61   S9    S    
O25   S5    D    
C76   O73   A    
C68   H11   S    
C104  C105  A    
C81   C82   A    
Cu6   O7    S    
C54   C56   A    
C60   H9    S    
C15   C22   A    
C78   C89   S    
C38   C39   A    
C23   H34   S    
C88   C94   A    
C86   O57   S    
C82   S11   S    
O42   S9    S    
C47   C48   A    
C67   C79   A    
C24   C25   A    
O49   S10   S    
O50   S11   D    
Cu6   O9    S    
O28   S6    D    
C86   C87   A    
C16   C17   A    
C45   S7    S    
C25   C26   A    
C104  O68   S    
C83   C94   S    
C19   C103  A    
C18   O10   A    
Cu5   O6    S    
O41   S9    D    
C15   H32   S    
C60   C61   A    
C51   C53   A    
C59   S8    S    
C90   C101  S    
C87   H14   S    
C37   C38   A    
Cu5   O8    S    
C51   H7    S    
C83   C84   A    
C29   C36   A    
H46   O42   S    
C26   H56   S    
H49   O46   S    
Cu1   O13   S    
H44   O39   S    
C95   C97   A    
C33   C34   A    
C3    C4    A    
C42   O31   S    
C51   C58   A    
C77   O3    A    
C14   C79   S    
H39   O29   S    
C102  C104  A    
C41   H26   S    
C48   H5    S    
Cu4   O56   S    
O51   S11   D    
O48   S10   D    
C69   O46   S    
C9    C30   A    
C70   H13   S    
C48   C49   A    
C63   C74   A    
C74   H29   S    
C43   O16   A    
O64   S3    D    
H47   O43   S    
H57   O62   S    
H59   O66   S    
C84   S12   S    
Cu3   O23   S    
C23   C28   A    
H38   O26   S    
O60   S2    D    
Cu1   O15   S    
C68   C80   S    
C2    C10   A    
O71   S4    S    
C62   H10   S    
H50   O49   S    
Cu3   O45   S    
Cu5   O73   S    
C1    C35   S    
Cu6   O2    S    
C5    C30   A    
Cu4   O72   S    
C46   C47   A    
C23   C24   A    
C64   O43   S    
O37   S8    D    
O63   S3    D    
C24   H45   S    
C80   O9    A    
H48   O44   S    
O61   S2    S    
C91   C103  A    
C100  S3    S    
C52   C63   A    
C85   H30   S    
C45   C46   A    
C55   C67   A    
C11   C12   A    
O52   S11   S    
C6    C76   S    
Cu6   O5    S    
C71   C93   S    
O70   S4    D    
O53   S12   D    
C2    H25   S    
C105  C106  A    
C31   O13   A    
C11   C22   S    
C12   H31   S    
C46   H4    S    
C3    H22   S    
C32   C33   A    
C106  H21   S    
C37   C44   A    
C92   H17   S    
C77   O5    A    
C30   C105  S    
C99   C100  A    
C59   C65   A    
C47   C58   S    
O47   S10   D    
C81   C87   A    
O39   S8    S    
C57   C58   A    
O26   S5    S    
O69   S4    D    
C45   C50   A    
Cu1   O10   S    
C49   O36   S    
C100  C101  A    
C1    O4    A    
C80   O8    A    
C74   C85   A    
C61   C62   A    
C2    C14   A    
C67   H6    S    
C69   C70   D    
C55   H64   S    
C20   H12   S    
C75   O67   A    
C10   C11   A    
C43   C57   S    
C25   C36   S    
C12   C13   A    
C39   C40   A    
C95   C101  A    
H55   O61   S    
O35   S7    S    
C20   C21   A    
H60   O68   S    
C88   H16   S    
C98   C99   A    
O20   S1    D    
C27   C28   A    
O27   S6    D    
C19   H1    S    
C16   H33   S    
O32   S7    D    
C28   S1    S    
C82   C83   A    
C89   C90   A    
Cu3   Cu4   S    
C103  H19   S    
C21   H23   S    
C73   O56   A    
C81   H15   S    
C75   O72   A    
C78   O7    A    
C78   O6    A    
O24   S5    D    
C72   O23   A    
Cu2   O16   S    
C10   C72   S    
