data_mof_unit_37790.cif
_audit_creation_date              2012-12-10T16:39:39-0500
_audit_creation_method            fapswitch 2.2
_symmetry_space_group_name_H-M    P1
_symmetry_Int_Tables_number       1
_space_group_crystal_system       triclinic
_cell_length_a                    16.94538
_cell_length_b                    17.038544
_cell_length_c                    17.057846
_cell_angle_alpha                 67.125323
_cell_angle_beta                  67.571689
_cell_angle_gamma                 67.063439
_cell_volume                      4022.43062748

loop_
_atom_site_label
_atom_site_type_symbol
_atom_type_description
_atom_site_fract_x
_atom_site_fract_y
_atom_site_fract_z
_atom_type_partial_charge
Br1   Br    Br    0.292453 0.854647 0.299023 -0.504452
Br2   Br    Br    0.057681 0.184717 0.592086 -0.471357
Br3   Br    Br    0.796927 0.402068 0.966504 -0.450314
Br4   Br    Br    0.217854 0.585839 0.034543 -0.433280
Br5   Br    Br    0.203297 0.182746 0.402779 -0.407500
Br6   Br    Br    0.793341 0.845869 0.570942 -0.347045
Br7   Br    Br    0.433181 0.201086 0.156476 -0.361378
Br8   Br    Br    0.574923 0.802670 0.831922 -0.371900
Br9   Br    Br    0.168573 0.425300 0.200371 -0.349631
Br10  Br    Br    0.841984 0.562218 0.794761 -0.357342
Br11  Br    Br    0.719096 0.132041 0.718313 -0.480847
Br12  Br    Br    0.859797 0.293646 0.289397 -0.491210
Br13  Br    Br    0.133231 0.713825 0.719912 -0.521665
Br14  Br    Br    0.280914 0.280314 0.867790 -0.474471
Br15  Br    Br    0.709219 0.711936 0.139410 -0.485747
Br16  Br    Br    0.408555 0.968003 0.787933 -0.435738
Br17  Br    Br    0.602773 0.033323 0.195999 -0.443995
Br18  Br    Br    0.961709 0.778984 0.417377 -0.446725
C1    C     C_R   0.316039 0.013302 0.420450 -0.090716
C2    C     C_R   0.328192 0.462846 0.939102 -0.023793
C3    C     C_R   0.522371 0.410289 0.019658 -0.039867
C4    C     C_R   0.986654 0.470284 0.591972 -0.038571
C5    C     C_R   0.040420 0.514513 0.406842 -0.034680
C6    C     C_3   0.191695 0.061728 0.795572 0.192067
C7    C     C_3   0.148462 0.072842 0.887522 -0.903989
C8    C     C_3   0.797456 0.893209 0.207608 0.155412
C9    C     C_3   0.801840 0.872308 0.127355 -0.788021
C10   C     C_3   0.108956 0.798936 0.212272 0.115796
C11   C     C_3   0.133686 0.876071 0.210140 -0.789049
C12   C     C_3   0.930825 0.181796 0.797608 0.187002
C13   C     C_R   0.057095 0.670382 0.540498 -0.006147
C14   C     C_3   0.933475 0.090487 0.799306 -0.806007
C15   C     C_3   0.796813 0.203355 0.109365 0.142880
C16   C     C_3   0.875786 0.196745 0.134806 -0.800790
C17   C     C_3   0.193019 0.800267 0.902195 0.102223
C18   C     C_3   0.110597 0.828831 0.870615 -0.800181
C19   C     C_3   0.277453 0.925061 0.666537 0.009194
C20   C     C_3   0.256855 0.865722 0.634186 -0.654570
C21   C     C_3   0.831748 0.001934 0.315813 0.095436
C22   C     C_3   0.929631 0.994616 0.272970 -0.787229
C23   C     C_3   0.693410 0.182505 0.984404 0.101145
C24   C     C_R   0.966635 0.318030 0.457944 -0.023418
C25   C     C_3   0.743524 0.088575 0.978312 -0.759982
C26   C     C_3   0.314313 0.822211 0.006509 0.098349
C27   C     C_3   0.284070 0.915809 0.015422 -0.720276
C28   C     C_3   0.005631 0.686412 0.171286 0.105114
C29   C     C_3   0.005165 0.735158 0.075628 -0.793631
C30   C     C_3   0.017031 0.309335 0.832575 0.095416
C31   C     C_3   0.012994 0.266945 0.929768 -0.750208
C32   C     C_R   0.452781 0.015023 0.436838 0.082491
C33   C     C_R   0.538507 0.035930 0.537471 0.083072
C34   C     C_R   0.001958 0.444602 0.455366 0.084129
C35   C     C_R   0.024614 0.540808 0.543570 0.085951
C36   C     C_R   0.455593 0.459306 0.975944 0.086711
C37   C     C_R   0.550495 0.546279 0.003155 0.085772
C38   C     C_R   0.966030 0.178242 0.437300 0.978097
C39   C     C_R   0.676474 0.016159 0.566303 -0.075251
C40   C     C_R   0.036930 0.820815 0.562015 0.982298
C41   C     C_R   0.178723 0.439149 0.961310 0.981525
C42   C     C_R   0.821222 0.561768 0.036186 0.987041
C43   C     C_R   0.438190 0.964180 0.178649 0.991438
C44   C     C_R   0.560980 0.037838 0.820968 0.981091
C45   C     C_R   0.568111 0.821849 0.024590 0.976278
C46   C     C_R   0.432484 0.178733 0.972658 0.964293
C47   C     C_R   0.026299 0.567377 0.821942 0.965801
C48   C     C_R   0.975457 0.432049 0.178265 0.971286
C49   C     C_R   0.820956 0.028307 0.566965 0.963168
C50   C     C_R   0.002834 0.428917 0.318169 -0.065015
C51   C     C_R   0.177911 0.977185 0.431329 0.955517
C52   C     C_R   0.409437 0.994244 0.394170 0.007083
C53   C     C_R   0.582660 0.043552 0.588799 0.021323
C54   C     C_R   0.986201 0.399437 0.411101 0.023131
C55   C     C_R   0.035260 0.589677 0.587988 0.021460
C56   C     C_R   0.408312 0.414803 0.962805 0.021265
C57   C     C_R   0.596334 0.589653 0.019711 0.018135
C58   C     C_R   0.273755 0.976188 0.391011 -0.163887
C59   C     C_R   0.722814 0.038744 0.604337 -0.151203
C60   C     C_R   0.972062 0.394096 0.274643 -0.145599
C61   C     C_R   0.010397 0.565206 0.680782 -0.079687
C62   C     C_R   0.034126 0.604219 0.725647 -0.145450
C63   C     C_R   0.395005 0.276007 0.963332 -0.152815
C64   C     C_R   0.605977 0.725762 0.028980 -0.148190
C65   C     C_R   0.587267 0.060081 0.722738 -0.146380
C66   C     C_R   0.409947 0.949994 0.274971 -0.142478
C67   C     C_R   0.723552 0.589800 0.053397 -0.147381
C68   C     C_R   0.277136 0.411990 0.938337 -0.150766
C69   C     C_R   0.057279 0.722178 0.590675 -0.146666
C70   C     C_R   0.953792 0.273936 0.408479 -0.139977
C71   C     C_R   0.441463 0.067291 0.698483 0.338973
C72   C     C_R   0.432483 0.321162 0.988591 -0.077006
C73   C     C_R   0.553046 0.948032 0.294619 0.339548
C74   C     C_R   0.066514 0.698129 0.447843 0.309399
C75   C     C_R   0.963925 0.285254 0.550452 0.358229
C76   C     C_R   0.702522 0.446921 0.057721 0.331197
C77   C     C_R   0.299075 0.556036 0.930937 0.330279
C78   C     C_R   0.268857 0.074113 0.469599 0.390297
C79   C     C_R   0.720234 0.956800 0.515503 0.322094
C80   C     C_R   0.485625 0.276513 0.047108 0.332315
C81   C     C_R   0.517716 0.729247 0.939128 0.336228
C82   C     C_R   0.060003 0.482790 0.272444 0.316720
C83   C     C_R   0.570539 0.682936 0.998183 -0.080701
C84   C     C_R   0.955285 0.508955 0.724903 0.327188
C85   C     C_R   0.325511 0.938099 0.321340 0.203429
C86   C     C_R   0.673633 0.069853 0.678992 0.204784
C87   C     C_R   0.938395 0.321401 0.325343 0.198373
C88   C     C_R   0.066244 0.678377 0.676545 0.202766
C89   C     C_R   0.320942 0.325682 0.929753 0.201623
C90   C     C_R   0.678238 0.674487 0.064606 0.196840
C91   C     C_R   0.680114 0.956341 0.457701 -0.162748
C92   C     C_R   0.309926 0.082940 0.522660 -0.071650
C93   C     C_R   0.957309 0.450157 0.684128 -0.147575
C94   C     C_R   0.534906 0.061492 0.670781 -0.024226
C95   C     C_R   0.066122 0.536605 0.314312 -0.153498
C96   C     C_R   0.462969 0.688324 0.932419 -0.135856
C97   C     C_R   0.541038 0.317846 0.050484 -0.157567
C98   C     C_R   0.594984 0.936531 0.356735 -0.125000
C99   C     C_R   0.394326 0.087065 0.636131 -0.103338
C100  C     C_R   0.360650 0.602070 0.913192 -0.104339
C101  C     C_R   0.639723 0.404007 0.072959 -0.113898
C102  C     C_R   0.947268 0.345340 0.596500 -0.123033
C103  C     C_R   0.086481 0.635358 0.402931 -0.107545
C104  C     C_R   0.730987 0.921906 0.385528 0.426709
C105  C     C_R   0.458776 0.962378 0.320111 -0.010334
C106  C     C_R   0.265818 0.074779 0.611686 0.390144
C107  C     C_R   0.934089 0.370201 0.733530 0.398497
C108  C     C_R   0.093905 0.613954 0.265829 0.423346
C109  C     C_R   0.382463 0.738341 0.909283 0.402801
C110  C     C_R   0.617647 0.267976 0.079807 0.421613
C111  C     C_R   0.688764 0.904750 0.339583 0.433059
C112  C     C_R   0.300890 0.094613 0.663809 0.402054
C113  C     C_R   0.334132 0.696550 0.892997 0.409221
C114  C     C_R   0.661446 0.310171 0.099974 0.433331
C115  C     C_R   0.924131 0.319709 0.690112 0.425555
C116  C     C_R   0.675182 0.540689 0.045878 -0.011103
C117  C     C_R   0.111058 0.658855 0.309421 0.429704
C118  C     C_R   0.545366 0.981567 0.421597 -0.031656
C119  C     C_R   0.445166 0.065568 0.556087 -0.059576
C120  C     C_R   0.977274 0.420895 0.548134 -0.043094
C121  C     C_R   0.052535 0.562178 0.450968 -0.032002
C122  C     C_R   0.434959 0.552566 0.946921 -0.032396
C123  C     C_R   0.569931 0.453513 0.033078 -0.033395
C124  C     C_R   0.588098 0.993093 0.470854 -0.038558
C125  C     C_R   0.402893 0.059416 0.501991 -0.065827
C126  C     C_R   0.483310 0.595732 0.959800 -0.041693
H1    H     H_    0.230481 0.991604 0.804868 0.183382
H2    H     H_    0.816371 0.799749 0.143354 0.293255
H3    H     H_    0.035628 0.811696 0.238744 0.154690
H4    H     H_    0.127335 0.795639 0.143751 0.170858
H5    H     H_    0.206520 0.861844 0.186335 0.294372
H6    H     H_    0.102978 0.938770 0.165574 0.185696
H7    H     H_    0.113508 0.882572 0.277743 0.294061
H8    H     H_    0.894620 0.191171 0.864411 0.168786
H9    H     H_    0.000702 0.180884 0.781656 0.127315
H10   H     H_    0.993202 0.063729 0.750022 0.262114
H11   H     H_    0.936812 0.042873 0.865360 0.180842
H12   H     H_    0.137260 0.077678 0.766168 0.184043
H13   H     H_    0.874134 0.094261 0.783793 0.303176
H14   H     H_    0.813092 0.224212 0.036140 0.155577
H15   H     H_    0.786314 0.136778 0.133723 0.177447
H16   H     H_    0.857837 0.180788 0.207450 0.295069
H17   H     H_    0.934903 0.144565 0.111262 0.186794
H18   H     H_    0.890879 0.261477 0.106871 0.291586
H19   H     H_    0.207836 0.861829 0.890728 0.175756
H20   H     H_    0.176804 0.767322 0.974193 0.173619
H21   H     H_    0.054705 0.873686 0.907446 0.184719
H22   H     H_    0.123454 0.866019 0.799734 0.272984
H23   H     H_    0.190984 0.091638 0.909149 0.304547
H24   H     H_    0.091052 0.769960 0.880511 0.296982
H25   H     H_    0.269639 0.895065 0.737832 0.206898
H26   H     H_    0.349639 0.920783 0.636644 0.154265
H27   H     H_    0.286448 0.794992 0.666695 0.261644
H28   H     H_    0.286557 0.876729 0.562200 0.219935
H29   H     H_    0.183956 0.878906 0.649915 0.291407
H30   H     H_    0.808505 0.037364 0.366324 0.187313
H31   H     H_    0.794321 0.043405 0.265793 0.115750
H32   H     H_    0.950371 0.977196 0.210407 0.202470
H33   H     H_    0.945004 0.056291 0.260688 0.213349
H34   H     H_    0.083840 0.122389 0.888367 0.224786
H35   H     H_    0.968042 0.943993 0.318705 0.298847
H36   H     H_    0.739583 0.224739 0.947300 0.136355
H37   H     H_    0.640033 0.207379 0.950896 0.180154
H38   H     H_    0.699516 0.044910 0.016584 0.280199
H39   H     H_    0.763810 0.087758 0.908902 0.229912
H40   H     H_    0.802915 0.063167 0.003574 0.207235
H41   H     H_    0.366284 0.782118 0.042319 0.164573
H42   H     H_    0.258298 0.792288 0.041074 0.124529
H43   H     H_    0.210933 0.941301 0.030651 0.178594
H44   H     H_    0.312923 0.962297 0.955100 0.301783
H45   H     H_    0.132729 0.010693 0.934116 0.200550
H46   H     H_    0.305023 0.915519 0.069617 0.236991
H47   H     H_    0.964035 0.732791 0.212287 0.118638
H48   H     H_    0.973736 0.633066 0.192991 0.183247
H49   H     H_    0.942533 0.742683 0.064026 0.214821
H50   H     H_    0.056797 0.696269 0.031430 0.293675
H51   H     H_    0.015367 0.801057 0.057866 0.201936
H52   H     H_    0.045480 0.365323 0.809224 0.188543
H53   H     H_    0.064752 0.261801 0.794438 0.138739
H54   H     H_    0.979079 0.214221 0.957579 0.211011
H55   H     H_    0.080889 0.239664 0.939249 0.232367
H56   H     H_    0.864337 0.864764 0.219153 0.174026
H57   H     H_    0.973577 0.316615 0.966130 0.286265
H58   H     H_    0.779564 0.966547 0.192305 0.146683
H59   H     H_    0.736899 0.902862 0.111558 0.289373
H60   H     H_    0.854000 0.896717 0.069406 0.183716
O1    O     O_R   0.982940 0.138950 0.510160 -0.584014
O2    O     O_R   0.982940 0.510160 0.138950 -0.632137
O3    O     O_R   0.861050 0.017060 0.489840 -0.630383
O4    O     O_R   0.138950 0.982940 0.510160 -0.609056
O5    O     O_R   0.867700 0.025880 0.612340 -0.578286
O6    O     O_R   0.132300 0.974120 0.387660 -0.599011
O7    O     O_R   0.025880 0.612340 0.867700 -0.587811
O8    O     O_R   0.974120 0.387660 0.132300 -0.592276
O9    O     O_R   0.612340 0.867700 0.025880 -0.591574
O10   O     O_R   0.387660 0.132300 0.974120 -0.584961
O11   O     O_R   0.387660 0.974120 0.132300 -0.615082
O12   O     O_R   0.017060 0.861050 0.489840 -0.589507
O13   O     O_R   0.612340 0.025880 0.867700 -0.597794
O14   O     O_R   0.132300 0.387660 0.974120 -0.598494
O15   O     O_R   0.867700 0.612340 0.025880 -0.599464
O16   O     O_R   0.974120 0.132300 0.387660 -0.604191
O17   O     O_R   0.025880 0.867700 0.612340 -0.596347
O18   O     O_3   0.248671 0.116596 0.742945 -0.581173
O19   O     O_3   0.736223 0.853519 0.281029 -0.570235
O20   O     O_3   0.158139 0.721002 0.262513 -0.569258
O21   O     O_3   0.886028 0.249383 0.735605 -0.573151
O22   O     O_3   0.721839 0.262718 0.150160 -0.573991
O23   O     O_R   0.138950 0.510160 0.982940 -0.582162
O24   O     O_3   0.264314 0.744490 0.853462 -0.594770
O25   O     O_3   0.217566 0.012826 0.651175 -0.638788
O26   O     O_3   0.820452 0.915441 0.352625 -0.575317
O27   O     O_3   0.658381 0.181944 0.074573 -0.586792
O28   O     O_3   0.344705 0.824178 0.915927 -0.597172
O29   O     O_3   0.094417 0.652487 0.178044 -0.577996
O30   O     O_3   0.930131 0.336510 0.822231 -0.586457
O31   O     O_R   0.861050 0.489840 0.017060 -0.587979
O32   O     O_R   0.510160 0.982940 0.138950 -0.583638
O33   O     O_R   0.489840 0.017060 0.861050 -0.578453
O34   O     O_R   0.489840 0.861050 0.017060 -0.631514
O35   O     O_R   0.510160 0.138950 0.982940 -0.623802
O36   O     O_R   0.017060 0.489840 0.861050 -0.637436
Zn1   Zn    Zn3+2 0.004880 0.004880 0.583590 1.076414
Zn2   Zn    Zn3+2 0.995120 0.995120 0.416410 1.011646
Zn3   Zn    Zn3+2 0.004880 0.583590 0.004880 1.032199
Zn4   Zn    Zn3+2 0.995120 0.416410 0.995120 1.026804
Zn5   Zn    Zn3+2 0.583590 0.004880 0.004880 1.040205
Zn6   Zn    Zn3+2 0.416410 0.995120 0.995120 1.034332

loop_
_geom_bond_atom_site_label_1
_geom_bond_atom_site_label_2
_ccdc_geom_bond_type
C12   C14   S    
C44   C65   S    
C63   C89   A    
C37   C123  A    
Br7   C80   S    
C24   C75   A    
C23   H36   S    
O2    Zn3   S    
C49   C59   S    
O36   Zn4   S    
C28   H47   S    
C3    C97   A    
C16   H17   S    
C40   C69   S    
C81   C96   A    
C5    C34   A    
C57   C116  A    
C20   H27   S    
O17   Zn1   S    
C7    H23   S    
C66   C105  A    
C19   O25   S    
C117  O20   S    
C71   C94   A    
C8    C9    S    
C44   O33   A    
C60   C87   A    
C9    H59   S    
C1    C58   A    
C29   H51   S    
C10   C11   S    
C8    H58   S    
Br8   C81   S    
O13   Zn5   S    
C14   H13   S    
C114  O22   S    
C6    H1    S    
O23   Zn3   S    
Br12  C87   S    
C48   O2    A    
C100  C122  A    
C91   C104  A    
C38   C70   S    
C11   H7    S    
C22   H35   S    
C62   C88   A    
C25   H40   S    
C18   H24   S    
C73   C98   A    
C39   C53   A    
C51   C58   S    
C40   O12   A    
C102  C115  A    
C108  O29   S    
C109  O28   S    
C46   O35   A    
C118  C124  A    
C100  C113  A    
C29   H50   S    
C92   C106  A    
C11   H6    S    
C36   C56   A    
C52   C105  A    
C22   H33   S    
C12   H9    S    
C36   C122  A    
C98   C111  A    
C68   C89   A    
C51   O4    A    
C38   O16   A    
Br17  C73   S    
C93   C107  A    
C34   C120  A    
C61   C84   A    
Br11  C86   S    
C107  O30   S    
C75   C102  A    
O14   Zn4   S    
C67   C90   A    
C41   O23   A    
Br1   C85   S    
C104  C111  A    
C106  O25   S    
C50   C54   A    
C67   C116  A    
C37   C57   A    
C8    H56   S    
C58   C85   A    
C119  C125  A    
Br16  C71   S    
C47   C62   S    
C73   C105  A    
C30   H52   S    
O12   Zn2   S    
C23   C25   S    
C12   O21   S    
C23   H37   S    
C84   C93   A    
C42   O31   A    
C33   C53   A    
C45   O34   A    
C21   H30   S    
O1    Zn1   S    
C113  O24   S    
C18   H22   S    
C40   O17   A    
C15   C16   S    
C4    C35   A    
C31   H54   S    
C77   C100  A    
C50   C60   A    
C104  O26   S    
C31   H57   S    
C10   H4    S    
C26   C27   S    
C13   C69   A    
C65   C86   A    
C38   O1    A    
C45   C64   S    
C106  C112  A    
C9    H60   S    
C28   O29   S    
C23   O27   S    
Br10  C84   S    
C6    C7    S    
O6    Zn2   S    
C21   O26   S    
C21   H31   S    
C15   O22   S    
C46   O10   A    
O3    Zn2   S    
O5    Zn1   S    
C19   H26   S    
C22   H32   S    
C7    H34   S    
C27   H43   S    
C20   H29   S    
C95   C108  A    
C78   C92   A    
C41   O14   A    
C17   H19   S    
C97   C110  A    
C17   O24   S    
C2    C68   A    
C17   C18   S    
C96   C126  A    
Br15  C90   S    
C50   C82   A    
C19   C20   S    
C34   C54   A    
C39   C59   A    
C46   C63   S    
C5    C95   A    
Br4   C77   S    
C79   C91   A    
C76   C101  A    
C12   H8    S    
C112  O18   S    
C10   O20   S    
C39   C79   A    
C53   C94   A    
O34   Zn6   S    
O7    Zn3   S    
C24   C54   A    
C101  C114  A    
C55   C61   A    
C2    C56   A    
O10   Zn6   S    
C45   O9    A    
O9    Zn5   S    
C99   C112  A    
C44   O13   A    
C91   C124  A    
C99   C119  A    
O11   Zn6   S    
C14   H10   S    
C63   C72   A    
C33   C119  A    
C48   C60   S    
C30   C31   S    
C81   C83   A    
C2    C77   A    
C71   C99   A    
C108  C117  A    
C13   C74   A    
Br9   C82   S    
C64   C90   A    
C101  C123  A    
C70   C87   A    
C42   O15   A    
C24   C70   A    
C48   O8    A    
Br14  C89   S    
C21   C22   S    
Br5   C78   S    
C49   O3    A    
C32   C125  A    
Br6   C79   S    
C31   H55   S    
C33   C124  A    
C107  C115  A    
C43   O32   A    
C4    C120  A    
C28   C29   S    
C110  C114  A    
C10   H3    S    
C37   C126  A    
C5    C121  A    
C35   C121  A    
O32   Zn5   S    
C29   H49   S    
Br2   C75   S    
C35   C55   A    
C82   C95   A    
C122  C126  A    
C28   H48   S    
Br13  C88   S    
C16   H18   S    
C43   C66   S    
C42   C67   S    
C27   H44   S    
C20   H28   S    
C98   C118  A    
C6    O18   S    
C110  O27   S    
C43   O11   A    
C26   H41   S    
C25   H38   S    
C17   H20   S    
C30   H53   S    
O35   Zn5   S    
Br18  C74   S    
C103  C121  A    
C26   O28   S    
C41   C68   S    
C3    C123  A    
O8    Zn4   S    
C32   C118  A    
C74   C103  A    
C115  O21   S    
C19   H25   S    
C96   C109  A    
C56   C72   A    
C80   C97   A    
C3    C36   A    
C69   C88   A    
O16   Zn2   S    
C9    H2    S    
C25   H39   S    
C18   H21   S    
C76   C116  A    
C64   C83   A    
O15   Zn3   S    
O33   Zn6   S    
C49   O5    A    
Br3   C76   S    
C32   C52   A    
C92   C125  A    
C109  C113  A    
O31   Zn4   S    
C47   O7    A    
C13   C55   A    
C11   H5    S    
C61   C62   A    
C15   H14   S    
C51   O6    A    
C15   H15   S    
C27   H46   S    
C14   H11   S    
C102  C120  A    
C103  C117  A    
C47   O36   A    
C4    C93   A    
C8    O19   S    
C57   C83   A    
C66   C85   A    
C65   C94   A    
C1    C52   A    
C7    H45   S    
C59   C86   A    
O4    Zn1   S    
C111  O19   S    
C72   C80   A    
C30   O30   S    
C1    C78   A    
C6    H12   S    
C26   H42   S    
C16   H16   S    
