data_mof_unit_39099.cif
_audit_creation_date              2012-12-11T15:11:45-0500
_audit_creation_method            fapswitch 2.2
_symmetry_space_group_name_H-M    P1
_symmetry_Int_Tables_number       1
_space_group_crystal_system       triclinic
_cell_length_a                    20.164413
_cell_length_b                    7.098166
_cell_length_c                    13.483951
_cell_angle_alpha                 89.999267
_cell_angle_beta                  103.55842
_cell_angle_gamma                 90.000556
_cell_volume                      1876.17725841

loop_
_atom_site_label
_atom_site_type_symbol
_atom_type_description
_atom_site_fract_x
_atom_site_fract_y
_atom_site_fract_z
_atom_type_partial_charge
O1    O     O_R   0.449830 0.506740 0.599960 -0.535805
O2    O     O_R   0.550170 0.006740 0.400040 -0.535803
O3    O     O_R   0.588980 0.179860 0.596720 -0.548862
O4    O     O_R   0.411020 0.679860 0.403280 -0.548859
C1    C     C_R   0.616679 0.344323 0.618523 0.665481
C2    C     C_R   0.383316 0.844321 0.381493 0.665490
O5    O     O_R   0.452740 0.177340 0.612040 -0.540712
O6    O     O_R   0.547260 0.677340 0.387960 -0.540702
O7    O     O_R   0.412960 0.002070 0.415460 -0.536236
O8    O     O_R   0.587040 0.502070 0.584540 -0.536246
C3    C     C_R   0.436615 0.345633 0.638752 0.691828
C4    C     C_R   0.563385 0.845636 0.361249 0.691857
O9    O     O_3   0.487110 0.337570 0.435490 -0.372542
O10   O     O_3   0.512890 0.837570 0.564510 -0.372555
V1    V     V_3+5 0.502390 0.064650 0.511970 1.392275
V2    V     V_3+5 0.497610 0.564650 0.488030 1.392282
C5    C     C_R   0.608814 0.831148 0.107041 -0.163497
C6    C     C_R   0.391182 0.330885 0.892952 -0.163498
H1    H     H_    0.515360 0.824003 0.157036 0.099494
H2    H     H_    0.484635 0.323731 0.842956 0.099496
H3    H     H_    0.691852 0.822079 0.981047 0.120352
H4    H     H_    0.308141 0.321672 0.018940 0.120345
H5    H     H_    0.582602 0.818237 0.027394 0.111261
H6    H     H_    0.417392 0.317838 0.972594 0.111264
C7    C     C_R   0.602948 0.852178 0.283423 -0.028522
C8    C     C_R   0.397053 0.352160 0.716581 -0.028526
C9    C     C_R   0.931603 0.876433 0.318442 -0.168261
C10   C     C_R   0.068402 0.376651 0.681562 -0.168254
C11   C     C_R   0.896139 0.883149 0.395071 -0.122237
C12   C     C_R   0.103868 0.383487 0.604940 -0.122235
C13   C     C_R   0.825100 0.877536 0.370993 -0.168640
C14   C     C_R   0.174906 0.377807 0.629018 -0.168615
C15   C     C_R   0.787354 0.862985 0.268389 0.080598
C16   C     C_R   0.212648 0.363058 0.731615 0.080595
C17   C     C_R   0.824172 0.854578 0.190157 0.073687
C18   C     C_R   0.175827 0.354535 0.809841 0.073680
C19   C     C_R   0.714470 0.856921 0.240803 0.074847
C20   C     C_R   0.285532 0.356920 0.759201 0.074846
C21   C     C_R   0.680309 0.841030 0.136068 0.147817
C22   C     C_R   0.319689 0.340853 0.863929 0.147814
C23   C     C_R   0.717580 0.833784 0.060998 -0.222223
C24   C     C_R   0.282416 0.333509 0.938994 -0.222209
C25   C     C_R   0.788300 0.840734 0.087406 -0.211962
C26   C     C_R   0.211696 0.340525 0.912586 -0.211939
C27   C     C_R   0.674046 0.864401 0.313464 -0.224005
C28   C     C_R   0.325957 0.364480 0.686543 -0.224030
C29   C     C_R   0.570420 0.835079 0.180435 -0.175406
C30   C     C_R   0.429578 0.334891 0.819561 -0.175394
C31   C     C_R   0.896404 0.862275 0.216347 -0.074590
C32   C     C_R   0.103596 0.362304 0.783652 -0.074605
H7    H     H_    0.695952 0.876485 0.394124 0.098614
H8    H     H_    0.304054 0.376681 0.605889 0.098619
H9    H     H_    0.986829 0.883971 0.338719 0.098026
H10   H     H_    0.013177 0.384261 0.661288 0.098036
H11   H     H_    0.801525 0.885731 0.434663 0.103540
H12   H     H_    0.198484 0.386123 0.565355 0.103498
H13   H     H_    0.923922 0.894598 0.473959 0.117092
H14   H     H_    0.076088 0.395093 0.526057 0.117087
H15   H     H_    0.814685 0.834440 0.026207 0.113874
H16   H     H_    0.185310 0.334153 0.973782 0.113869
C33   C     C_3   0.220509 0.660219 0.187525 -0.332448
C34   C     C_3   0.779421 0.160344 0.812678 -0.332490
H17   H     H_    0.188563 0.552183 0.214091 0.145059
H18   H     H_    0.811333 0.052076 0.786225 0.145055
H19   H     H_    0.223327 0.621199 0.108668 0.146508
H20   H     H_    0.776588 0.121643 0.891572 0.146512
C35   C     C_3   0.293001 0.657096 0.258095 -0.372342
C36   C     C_3   0.706930 0.157220 0.742102 -0.372375
H21   H     H_    0.330536 0.620187 0.212404 0.145936
H22   H     H_    0.669380 0.120607 0.787818 0.145884
H23   H     H_    0.295384 0.543737 0.315898 0.137287
H24   H     H_    0.704518 0.043653 0.684406 0.137328
H25   H     H_    0.148676 0.806389 0.323618 0.100932
H26   H     H_    0.851294 0.305732 0.676443 0.100987
H27   H     H_    0.255099 0.773993 0.425237 0.116619
H28   H     H_    0.744864 0.273409 0.574843 0.116612
C37   C     C_3   0.183854 0.906198 0.297998 -0.315230
C38   C     C_3   0.816155 0.405780 0.701973 -0.315283
C39   C     C_3   0.235512 0.003748 0.153447 -0.323977
C40   C     C_3   0.764526 0.504062 0.846432 -0.323959
C41   C     C_3   0.187488 0.858106 0.187250 0.092026
C42   C     C_3   0.812505 0.358113 0.812766 0.092065
H29   H     H_    0.214218 0.148388 0.153549 0.141467
H30   H     H_    0.785861 0.648632 0.846194 0.141476
H31   H     H_    0.239229 0.972964 0.074000 0.140234
H32   H     H_    0.760802 0.473598 0.925910 0.140228
C43   C     C_3   0.311803 0.851337 0.311830 0.114313
C44   C     C_3   0.688190 0.351339 0.688191 0.114330
C45   C     C_3   0.255838 0.894566 0.372561 0.044819
C46   C     C_3   0.744166 0.394161 0.627422 0.044844
C47   C     C_3   0.307783 0.999559 0.225649 -0.319230
C48   C     C_3   0.692253 0.499859 0.774238 -0.319196
H33   H     H_    0.345917 0.964817 0.180660 0.120702
H34   H     H_    0.654111 0.465413 0.819260 0.120723
H35   H     H_    0.321044 0.142218 0.258200 0.147317
H36   H     H_    0.679033 0.642451 0.741561 0.147326
H37   H     H_    0.161382 0.049313 0.299068 0.148787
H38   H     H_    0.838679 0.548799 0.700769 0.148731
O11   O     O_R   0.912980 0.203550 0.915410 -0.539999
O12   O     O_R   0.087020 0.703550 0.084590 -0.539998
O13   O     O_R   0.047270 0.535570 0.887960 -0.538078
O14   O     O_R   0.952730 0.035570 0.112040 -0.538083
C49   C     C_R   0.063962 0.368404 0.861780 0.688451
C50   C     C_R   0.936039 0.868400 0.138220 0.688441
O15   O     O_R   0.911030 0.532970 0.903270 -0.547514
O16   O     O_R   0.088970 0.032970 0.096730 -0.547517
O17   O     O_R   0.949820 0.708150 0.099970 -0.536759
O18   O     O_R   0.050180 0.208150 0.900030 -0.536759
C51   C     C_R   0.883459 0.364895 0.883073 0.659388
C52   C     C_R   0.116537 0.864892 0.116936 0.659388
O19   O     O_3   0.012900 0.375230 0.064480 -0.373135
O20   O     O_3   0.987100 0.875230 0.935520 -0.373132
V3    V     V_3+5 0.997610 0.648190 0.988040 1.395056
V4    V     V_3+5 0.002390 0.148190 0.011960 1.395049
C53   C     C_3   0.269607 0.071283 0.440593 -0.818156
H39   H     H_    0.316416 0.053509 0.502211 0.220989
H40   H     H_    0.274322 0.199305 0.395580 0.208796
H41   H     H_    0.226814 0.092894 0.478357 0.206896
C54   C     C_3   0.730450 0.570708 0.559245 -0.818214
H42   H     H_    0.683612 0.552944 0.497678 0.220975
H43   H     H_    0.725815 0.698912 0.604163 0.208770
H44   H     H_    0.773230 0.591989 0.521415 0.206970

loop_
_geom_bond_atom_site_label_1
_geom_bond_atom_site_label_2
_ccdc_geom_bond_type
C20   C22   A    
C45   C53   S    
O12   C52   A    
C43   C47   S    
C25   H15   S    
C9    C11   A    
O13   V3    S    
O1    C3    A    
C40   H30   S    
O2    C4    A    
O11   V4    S    
O20   V4    S    
O3    V1    S    
C21   C23   A    
C38   C46   S    
O5    C3    A    
C37   C45   S    
C5    H5    S    
O16   V4    S    
C6    H6    S    
O15   V3    S    
H1    C29   S    
C27   H7    S    
C53   H39   S    
O11   C51   A    
C28   H8    S    
C48   H36   S    
C5    C21   A    
O18   V4    S    
C33   H17   S    
C33   C35   S    
O17   V3    S    
C6    C22   A    
C1    C44   S    
C10   C32   A    
C44   C48   S    
C53   H40   S    
C17   C31   A    
C40   H32   S    
C13   C15   A    
C37   H37   S    
C49   O18   A    
C12   C14   A    
C17   C25   A    
C7    C29   A    
C39   C47   S    
C36   H24   S    
C22   C24   A    
C34   C42   S    
C32   C49   S    
O13   C49   A    
C11   C13   A    
C23   C25   A    
C24   C26   A    
C2    O7    A    
O20   V3    S    
C54   H43   S    
C34   H20   S    
C42   C51   S    
C40   C42   S    
C39   C41   S    
C10   H10   S    
C3    C8    S    
C15   C19   A    
C2    C43   S    
C35   H21   S    
C14   C16   A    
C40   C48   S    
C38   H38   S    
O14   V4    S    
C47   H33   S    
C38   C42   S    
C37   C41   S    
O6    C4    A    
C53   H41   S    
C48   H34   S    
O19   V3    S    
O1    V2    S    
O14   C50   A    
O2    V1    S    
H2    C30   S    
H3    C23   S    
C36   H22   S    
C11   H13   S    
C43   C45   S    
C36   C44   S    
C18   C26   A    
O4    C2    A    
O4    V2    S    
C19   C27   A    
C7    C27   A    
C39   H31   S    
C18   C32   A    
O16   C52   A    
C54   H44   S    
O15   C51   A    
C16   C20   A    
O12   V3    S    
C5    C29   A    
C44   C46   S    
O3    C1    A    
C6    C30   A    
C54   H42   S    
C9    H9    S    
O9    V2    S    
C8    C30   A    
C35   C43   S    
C34   C36   S    
C4    C7    S    
C31   C50   S    
C46   C54   S    
C10   C12   A    
C34   H18   S    
O7    V1    S    
C1    O8    A    
C19   C21   A    
O8    V2    S    
C39   H29   S    
H4    C24   S    
C26   H16   S    
C12   H14   S    
O5    V1    S    
C15   C17   A    
C16   C18   A    
O19   V4    S    
C35   H23   S    
C20   C28   A    
C8    C28   A    
C47   H35   S    
C33   H19   S    
C41   C52   S    
O6    V2    S    
H26   C38   S    
H27   C45   S    
H25   C37   S    
O10   V1    S    
C33   C41   S    
C13   H11   S    
C14   H12   S    
C50   O17   A    
C9    C31   A    
H28   C46   S    
