data_mof_unit_42169.cif
_audit_creation_date              2012-12-11T16:26:27-0500
_audit_creation_method            fapswitch 2.2
_symmetry_space_group_name_H-M    P1
_symmetry_Int_Tables_number       1
_space_group_crystal_system       triclinic
_cell_length_a                    14.029472
_cell_length_b                    14.02911
_cell_length_c                    31.564703
_cell_angle_alpha                 89.970723
_cell_angle_beta                  90.045056
_cell_angle_gamma                 120.005473
_cell_volume                      5379.96801876

loop_
_atom_site_label
_atom_site_type_symbol
_atom_type_description
_atom_site_fract_x
_atom_site_fract_y
_atom_site_fract_z
_atom_type_partial_charge
C1    C     C_R   0.566869 0.444946 0.810406 0.561451
C2    C     C_R   0.444844 0.566831 0.189558 0.561247
C3    C     C_R   0.433212 0.878215 0.310386 0.555070
C4    C     C_R   0.121630 0.554986 0.189633 0.559346
C5    C     C_1   0.011463 0.568600 0.018324 0.013660
C6    C     C_1   0.562987 0.996946 0.481014 -0.021517
C7    C     C_1   0.429943 0.439465 0.018419 0.041573
C8    C     C_1   0.007086 0.568513 0.481297 -0.018197
C9    C     C_1   0.561953 0.995139 0.019004 -0.021793
C10   C     C_1   0.435881 0.434229 0.480529 0.034507
C11   C     C_1   0.566712 0.004428 0.518959 -0.021578
C12   C     C_R   0.878173 0.433231 0.689603 0.560698
C13   C     C_1   0.004142 0.564685 0.980385 -0.017438
C14   C     C_1   0.439604 0.430203 0.518454 -0.018317
C15   C     C_1   0.565861 0.002829 0.981074 -0.022222
C16   C     C_1   0.999211 0.564494 0.519216 0.034379
C17   C     C_1   0.434031 0.435574 0.980504 0.041569
C18   C     C_R   0.938774 0.474666 0.851028 -0.005704
C19   C     C_R   0.536800 0.062231 0.648776 -0.006485
C20   C     C_R   0.525543 0.463056 0.851250 0.012332
C21   C     C_R   0.937611 0.474708 0.648733 0.011300
C22   C     C_R   0.537234 0.063066 0.851387 -0.005181
C23   C     C_R   0.555080 0.121964 0.810423 0.555487
C24   C     C_R   0.525909 0.462302 0.648492 -0.005218
C25   C     C_R   0.474563 0.937685 0.351252 -0.006200
C26   C     C_R   0.062422 0.537349 0.148669 0.007624
C27   C     C_R   0.463273 0.525174 0.351184 0.011516
C28   C     C_R   0.474611 0.937834 0.148826 -0.004013
C29   C     C_R   0.063560 0.537529 0.351449 -0.004712
C30   C     C_R   0.461971 0.525911 0.148413 0.011074
C31   C     C_R   0.988344 0.587843 0.861939 0.135798
C32   C     C_R   0.602294 0.014978 0.637571 0.135577
C33   C     C_R   0.411907 0.401014 0.861842 0.079881
C34   C     C_R   0.566831 0.444922 0.689582 0.555596
C35   C     C_R   0.987313 0.588039 0.637802 0.080799
C36   C     C_R   0.601545 0.014378 0.862483 0.135904
C37   C     C_R   0.413345 0.396238 0.637055 0.136327
C38   C     C_R   0.587459 0.985684 0.362410 0.135568
C39   C     C_R   0.017999 0.605256 0.136949 0.091954
C40   C     C_R   0.400334 0.411665 0.361923 0.081387
C41   C     C_R   0.587263 0.984575 0.137555 0.136144
C42   C     C_R   0.015958 0.602701 0.362673 0.136368
C43   C     C_R   0.396568 0.413079 0.137033 0.080225
C44   C     C_R   0.012483 0.620781 0.904651 0.122270
C45   C     C_R   0.878308 0.433176 0.810358 0.556310
C46   C     C_R   0.613175 0.993798 0.594695 0.121544
C47   C     C_R   0.378639 0.392048 0.904721 0.120278
C48   C     C_R   0.010712 0.620688 0.594828 0.118442
C49   C     C_R   0.612011 0.992393 0.905316 0.122120
C50   C     C_R   0.381845 0.384429 0.594089 0.121979
C51   C     C_R   0.619791 0.007430 0.405265 0.121773
C52   C     C_R   0.000705 0.618193 0.093381 0.131627
C53   C     C_R   0.391450 0.378584 0.404834 0.118374
C54   C     C_R   0.619150 0.005488 0.094668 0.122125
C55   C     C_R   0.995413 0.614065 0.405567 0.122358
C56   C     C_R   0.554936 0.121728 0.689631 0.554650
C57   C     C_R   0.385755 0.381668 0.093876 0.118971
C58   C     C_R   0.991396 0.541211 0.935863 -0.012275
C59   C     C_R   0.555062 0.015673 0.563549 -0.010964
C60   C     C_R   0.458427 0.446766 0.936069 0.030448
C61   C     C_R   0.986664 0.540670 0.563711 0.035060
C62   C     C_R   0.554641 0.014925 0.936520 -0.011822
C63   C     C_R   0.462203 0.442063 0.563055 -0.016411
C64   C     C_R   0.539888 0.985338 0.436428 -0.010783
C65   C     C_R   0.021058 0.557289 0.063072 0.021774
C66   C     C_R   0.447155 0.458378 0.436065 0.035263
C67   C     C_R   0.445008 0.566775 0.310387 0.562118
C68   C     C_R   0.539118 0.983931 0.063585 -0.010149
C69   C     C_R   0.018430 0.556877 0.436735 -0.016177
C70   C     C_R   0.441754 0.462382 0.062983 0.030828
C71   C     C_R   0.958512 0.433625 0.924182 -0.120496
C72   C     C_R   0.478376 0.045834 0.575415 -0.120164
C73   C     C_R   0.566846 0.519441 0.924795 -0.136472
C74   C     C_R   0.953179 0.432901 0.575312 -0.135543
C75   C     C_R   0.479510 0.047273 0.924785 -0.118746
C76   C     C_R   0.568908 0.519039 0.575037 -0.122580
C77   C     C_R   0.432756 0.954245 0.424595 -0.119950
C78   C     C_R   0.433237 0.878320 0.189657 0.555800
C79   C     C_R   0.046714 0.477832 0.075633 -0.129062
C80   C     C_R   0.520812 0.566440 0.424627 -0.135323
C81   C     C_R   0.432434 0.954348 0.075513 -0.119803
C82   C     C_R   0.049511 0.480844 0.424938 -0.122247
C83   C     C_R   0.517667 0.569417 0.074899 -0.133331
C84   C     C_R   0.934199 0.399876 0.882315 0.060227
C85   C     C_R   0.466635 0.066829 0.617491 0.058968
C86   C     C_R   0.600788 0.530396 0.882946 0.066312
C87   C     C_R   0.931298 0.399641 0.617285 0.065006
C88   C     C_R   0.468391 0.069391 0.882786 0.065492
C89   C     C_R   0.121973 0.555072 0.310414 0.555900
C90   C     C_R   0.601109 0.531692 0.617207 0.066158
C91   C     C_R   0.399722 0.932625 0.382554 0.059029
C92   C     C_R   0.065414 0.465512 0.117869 0.066605
C93   C     C_R   0.531751 0.600158 0.382728 0.064934
C94   C     C_R   0.399852 0.933587 0.117614 0.061955
C95   C     C_R   0.069994 0.468687 0.382852 0.066228
C96   C     C_R   0.530764 0.601379 0.117074 0.066687
Cr1   Cr    Cr6+3 0.504240 0.249200 0.750000 1.139350
Cr2   Cr    Cr6+3 0.744960 0.495760 0.750000 1.139626
Cr3   Cr    Cr6+3 0.750800 0.255040 0.750000 1.137375
Cr4   Cr    Cr6+3 0.249200 0.504240 0.250000 1.141249
Cr5   Cr    Cr6+3 0.495760 0.744960 0.250000 1.136942
Cr6   Cr    Cr6+3 0.255040 0.750800 0.250000 1.138315
H1    H     H_    0.054190 0.425696 0.052062 0.145992
H2    H     H_    0.430036 0.057430 0.948808 0.150519
H3    H     H_    0.942563 0.373234 0.551220 0.138858
H4    H     H_    0.626538 0.567372 0.949073 0.141819
H5    H     H_    0.950905 0.732567 0.103933 0.283649
H6    H     H_    0.025129 0.751978 0.060388 0.245247
H7    H     H_    0.759880 0.125513 0.432456 0.239258
H8    H     H_    0.738247 0.996048 0.437580 0.251294
H9    H     H_    0.239125 0.239545 0.091984 0.281522
H10   H     H_    0.350787 0.223107 0.095274 0.264582
H11   H     H_    0.007467 0.744389 0.437665 0.258648
H12   H     H_    0.373279 0.944872 0.448559 0.150237
H13   H     H_    0.877923 0.636360 0.433071 0.240272
H14   H     H_    0.759553 0.122285 0.067257 0.241692
H15   H     H_    0.736368 0.992228 0.062315 0.250575
H16   H     H_    0.246195 0.234990 0.406558 0.282244
H17   H     H_    0.359095 0.220975 0.402082 0.264028
H18   H     H_    0.743423 0.006290 0.562413 0.251177
H19   H     H_    0.636090 0.876489 0.567380 0.239552
H20   H     H_    0.132455 0.760929 0.931124 0.238344
H21   H     H_    0.003558 0.740216 0.937206 0.255573
H22   H     H_    0.264609 0.253483 0.561889 0.258469
H23   H     H_    0.566929 0.629427 0.050934 0.139608
H24   H     H_    0.241870 0.360764 0.566208 0.240534
H25   H     H_    0.741375 0.002642 0.937621 0.252007
H26   H     H_    0.633014 0.873526 0.932354 0.238469
H27   H     H_    0.008197 0.763836 0.592953 0.282279
H28   H     H_    0.135471 0.778605 0.597265 0.264416
H29   H     H_    0.234221 0.247594 0.906212 0.283833
H30   H     H_    0.221594 0.361336 0.901788 0.261968
H31   H     H_    0.059717 0.431305 0.448952 0.144954
H32   H     H_    0.372999 0.945606 0.051602 0.146877
H33   H     H_    0.569580 0.626015 0.448805 0.138978
H34   H     H_    0.427949 0.054863 0.551463 0.150088
H35   H     H_    0.949409 0.374249 0.948178 0.147075
H36   H     H_    0.628647 0.569029 0.551118 0.144881
I1    I     I_    0.037987 0.712743 0.814680 -0.128403
I2    I     I_    0.713070 0.035567 0.184554 -0.130664
I3    I     I_    0.963641 0.676243 0.315651 -0.128219
I4    I     I_    0.322994 0.287859 0.184380 -0.195800
I5    I     I_    0.093863 0.332692 0.129775 -0.258528
I6    I     I_    0.235264 0.895826 0.371905 -0.261011
I7    I     I_    0.659740 0.765081 0.127907 -0.255967
I8    I     I_    0.107944 0.341870 0.372262 -0.269211
I9    I     I_    0.236432 0.899725 0.128632 -0.302939
I10   I     I_    0.656498 0.766094 0.372746 -0.247211
I11   I     I_    0.337689 0.101583 0.628288 -0.260026
I12   I     I_    0.676728 0.963787 0.684654 -0.132053
I13   I     I_    0.893300 0.234047 0.872067 -0.264777
I14   I     I_    0.764899 0.660369 0.628161 -0.267820
I15   I     I_    0.343355 0.110059 0.872405 -0.263866
I16   I     I_    0.892147 0.234392 0.627563 -0.245692
I17   I     I_    0.767689 0.653015 0.873343 -0.244823
I18   I     I_    0.288691 0.328892 0.813683 -0.205530
I19   I     I_    0.037726 0.711987 0.685590 -0.202964
I20   I     I_    0.675133 0.962669 0.815319 -0.134071
I21   I     I_    0.287089 0.322244 0.683848 -0.126893
I22   I     I_    0.712824 0.036931 0.315284 -0.132178
I23   I     I_    0.963762 0.673953 0.185595 -0.185891
I24   I     I_    0.327019 0.288211 0.313930 -0.197351
N1    N     N_3   0.962861 0.691103 0.079044 -0.583634
N2    N     N_3   0.681168 0.948152 0.916570 -0.552948
N3    N     N_3   0.058839 0.733835 0.582468 -0.595899
N4    N     N_3   0.265149 0.328360 0.916754 -0.588851
N5    N     N_3   0.733054 0.050948 0.416587 -0.552791
N6    N     N_3   0.319358 0.269014 0.081106 -0.588306
N7    N     N_3   0.952066 0.683895 0.416920 -0.551295
N8    N     N_3   0.732121 0.047744 0.083235 -0.552345
N9    N     N_3   0.326944 0.265257 0.417019 -0.595962
N10   N     N_3   0.683468 0.951000 0.583337 -0.552503
N11   N     N_3   0.057193 0.734300 0.915796 -0.552641
N12   N     N_3   0.268913 0.313781 0.582531 -0.551192
O1    O     O_R   0.480350 0.140770 0.796330 -0.458477
O2    O     O_R   0.140770 0.480350 0.203670 -0.459407
O3    O     O_R   0.519650 0.660420 0.296330 -0.461205
O4    O     O_R   0.339580 0.859230 0.203670 -0.456968
O5    O     O_R   0.514930 0.348530 0.793250 -0.469486
O6    O     O_R   0.833600 0.485070 0.706750 -0.470120
O7    O     O_R   0.651470 0.166400 0.793250 -0.473654
O8    O     O_R   0.514930 0.348530 0.706750 -0.473361
O9    O     O_R   0.833600 0.485070 0.793250 -0.472566
O10   O     O_R   0.651470 0.166400 0.706750 -0.474478
O11   O     O_R   0.348530 0.514930 0.293250 -0.468677
O12   O     O_R   0.660420 0.519650 0.703670 -0.458284
O13   O     O_R   0.485070 0.833600 0.206750 -0.475361
O14   O     O_R   0.166400 0.651470 0.293250 -0.473322
O15   O     O_R   0.348530 0.514930 0.206750 -0.470317
O16   O     O_R   0.485070 0.833600 0.293250 -0.474368
O17   O     O_R   0.166400 0.651470 0.206750 -0.471318
O18   O     O_3   0.666667 0.333333 0.750000 -0.290770
O19   O     O_3   0.333333 0.666667 0.250000 -0.291262
O20   O     O_R   0.859230 0.339580 0.796330 -0.459788
O21   O     O_R   0.480350 0.140770 0.703670 -0.459423
O22   O     O_R   0.660420 0.519650 0.796330 -0.461390
O23   O     O_R   0.859230 0.339580 0.703670 -0.461367
O24   O     O_R   0.140770 0.480350 0.296330 -0.457701
O25   O     O_R   0.519650 0.660420 0.203670 -0.461031
O26   O     O_R   0.339580 0.859230 0.296330 -0.459118

loop_
_geom_bond_atom_site_label_1
_geom_bond_atom_site_label_2
_ccdc_geom_bond_type
C19   C56   S    
C21   C87   A    
H25   N2    S    
C65   C79   A    
C29   C42   A    
C64   C77   A    
C54   N8    S    
C51   N5    S    
Cr4   O15   S    
C2    O15   A    
H13   N7    S    
C7    C70   S    
C29   C89   S    
C72   C85   A    
C48   C61   A    
C33   I18   S    
Cr1   O8    S    
C71   H35   S    
C57   N6    S    
Cr4   O19   S    
C96   I7    S    
Cr3   O20   S    
C8    C69   S    
C80   H33   S    
Cr1   O1    S    
C68   C81   A    
C60   C73   A    
H30   N4    S    
C23   O7    A    
Cr3   O18   S    
C42   C55   A    
C58   C71   A    
Cr1   O5    S    
C23   O1    A    
C63   C76   A    
C35   C48   A    
C26   C92   A    
H10   N6    S    
C28   C41   A    
H26   N2    S    
C93   I10   S    
C28   C94   A    
C6    C64   S    
Cr2   O9    S    
C34   O12   A    
C92   I5    S    
C49   N2    S    
C30   C96   A    
C69   C82   A    
H7    N5    S    
C47   C60   A    
Cr6   O14   S    
H15   N8    S    
C80   C93   A    
Cr1   O18   S    
C48   N3    S    
H29   N4    S    
C44   C58   A    
C41   I2    S    
C20   C86   A    
Cr4   O2    S    
C18   C84   A    
C12   O23   A    
C82   C95   A    
C22   C88   A    
C57   C70   A    
C39   I23   S    
C28   C78   S    
C5    C13   T    
H24   N12   S    
C36   I20   S    
C59   C72   A    
C45   O20   A    
C39   C52   A    
C8    C16   T    
C50   C63   A    
C4    O17   A    
C79   H1    S    
C95   I8    S    
C83   H23   S    
C11   C59   S    
C19   C32   A    
H21   N11   S    
Cr5   O19   S    
C3    O26   A    
C10   C66   S    
C41   C54   A    
H6    N1    S    
C25   C91   A    
C5    C65   S    
C31   C44   A    
Cr2   O22   S    
C2    O25   A    
C3    C25   S    
C1    O22   A    
C27   C67   S    
C44   N11   S    
C90   I14   S    
Cr5   O16   S    
C67   O3    A    
C3    O16   A    
C6    C11   T    
C29   C95   A    
C47   N4    S    
C43   C57   A    
H18   N10   S    
H11   N7    S    
C38   C51   A    
C56   O10   A    
C7    C17   T    
C78   O13   A    
C12   C21   S    
C24   C34   S    
C18   C31   A    
C71   C84   A    
C86   I17   S    
C35   I19   S    
C40   I24   S    
C70   C83   A    
Cr6   O26   S    
C25   C38   A    
C56   O21   A    
H8    N5    S    
C27   C40   A    
Cr3   O23   S    
C42   I3    S    
Cr6   O17   S    
Cr3   O10   S    
C87   I16   S    
H14   N8    S    
C53   C66   A    
C79   C92   A    
C55   C69   A    
C32   I12   S    
C21   C35   A    
C20   C33   A    
Cr2   O18   S    
C12   O6    A    
H5    N1    S    
Cr6   O19   S    
C10   C14   T    
C75   H2    S    
C74   C87   A    
C89   O14   A    
C30   C43   A    
C27   C93   A    
C16   C61   S    
C62   C75   A    
Cr2   O6    S    
C77   H12   S    
C18   C45   S    
C81   H32   S    
C66   C80   A    
C45   O9    A    
C91   I6    S    
C94   I9    S    
C77   C91   A    
C1    C20   S    
C49   C62   A    
C78   O4    A    
C32   C46   A    
C51   C64   A    
C19   C85   A    
C72   H34   S    
C24   C90   A    
C4    C26   S    
Cr5   O25   S    
C13   C58   S    
C76   H36   S    
C61   C74   A    
C24   C37   A    
H20   N11   S    
C22   C36   A    
C50   N12   S    
C2    C30   S    
C88   I15   S    
Cr1   O21   S    
C82   H31   S    
H22   N12   S    
Cr4   O11   S    
C9    C15   T    
C9    C68   S    
C38   I22   S    
Cr2   O12   S    
C36   C49   A    
C74   H3    S    
C81   C94   A    
C1    O5    A    
H28   N3    S    
C37   I21   S    
C73   H4    S    
H16   N9    S    
Cr6   O4    S    
C83   C96   A    
C37   C50   A    
C33   C47   A    
C15   C62   S    
C46   N10   S    
C34   O8    A    
C14   C63   S    
C26   C39   A    
C85   I11   S    
C73   C86   A    
Cr3   O7    S    
Cr5   O3    S    
C53   N9    S    
C17   C60   S    
C84   I13   S    
C75   C88   A    
H19   N10   S    
C54   C68   A    
C46   C59   A    
C40   C53   A    
C4    O2    A    
H17   N9    S    
H27   N3    S    
C22   C23   S    
C43   I4    S    
H9    N6    S    
C89   O24   A    
C52   N1    S    
Cr5   O13   S    
C31   I1    S    
C55   N7    S    
C52   C65   A    
C67   O11   A    
C76   C90   A    
Cr4   O24   S    
