data_mof_unit_66225.cif
_audit_creation_date              2012-12-10T16:56:37-0500
_audit_creation_method            fapswitch 2.2
_symmetry_space_group_name_H-M    P1
_symmetry_Int_Tables_number       1
_space_group_crystal_system       triclinic
_cell_length_a                    10.760608
_cell_length_b                    10.92576
_cell_length_c                    9.733006
_cell_angle_alpha                 90.157408
_cell_angle_beta                  89.877017
_cell_angle_gamma                 90.590898
_cell_volume                      1144.22056393

loop_
_atom_site_label
_atom_site_type_symbol
_atom_type_description
_atom_site_fract_x
_atom_site_fract_y
_atom_site_fract_z
_atom_type_partial_charge
Br1   Br    Br    0.880611 0.378949 0.224138 -0.409983
Br2   Br    Br    0.121412 0.632742 0.231898 -0.413206
Br3   Br    Br    0.316493 0.312325 0.853664 -0.474758
Br4   Br    Br    0.572603 0.647394 0.908852 -0.376538
Br5   Br    Br    0.133301 0.769883 0.512638 -0.441414
Br6   Br    Br    0.866378 0.230373 0.496875 -0.448641
C1    C     C_R   0.498261 0.265480 0.499934 0.877209
C2    C     C_2   0.406948 0.463395 0.077272 -0.012094
C3    C     C_R   0.260045 0.501973 0.499979 0.840012
C4    C     C_R   0.501595 0.734545 0.500219 0.869393
C5    C     C_R   0.739942 0.498312 0.499728 0.827113
C6    C     C_3   0.070586 0.497898 0.648434 -0.378977
C7    C     C_3   0.928448 0.496986 0.648279 -0.380864
C8    C     C_3   0.070438 0.620068 0.425069 0.463621
C9    C     C_3   0.073991 0.385522 0.424816 -0.419739
C10   C     C_3   0.121906 0.502826 0.498840 -0.070099
C11   C     C_3   0.878041 0.497727 0.498389 -0.069869
C12   C     C_3   0.926279 0.617727 0.430917 -0.415980
C13   C     C_3   0.929956 0.383533 0.418230 0.467819
C14   C     C_2   0.496962 0.932680 0.387412 -0.096771
C15   C     C_2   0.507787 0.866692 0.502568 -0.256823
C16   C     C_2   0.502723 0.066744 0.387161 -0.107855
C17   C     C_2   0.491564 0.133400 0.502132 -0.250167
C18   C     C_2   0.421088 0.439431 0.926188 0.373725
Cu1   Cu    Cu3+1 0.500030 0.500020 0.638630 1.084797
Cu2   Cu    Cu3+1 0.499970 0.499980 0.361370 1.039253
H1    H     H_    0.524228 0.908176 0.602011 0.171539
H2    H     H_    0.893628 0.415356 0.705163 0.239611
H3    H     H_    0.895190 0.578947 0.705308 0.226712
H4    H     H_    0.891465 0.697332 0.490708 0.195246
H5    H     H_    0.114885 0.379201 0.320140 0.224145
H6    H     H_    0.108324 0.303700 0.480390 0.202263
H7    H     H_    0.105196 0.576980 0.710101 0.240020
H8    H     H_    0.886053 0.627910 0.326578 0.234080
H9    H     H_    0.485518 0.887571 0.288565 0.200764
H10   H     H_    0.514650 0.111248 0.288255 0.192488
H11   H     H_    0.474599 0.092461 0.601583 0.175170
H12   H     H_    0.318471 0.442055 0.125379 0.192168
H13   H     H_    0.102995 0.413601 0.700479 0.240996
H14   H     H_    0.585769 0.491586 0.110372 0.257615
N1    N     N_2   0.498630 0.498660 0.846910 -0.081142
N2    N     N_2   0.498590 0.498630 0.153040 -0.272388
O1    O     O_R   0.500020 0.321960 0.617040 -0.546107
O2    O     O_R   0.499980 0.321920 0.382900 -0.579103
O3    O     O_R   0.317710 0.500000 0.617070 -0.558926
O4    O     O_R   0.317670 0.499960 0.382930 -0.568801
O5    O     O_R   0.500020 0.678080 0.617100 -0.532200
O6    O     O_R   0.499980 0.678040 0.382960 -0.557864
O7    O     O_R   0.682330 0.500040 0.617070 -0.560768
O8    O     O_R   0.682290 0.500000 0.382930 -0.554682

loop_
_geom_bond_atom_site_label_1
_geom_bond_atom_site_label_2
_ccdc_geom_bond_type
C7    H2    S    
C3    O3    A    
C12   H4    S    
C1    O1    A    
C16   H10   S    
Cu1   O5    S    
C7    C11   S    
C2    C18   S    
Cu1   O1    S    
C6    H13   S    
H14   N2    S    
C11   C12   S    
C15   H1    S    
Cu2   O2    S    
C9    H6    S    
C5    O8    A    
C1    O2    A    
C14   C15   D    
C9    C13   S    
C18   N1    D    
C12   H8    S    
Br3   C18   S    
C2    H12   S    
C9    H5    S    
C1    C17   S    
C7    H3    S    
C11   C13   S    
C3    C10   S    
C14   C16   S    
C8    C10   S    
Cu1   Cu2   S    
Cu2   O8    S    
C4    C15   S    
C4    O6    A    
Br2   C8    S    
Cu1   O7    S    
Br1   C13   S    
Br4   N1    S    
Cu2   O4    S    
C9    C10   S    
Cu1   O3    S    
C3    O4    A    
Cu2   O6    S    
Cu2   N2    S    
Cu1   N1    S    
C4    O5    A    
C8    C12   S    
C16   C17   D    
C5    C11   S    
C5    O7    A    
C6    C7    S    
C6    H7    S    
C17   H11   S    
C14   H9    S    
Br5   C8    S    
Br6   C13   S    
C6    C10   S    
C2    N2    D    
