data_mof_unit_29471.cif
_audit_creation_date              2012-12-11T15:14:45-0500
_audit_creation_method            fapswitch 2.2
_symmetry_space_group_name_H-M    P1
_symmetry_Int_Tables_number       1
_space_group_crystal_system       triclinic
_cell_length_a                    22.226321
_cell_length_b                    7.305764
_cell_length_c                    19.192558
_cell_angle_alpha                 91.255242
_cell_angle_beta                  99.341356
_cell_angle_gamma                 89.056613
_cell_volume                      3074.16291287

loop_
_atom_site_label
_atom_site_type_symbol
_atom_type_description
_atom_site_fract_x
_atom_site_fract_y
_atom_site_fract_z
_atom_type_partial_charge
O1    O     O_R   0.448470 0.506130 0.415700 -0.526092
O2    O     O_R   0.551530 0.006130 0.584300 -0.525516
O3    O     O_R   0.436320 0.174490 0.555800 -0.513842
O4    O     O_R   0.563680 0.674490 0.444200 -0.513321
C1    C     C_R   0.421658 0.346156 0.575195 0.675779
C2    C     C_R   0.578602 0.841910 0.424565 0.673168
O5    O     O_R   0.441350 0.176340 0.414480 -0.537636
O6    O     O_R   0.558650 0.676340 0.585520 -0.538179
O7    O     O_R   0.556600 0.007100 0.441970 -0.524704
O8    O     O_R   0.443400 0.507100 0.558030 -0.533688
C3    C     C_R   0.427437 0.343848 0.388806 0.737017
C4    C     C_R   0.572235 0.845229 0.611346 0.734133
O9    O     O_3   0.537810 0.339550 0.509190 -0.367384
O10   O     O_3   0.462190 0.839550 0.490810 -0.373451
V1    V     V_3+5 0.492990 0.064280 0.498300 1.557422
V2    V     V_3+5 0.507010 0.564280 0.501700 1.565291
C5    C     C_R   0.862798 0.013542 0.697414 -0.147240
C6    C     C_R   0.137547 0.543630 0.301763 -0.146447
H1    H     H_    0.950810 0.039374 0.761401 0.120170
H2    H     H_    0.049399 0.567539 0.237814 0.119587
H3    H     H_    0.778750 0.010631 0.582670 0.143808
H4    H     H_    0.222286 0.556022 0.415957 0.144111
H5    H     H_    0.879709 0.052659 0.650057 0.130401
H6    H     H_    0.120929 0.595387 0.348574 0.131601
C7    C     C_R   0.884085 0.943726 0.821669 -0.066322
C8    C     C_R   0.115609 0.449891 0.178614 -0.066731
C9    C     C_R   0.587935 0.817878 0.742990 -0.117271
C10   C     C_R   0.409944 0.288124 0.257495 -0.120627
C11   C     C_R   0.624158 0.845539 0.809007 -0.158575
C12   C     C_R   0.373939 0.311549 0.191311 -0.150037
C13   C     C_R   0.684251 0.906205 0.816128 0.348264
C14   C     C_R   0.314806 0.384620 0.183870 0.345113
C15   C     C_R   0.713591 0.910703 0.755250 -0.028476
C16   C     C_R   0.286020 0.407619 0.244790 -0.027769
C17   C     C_R   0.675384 0.899658 0.687314 0.015905
C18   C     C_R   0.324530 0.405122 0.312583 0.017444
C19   C     C_R   0.778349 0.931277 0.758041 0.097907
C20   C     C_R   0.221451 0.437120 0.241978 0.098277
C21   C     C_R   0.800789 0.975939 0.695387 0.119240
C22   C     C_R   0.199470 0.498560 0.304031 0.120324
C23   C     C_R   0.761611 0.979565 0.630787 -0.172092
C24   C     C_R   0.239048 0.511549 0.368275 -0.174711
C25   C     C_R   0.700606 0.935618 0.626373 -0.134615
C26   C     C_R   0.299910 0.459468 0.373032 -0.141039
C27   C     C_R   0.822294 0.900072 0.819427 -0.104714
C28   C     C_R   0.177282 0.398768 0.181213 -0.108281
C29   C     C_R   0.903591 0.003336 0.760502 -0.163759
C30   C     C_R   0.096489 0.525010 0.239048 -0.162397
C31   C     C_R   0.612444 0.855052 0.681294 -0.157113
C32   C     C_R   0.386900 0.348058 0.318856 -0.159025
H7    H     H_    0.809524 0.842146 0.865806 0.179800
H8    H     H_    0.189835 0.330056 0.135511 0.178877
H9    H     H_    0.603523 0.833622 0.856130 0.203752
H10   H     H_    0.393887 0.283940 0.144167 0.209270
H11   H     H_    0.673118 0.932759 0.574365 0.110459
H12   H     H_    0.327662 0.463782 0.424873 0.111059
C33   C     C_3   0.777201 0.817912 0.306995 -0.041529
C34   C     C_3   0.230112 0.287624 0.695699 -0.052234
C35   C     C_3   0.796127 0.007878 0.285427 -0.279772
C36   C     C_3   0.198084 0.463495 0.717349 -0.269033
H13   H     H_    0.833568 0.091803 0.314560 0.151096
H14   H     H_    0.153974 0.518247 0.689555 0.162341
C37   C     C_1   0.875368 0.952175 0.121448 -0.125032
C38   C     C_1   0.125281 0.433822 0.880275 -0.120228
C39   C     C_1   0.624498 0.844290 0.378325 -0.061819
C40   C     C_1   0.376169 0.360191 0.621145 -0.063868
C41   C     C_3   0.773524 0.745403 0.229542 -0.156757
C42   C     C_3   0.240869 0.224977 0.774047 -0.089232
C43   C     C_3   0.791305 0.936565 0.208135 -0.019704
C44   C     C_3   0.210086 0.404698 0.794967 -0.044716
C45   C     C_3   0.705521 0.806464 0.214747 0.456745
C46   C     C_3   0.302545 0.327264 0.785210 0.432193
C47   C     C_3   0.708989 0.872996 0.292133 -0.113374
C48   C     C_3   0.291931 0.385125 0.707300 -0.153982
C49   C     C_3   0.723472 0.996965 0.192290 -0.182628
C50   C     C_3   0.271433 0.505650 0.807284 -0.194814
C51   C     C_3   0.727658 0.061455 0.270264 0.359739
C52   C     C_3   0.260173 0.559171 0.728869 0.422314
C53   C     C_1   0.837375 0.950404 0.160487 0.084577
C54   C     C_1   0.163734 0.420313 0.842155 0.097952
C55   C     C_1   0.662548 0.851463 0.339376 0.243235
C56   C     C_1   0.338303 0.372532 0.659966 0.213223
H15   H     H_    0.701317 0.074692 0.145771 0.234180
H16   H     H_    0.288998 0.596716 0.852867 0.218886
H17   H     H_    0.793124 0.615423 0.211457 0.181398
H18   H     H_    0.233925 0.090672 0.797024 0.220423
O11   O     O_R   0.056650 0.288730 0.942060 -0.536273
O12   O     O_R   0.943350 0.788730 0.057940 -0.535281
O13   O     O_R   0.058660 0.616870 0.085540 -0.527091
O14   O     O_R   0.941340 0.116870 0.914460 -0.525228
C57   C     C_R   0.072619 0.449828 0.111128 0.703223
C58   C     C_R   0.927199 0.948439 0.889010 0.705389
O15   O     O_R   0.063700 0.618520 0.944220 -0.528258
O16   O     O_R   0.936300 0.118520 0.055780 -0.530422
O17   O     O_R   0.948460 0.787610 0.915680 -0.539820
O18   O     O_R   0.051540 0.287610 0.084320 -0.538867
C59   C     C_R   0.078881 0.448162 0.925183 0.720382
C60   C     C_R   0.921229 0.952677 0.075337 0.719997
O19   O     O_3   0.962230 0.453430 0.990860 -0.374082
O20   O     O_3   0.037770 0.953430 0.009140 -0.374007
V3    V     V_3+5 0.007010 0.728750 0.001700 1.505694
V4    V     V_3+5 0.992990 0.228750 0.998300 1.508800
C61   C     C_2   0.810288 0.730048 0.372336 0.826715
O21   O     O_2   0.864605 0.693359 0.376857 -0.563944
O22   O     O_R   0.779058 0.691217 0.427736 -0.647840
H19   H     H_    0.806310 0.631955 0.468830 0.299180
C62   C     C_2   0.202970 0.194693 0.627556 0.928886
O23   O     O_2   0.148172 0.166348 0.615301 -0.562139
O24   O     O_R   0.239776 0.147268 0.577310 -0.637715
H20   H     H_    0.215989 0.087584 0.533365 0.304465
S1    S     S_3+6 0.695771 0.265592 0.300771 0.054977
O25   O     O_2   0.636678 0.308138 0.253836 -0.239365
O26   O     O_2   0.684981 0.247871 0.375610 -0.345749
O27   O     O_3   0.745188 0.431914 0.297418 -0.492316
H21   H     H_    0.784083 0.385335 0.324083 0.320612
S2    S     S_3+6 0.263717 0.777905 0.694221 -0.005919
O28   O     O_2   0.314470 0.883676 0.737137 -0.277743
O29   O     O_2   0.273418 0.764506 0.618568 -0.344297
O30   O     O_3   0.195776 0.875641 0.699677 -0.528740
H22   H     H_    0.167591 0.825326 0.658703 0.346599
S3    S     S_3+6 0.645794 0.682057 0.161831 0.134256
O31   O     O_2   0.670104 0.499838 0.140384 -0.271797
O32   O     O_2   0.594546 0.654648 0.202710 -0.266650
O33   O     O_3   0.619689 0.801514 0.088965 -0.470392
H23   H     H_    0.588431 0.722656 0.061005 0.395559
S4    S     S_3+6 0.372919 0.245203 0.833366 0.116905
O34   O     O_2   0.360185 0.128933 0.892803 -0.278006
O35   O     O_2   0.407121 0.133928 0.785460 -0.282409
O36   O     O_3   0.415191 0.425248 0.866417 -0.452373
H24   H     H_    0.453667 0.371121 0.891363 0.401453
C63   C     C_2   0.523317 0.762313 0.741354 0.855314
O37   O     O_2   0.509914 0.672355 0.789506 -0.504821
O38   O     O_R   0.477471 0.815312 0.686393 -0.643282
H25   H     H_    0.435817 0.768907 0.692061 0.343528
C64   C     C_2   0.472470 0.208250 0.259620 0.865480
O39   O     O_2   0.483438 0.107748 0.211261 -0.498689
O40   O     O_R   0.518956 0.247061 0.315971 -0.632507
H26   H     H_    0.557156 0.171417 0.313688 0.343137
S5    S     S_3+6 0.711868 0.017612 0.898447 0.027407
O41   O     O_2   0.756911 0.163230 0.889729 -0.309946
O42   O     O_2   0.659479 0.107448 0.927319 -0.277759
O43   O     O_3   0.744813 0.863899 0.957244 -0.500420
H27   H     H_    0.711656 0.779957 0.963588 0.364106
S6    S     S_3+6 0.287875 0.485510 0.100672 0.031605
O44   O     O_2   0.243718 0.639989 0.108119 -0.310654
O45   O     O_2   0.340830 0.561113 0.071194 -0.270616
O46   O     O_3   0.253983 0.326895 0.043182 -0.501547
H28   H     H_    0.286396 0.235011 0.038357 0.366585

loop_
_geom_bond_atom_site_label_1
_geom_bond_atom_site_label_2
_ccdc_geom_bond_type
C12   C14   A    
S4    O34   D    
O18   V4    S    
C9    C11   A    
C10   C64   S    
C42   H18   S    
S1    O25   D    
O1    C3    A    
C46   C50   S    
O2    C4    A    
C50   H16   S    
C2    O7    A    
O27   H21   S    
O3    V1    S    
C64   O39   D    
C21   C23   A    
C37   C53   T    
O5    C3    A    
C12   H10   S    
C36   C52   S    
C5    H5    S    
C6    H6    S    
C50   C52   S    
C37   C60   S    
S5    O43   S    
H1    C29   S    
C33   C35   S    
C27   H7    S    
C7    C27   A    
C34   C36   S    
C28   H8    S    
C9    C63   S    
S2    O28   D    
C36   H14   S    
C34   C62   S    
C5    C21   A    
C33   C47   S    
C51   S1    S    
C6    C22   A    
O14   V4    S    
S3    O33   S    
C57   O18   A    
C38   C54   T    
C10   C32   A    
C61   O22   S    
C2    C39   S    
O46   H28   S    
C17   C31   A    
C62   O23   D    
C13   C15   A    
O13   C57   A    
C17   C25   A    
C7    C29   A    
C16   C18   A    
C8    C30   A    
C22   C24   A    
O40   H26   S    
O6    V2    S    
C45   C49   S    
C62   O24   S    
C35   C51   S    
C24   C26   A    
C33   C41   S    
S6    O46   S    
C47   C55   S    
O12   V3    S    
C33   C61   S    
S5    O41   D    
C41   H17   S    
C35   H13   S    
C44   C54   S    
C46   C48   S    
O15   V3    S    
C45   C47   S    
C1    C40   S    
S4    O36   S    
O3    C1    A    
C8    C57   S    
C58   O17   A    
C15   C19   A    
C46   S4    S    
C42   C46   S    
C41   C43   S    
C14   C16   A    
O4    V2    S    
C4    C31   S    
C40   C56   T    
O11   V4    S    
C26   H12   S    
O14   C58   A    
O10   V1    S    
C36   C44   S    
O6    C4    A    
S1    O26   D    
O1    V2    S    
O2    V1    S    
C49   C51   S    
S3    O31   D    
H2    C30   S    
C35   C43   S    
H3    C23   S    
S6    O45   D    
C38   C59   S    
C44   C50   S    
O38   H25   S    
C43   C53   S    
O4    C2    A    
C13   S5    S    
C63   O37   D    
O15   C59   A    
C18   C32   A    
C34   C48   S    
O36   H24   S    
C48   C56   S    
C34   C42   S    
C64   O40   S    
C7    C58   S    
S4    O35   D    
O13   V3    S    
C16   C20   A    
C45   S3    S    
C52   S2    S    
C23   C25   A    
C5    C29   A    
S6    O44   D    
C63   O38   S    
C6    C30   A    
O30   H22   S    
C25   H11   S    
O22   H19   S    
S2    O30   S    
C14   S6    S    
C10   C12   A    
O7    V1    S    
C1    O8    A    
C11   C13   A    
C3    C32   S    
O8    V2    S    
O24   H20   S    
C20   C28   A    
C20   C22   A    
S5    O42   D    
C49   H15   S    
H4    C24   S    
C11   H9    S    
O5    V1    S    
O20   V3    S    
C15   C17   A    
S2    O29   D    
C43   C49   S    
S1    O27   S    
C41   C45   S    
S3    O32   D    
C18   C26   A    
C8    C28   A    
O17   V3    S    
O19   V4    S    
O16   V4    S    
C47   C51   S    
C19   C21   A    
C48   C52   S    
O9    V2    S    
C61   O21   D    
O43   H27   S    
C42   C44   S    
O16   C60   A    
C39   C55   T    
C19   C27   A    
O12   C60   A    
C9    C31   A    
O33   H23   S    
O11   C59   A    
