data_mof_unit_9478.cif
_audit_creation_date              2012-12-11T15:34:38-0500
_audit_creation_method            fapswitch 2.2
_symmetry_space_group_name_H-M    P1
_symmetry_Int_Tables_number       1
_space_group_crystal_system       triclinic
_cell_length_a                    15.070636
_cell_length_b                    15.054522
_cell_length_c                    34.948689
_cell_angle_alpha                 90.470062
_cell_angle_beta                  89.829563
_cell_angle_gamma                 60.137342
_cell_volume                      6875.91412356

loop_
_atom_site_label
_atom_site_type_symbol
_atom_type_description
_atom_site_fract_x
_atom_site_fract_y
_atom_site_fract_z
_atom_type_partial_charge
C1    C     C_R   0.302468 0.608206 0.555764 0.543610
C2    C     C_R   0.213761 0.725370 0.391831 -0.143775
C3    C     C_R   0.753099 0.137777 0.267279 -0.116566
C4    C     C_R   0.758833 0.130574 0.227499 -0.114186
C5    C     C_R   0.672250 0.192238 0.205328 0.028947
C6    C     C_R   0.724874 0.222509 0.349135 -0.117982
C7    C     C_R   0.708706 0.243271 0.388267 -0.119989
C8    C     C_R   0.554160 0.231572 0.384787 -0.129380
C9    C     C_R   0.738973 0.583323 0.647816 -0.124010
C10   C     C_R   0.569263 0.212949 0.345619 -0.124814
C11   C     C_R   0.652764 0.211765 0.327352 0.028792
C12   C     C_R   0.620627 0.252577 0.406065 0.018557
C13   C     C_R   0.187855 0.740370 0.353426 -0.133105
C14   C     C_R   0.084519 0.708515 0.093422 0.023111
C15   C     C_R   0.086123 0.626468 0.112847 -0.129060
C16   C     C_R   0.119320 0.606851 0.150496 -0.124166
C17   C     C_R   0.151736 0.668618 0.168960 0.030936
C18   C     C_R   0.159060 0.744355 0.148455 -0.120830
C19   C     C_R   0.125657 0.764200 0.110863 -0.126177
C20   C     C_R   0.248922 0.666828 0.226468 -0.104292
C21   C     C_3   0.498935 0.210227 0.680448 -0.271250
C22   C     C_3   0.387805 0.269395 0.667122 -0.463123
C23   C     C_3   0.504391 0.946795 0.288568 -0.004873
C24   C     C_R   0.193353 0.660096 0.331545 0.003469
C25   C     C_3   0.523754 0.030789 0.273373 -0.249434
C26   C     C_3   0.423436 0.130934 0.268033 -0.495432
C27   C     C_3   0.854388 0.523909 0.425834 0.025575
C28   C     C_3   0.920110 0.554738 0.401895 -0.283886
C29   C     C_3   0.982479 0.585622 0.427384 -0.483414
C30   C     C_3   0.351804 0.671246 0.281561 -0.274147
C31   C     C_3   0.343380 0.775182 0.274596 -0.444032
C32   C     C_3   0.263103 0.449949 0.405589 -0.260618
C33   C     C_3   0.235875 0.380756 0.382024 -0.478366
C34   C     C_R   0.565268 0.726010 0.649862 -0.124870
C35   C     C_R   0.245597 0.629791 0.408958 0.014758
C36   C     C_R   0.736320 0.025031 0.943200 0.542600
C37   C     C_R   0.746172 0.722858 0.945030 0.544983
C38   C     C_R   0.038225 0.734030 0.948288 0.542402
C39   C     C_R   0.723097 0.038462 0.052922 0.543825
C40   C     C_R   0.733535 0.734445 0.054787 0.542696
C41   C     C_R   0.657195 0.661433 0.668719 0.032823
C42   C     C_R   0.027946 0.744536 0.057623 0.545413
C43   C     C_R   0.552491 0.707181 0.611699 -0.133601
C44   C     C_R   0.674102 0.674790 0.787986 0.343923
C45   C     C_R   0.665017 0.669200 0.710522 0.343553
C46   C     C_R   0.763579 0.599451 0.849300 -0.123679
C47   C     C_R   0.779869 0.610093 0.887869 -0.131371
C48   C     C_R   0.628741 0.778626 0.889122 -0.133147
C49   C     C_R   0.612321 0.767863 0.850540 -0.125572
C50   C     C_R   0.681953 0.679866 0.829902 0.033935
C51   C     C_R   0.610592 0.588505 0.555214 0.539954
C52   C     C_R   0.258849 0.669403 0.266199 0.032793
C53   C     C_R   0.715016 0.701510 0.907722 0.023213
C54   C     C_R   0.724646 0.070587 0.905026 0.022003
C55   C     C_R   0.641314 0.087063 0.882177 -0.124187
C56   C     C_R   0.641174 0.106238 0.843298 -0.120806
C57   C     C_R   0.723396 0.110925 0.826642 0.028951
C58   C     C_R   0.802985 0.102553 0.849768 -0.121200
C59   C     C_R   0.803975 0.081853 0.888742 -0.126662
C60   C     C_R   0.735958 0.199401 0.768526 -0.115708
C61   C     C_R   0.725928 0.214233 0.729032 -0.116607
C62   C     C_R   0.708168 0.148515 0.705639 0.015630
C63   C     C_R   0.183331 0.667568 0.289958 0.030796
C64   C     C_R   0.589772 0.301051 0.553720 0.542979
C65   C     C_R   0.707281 0.064021 0.721685 -0.123243
C66   C     C_R   0.715816 0.050045 0.761131 -0.118506
C67   C     C_R   0.727283 0.119314 0.784865 0.022436
C68   C     C_R   0.578940 0.206835 0.652603 0.027830
C69   C     C_R   0.554011 0.239637 0.614556 -0.100376
C70   C     C_R   0.724310 0.212741 0.603175 -0.134482
C71   C     C_R   0.751549 0.177006 0.640331 -0.134178
C72   C     C_R   0.679706 0.174961 0.665327 0.026433
C73   C     C_R   0.624838 0.246075 0.590209 0.002737
C74   C     C_R   0.100896 0.663038 0.273693 -0.135135
C75   C     C_R   0.091340 0.697514 0.911100 0.021101
C76   C     C_R   0.300245 0.609875 0.445895 0.537956
C77   C     C_R   0.121106 0.758685 0.890767 -0.124394
C78   C     C_R   0.144268 0.741152 0.851876 -0.120465
C79   C     C_R   0.139126 0.661617 0.832736 0.030748
C80   C     C_R   0.119081 0.594373 0.853673 -0.117882
C81   C     C_R   0.095153 0.612273 0.892626 -0.126061
C82   C     C_R   0.208074 0.561447 0.771833 -0.110504
C83   C     C_R   0.216188 0.557454 0.731972 -0.108311
C84   C     C_R   0.161018 0.646905 0.710358 0.033115
C85   C     C_R   0.092033 0.661039 0.234269 -0.123831
C86   C     C_R   0.095198 0.739580 0.729270 -0.111371
C87   C     C_R   0.087854 0.743662 0.769040 -0.108627
C88   C     C_R   0.608361 0.590392 0.445470 0.544002
C89   C     C_R   0.145581 0.655063 0.790646 0.031326
C90   C     C_R   0.190999 0.723520 0.652141 -0.117567
C91   C     C_R   0.223926 0.714971 0.614321 -0.125388
C92   C     C_R   0.228277 0.552433 0.608104 -0.132811
C93   C     C_R   0.194592 0.561411 0.645924 -0.126104
C94   C     C_R   0.179366 0.645173 0.668703 0.034208
C95   C     C_R   0.246691 0.627485 0.592394 0.021486
C96   C     C_R   0.166001 0.662839 0.210469 0.010892
C97   C     C_R   0.692510 0.718502 0.090893 0.020303
C98   C     C_R   0.606701 0.800181 0.108802 -0.128519
C99   C     C_R   0.581396 0.791501 0.146533 -0.124103
C100  C     C_R   0.588045 0.302580 0.443852 0.541075
C101  C     C_R   0.641404 0.701064 0.166970 0.035915
C102  C     C_R   0.722192 0.616875 0.148018 -0.116544
C103  C     C_R   0.747363 0.625440 0.110352 -0.127360
C104  C     C_R   0.641852 0.608065 0.226154 -0.140323
C105  C     C_R   0.643274 0.600723 0.265869 -0.173661
C106  C     C_R   0.629114 0.683378 0.289079 0.035180
C107  C     C_R   0.213510 0.568852 0.348806 -0.102212
C108  C     C_R   0.608871 0.776098 0.272151 0.278605
C109  C     C_R   0.611010 0.781517 0.232025 -0.103353
C110  C     C_R   0.627869 0.697779 0.208822 -0.014920
C111  C     C_R   0.547765 0.736944 0.353658 -0.110611
C112  C     C_R   0.631489 0.623526 0.591811 0.022339
C113  C     C_R   0.543973 0.714590 0.392002 -0.181347
C114  C     C_R   0.716834 0.569598 0.386955 0.266174
C115  C     C_R   0.717689 0.589711 0.347976 -0.099945
C116  C     C_R   0.632554 0.671739 0.330975 0.017072
C117  C     C_R   0.625781 0.627499 0.408612 0.008702
C118  C     C_R   0.238554 0.551809 0.387725 0.000437
C119  C     C_R   0.699769 0.099854 0.088350 0.021939
C120  C     C_R   0.774278 0.118094 0.104782 -0.127002
C121  C     C_R   0.762223 0.155116 0.142206 -0.123430
C122  C     C_R   0.675499 0.174585 0.163702 0.031527
C123  C     C_R   0.597019 0.164875 0.146178 -0.121541
C124  C     C_R   0.726269 0.564595 0.609712 -0.131649
C125  C     C_R   0.608952 0.127983 0.108744 -0.127031
C126  C     C_R   0.580705 0.263320 0.223543 -0.125345
C127  C     C_R   0.574998 0.270365 0.263320 -0.124949
C128  C     C_R   0.660601 0.206272 0.285413 0.026423
Cr1   Cr    Cr6+3 0.421670 0.426920 0.499620 0.994139
Cr2   Cr    Cr6+3 0.427030 0.651190 0.500980 1.006121
Cr3   Cr    Cr6+3 0.651280 0.421870 0.499380 1.022765
Cr4   Cr    Cr6+3 0.910810 0.908010 0.001130 1.009702
Cr5   Cr    Cr6+3 0.682800 0.909890 0.998370 1.010024
Cr6   Cr    Cr6+3 0.908370 0.682300 0.002180 1.009772
H1    H     H_    0.788964 0.500270 0.594986 0.127924
H2    H     H_    0.866765 0.106576 0.837304 0.105204
H3    H     H_    0.478664 0.754273 0.598595 0.127614
H4    H     H_    0.780128 0.217451 0.585000 0.124797
H5    H     H_    0.119708 0.824461 0.904201 0.127608
H6    H     H_    0.072681 0.563675 0.907523 0.125536
H7    H     H_    0.183948 0.501103 0.657784 0.102225
H8    H     H_    0.268693 0.485210 0.718209 0.103047
H9    H     H_    0.253005 0.492252 0.788020 0.104207
H10   H     H_    0.161687 0.792622 0.836315 0.108518
H11   H     H_    0.050465 0.809247 0.713321 0.105736
H12   H     H_    0.869276 0.069415 0.905608 0.122979
H13   H     H_    0.037114 0.816257 0.782999 0.111026
H14   H     H_    0.180666 0.788642 0.669048 0.105096
H15   H     H_    0.846721 0.549046 0.901454 0.127916
H16   H     H_    0.237373 0.774101 0.603070 0.126208
H17   H     H_    0.115103 0.532308 0.839417 0.107941
H18   H     H_    0.244547 0.484372 0.591827 0.120420
H19   H     H_    0.562592 0.872742 0.094497 0.124258
H20   H     H_    0.813623 0.560913 0.097298 0.125699
H21   H     H_    0.784751 0.540315 0.330822 0.119190
H22   H     H_    0.655683 0.530095 0.278616 0.119399
H23   H     H_    0.828122 0.153910 0.650109 0.112129
H24   H     H_    0.653740 0.542784 0.208976 0.117429
H25   H     H_    0.517516 0.856972 0.160260 0.095183
H26   H     H_    0.811438 0.533380 0.661342 0.131062
H27   H     H_    0.603945 0.849624 0.219028 0.106757
H28   H     H_    0.481657 0.801446 0.341249 0.118178
H29   H     H_    0.474007 0.762251 0.407926 0.136404
H30   H     H_    0.770351 0.546407 0.163038 0.103415
H31   H     H_    0.844608 0.098188 0.089585 0.124315
H32   H     H_    0.550024 0.115122 0.096785 0.125616
H33   H     H_    0.513451 0.203551 0.329359 0.103002
H34   H     H_    0.726915 0.279762 0.716933 0.121449
H35   H     H_    0.503462 0.325309 0.276893 0.105470
H36   H     H_    0.513276 0.312206 0.207029 0.103526
H37   H     H_    0.501191 0.787581 0.665091 0.130693
H38   H     H_    0.822867 0.163866 0.154979 0.101010
H39   H     H_    0.819868 0.087758 0.283907 0.106720
H40   H     H_    0.829835 0.073831 0.214141 0.107609
H41   H     H_    0.790028 0.221473 0.335499 0.109861
H42   H     H_    0.761561 0.258633 0.403969 0.144341
H43   H     H_    0.529632 0.178811 0.162246 0.101062
H44   H     H_    0.486665 0.236269 0.397796 0.122253
H45   H     H_    0.745136 0.253248 0.786467 0.114430
H46   H     H_    0.055721 0.581679 0.099902 0.126902
H47   H     H_    0.126273 0.827161 0.096329 0.126567
H48   H     H_    0.169107 0.812477 0.340282 0.113489
H49   H     H_    0.817647 0.529904 0.834337 0.129882
H50   H     H_    0.306470 0.667230 0.207895 0.105829
H51   H     H_    0.114927 0.546868 0.165813 0.102554
H52   H     H_    0.043427 0.660677 0.291695 0.114157
H53   H     H_    0.026307 0.659950 0.222349 0.115671
H54   H     H_    0.214453 0.509690 0.330781 0.116475
H55   H     H_    0.183776 0.792932 0.162279 0.101834
H56   H     H_    0.578259 0.114272 0.825892 0.108203
H57   H     H_    0.215221 0.787031 0.407471 0.131770
H58   H     H_    0.577102 0.849859 0.903709 0.125925
H59   H     H_    0.548016 0.830711 0.836501 0.129244
H60   H     H_    0.578944 0.079070 0.893758 0.128322
H61   H     H_    0.367251 0.348480 0.659009 0.152213
H62   H     H_    0.375635 0.229341 0.642619 0.146002
H63   H     H_    0.336286 0.274323 0.690843 0.137419
H64   H     H_    0.517738 0.130689 0.686926 0.146071
H65   H     H_    0.502442 0.247310 0.707601 0.158908
H66   H     H_    0.463794 0.972780 0.316538 0.143371
H67   H     H_    0.695447 0.011690 0.703859 0.114505
H68   H     H_    0.451529 0.936555 0.269001 0.103093
H69   H     H_    0.572786 0.043506 0.293792 0.184237
H70   H     H_    0.564825 0.006743 0.245484 0.161360
H71   H     H_    0.373514 0.119601 0.247605 0.142307
H72   H     H_    0.439386 0.189883 0.256356 0.150185
H73   H     H_    0.382673 0.159028 0.295876 0.137157
H74   H     H_    0.905548 0.460404 0.444950 0.155113
H75   H     H_    0.801274 0.588594 0.444934 0.121121
H76   H     H_    0.972611 0.489419 0.383156 0.163829
H77   H     H_    0.870315 0.620629 0.383468 0.163976
H78   H     H_    0.710739 0.986747 0.773302 0.121309
H79   H     H_    0.930988 0.651222 0.446216 0.150926
H80   H     H_    0.027709 0.609143 0.409282 0.165042
H81   H     H_    0.035688 0.520178 0.445325 0.142067
H82   H     H_    0.337335 0.792186 0.243549 0.146266
H83   H     H_    0.275387 0.836748 0.289754 0.141667
H84   H     H_    0.412586 0.774535 0.285384 0.138324
H85   H     H_    0.362980 0.654423 0.312551 0.160287
H86   H     H_    0.421674 0.610510 0.266933 0.142650
H87   H     H_    0.154749 0.423412 0.372995 0.151670
H88   H     H_    0.286948 0.349204 0.356569 0.138157
H89   H     H_    0.477625 0.265755 0.604147 0.135793
H90   H     H_    0.246933 0.315158 0.399742 0.138154
H91   H     H_    0.346267 0.405488 0.411089 0.192162
H92   H     H_    0.220861 0.465893 0.433193 0.153647
N1    N     N_R   0.750652 0.597732 0.767449 -0.239023
N2    N     N_R   0.746051 0.594834 0.729520 -0.239101
N3    N     N_R   0.588419 0.746464 0.731031 -0.240516
N4    N     N_R   0.593153 0.749510 0.769008 -0.240559
O1    O     O_R   0.502070 0.323090 0.541280 -0.522597
O2    O     O_R   0.831550 0.656950 0.958960 -0.521225
O3    O     O_R   0.998590 0.685540 0.963930 -0.502613
O4    O     O_R   0.338340 0.520690 0.539540 -0.503020
O5    O     O_R   0.008220 0.831200 0.045060 -0.520985
O6    O     O_R   0.813270 0.997930 0.038810 -0.502134
O7    O     O_R   0.657500 0.016560 0.039940 -0.520986
O8    O     O_R   0.685680 0.820940 0.038120 -0.501867
O9    O     O_R   0.822130 0.666070 0.043610 -0.520793
O10   O     O_R   0.989860 0.694000 0.042400 -0.503517
O11   O     O_3   0.833990 0.833400 0.000560 -0.234711
O12   O     O_R   0.520720 0.641670 0.461580 -0.512229
O13   O     O_R   0.324760 0.674070 0.543580 -0.520102
O14   O     O_R   0.522400 0.640310 0.540110 -0.503777
O15   O     O_R   0.675940 0.500630 0.542210 -0.524299
O16   O     O_R   0.641790 0.337020 0.538150 -0.498763
O17   O     O_R   0.500260 0.324550 0.456580 -0.534253
O18   O     O_R   0.336660 0.522040 0.461020 -0.516019
O19   O     O_R   0.322940 0.675540 0.458880 -0.518630
O20   O     O_3   0.598930 0.856308 0.295048 -0.568952
O21   O     O_3   0.802832 0.487397 0.402239 -0.562107
O22   O     O_R   0.674120 0.502090 0.457500 -0.474503
O23   O     O_R   0.640110 0.338380 0.459630 -0.496817
O24   O     O_3   0.499990 0.499990 0.499990 -0.234248
O25   O     O_R   0.017640 0.822070 0.960410 -0.520977
O26   O     O_R   0.822000 0.989470 0.960340 -0.502392
O27   O     O_R   0.666920 0.007430 0.955290 -0.520915
O28   O     O_R   0.694410 0.812480 0.959650 -0.502957

loop_
_geom_bond_atom_site_label_1
_geom_bond_atom_site_label_2
_ccdc_geom_bond_type
C2    C35   A    
C85   H53   S    
C80   H17   S    
C55   C56   A    
C18   H55   S    
C93   C94   A    
C99   H25   S    
Cr1   O24   S    
C81   H6    S    
Cr6   O9    S    
C22   H63   S    
C51   O14   A    
C39   O7    A    
C21   H64   S    
C123  H43   S    
C25   H70   S    
C19   H47   S    
C38   O3    A    
C97   C98   A    
C57   C58   A    
Cr3   O24   S    
C65   C66   A    
C76   O18   A    
C77   C78   A    
C56   C57   A    
C60   H45   S    
C23   H66   S    
C111  H28   S    
N1    N2    A    
C126  C127  A    
C82   C89   A    
C106  C108  A    
C65   H67   S    
C28   C29   S    
C51   O15   A    
C84   C86   A    
C18   C19   A    
C23   O20   S    
C16   H51   S    
C88   O12   A    
C39   O6    A    
C80   C81   A    
C85   C96   A    
C29   H81   S    
C113  H29   S    
C6    H41   S    
C28   H76   S    
C115  C116  A    
C27   H75   S    
C9    C124  A    
C108  C109  A    
C27   H74   S    
C42   O5    A    
C2    C13   A    
C27   O21   S    
C52   C63   A    
C90   H14   S    
Cr3   O15   S    
Cr4   O25   S    
Cr5   O11   S    
C54   C55   A    
Cr2   O14   S    
C3    H39   S    
C47   H15   S    
C60   C67   A    
C16   C17   A    
C5    C126  A    
C92   H18   S    
C40   O8    A    
C64   C73   S    
C69   C73   A    
C70   C71   A    
Cr6   O2    S    
C1    O13   A    
C107  C118  A    
C61   C62   A    
C62   C65   A    
C8    C12   A    
C47   C53   A    
C31   H84   S    
C37   C53   S    
C33   H88   S    
Cr5   O27   S    
C66   C67   A    
C20   C96   A    
C98   H19   S    
C112  C124  A    
C4    H40   S    
C21   C22   S    
C22   H62   S    
C26   H72   S    
C34   C41   A    
Cr5   O7    S    
C57   C67   S    
C76   O19   A    
C104  C105  A    
C44   N1    A    
C83   H8    S    
C120  H31   S    
C90   C94   A    
C6    C7    A    
C54   C59   A    
C7    C12   A    
C71   H23   S    
C56   H56   S    
C35   C76   S    
C79   C89   S    
C21   H65   S    
C23   H68   S    
C101  C102  A    
C59   H12   S    
C36   C54   S    
C2    H57   S    
C68   C72   A    
C32   C118  S    
C6    C11   A    
C24   C107  A    
C42   O10   A    
C78   C79   A    
C68   C69   A    
C31   H82   S    
C9    H26   S    
C58   H2    S    
C25   C26   S    
C107  H54   S    
C82   C83   A    
C92   C95   A    
C3    C4    A    
C13   C24   A    
C106  C116  S    
C60   C61   A    
C69   H89   S    
C45   N2    A    
C46   H49   S    
C10   H33   S    
C13   H48   S    
Cr6   O11   S    
N3    N4    A    
C126  H36   S    
Cr3   O16   S    
C78   H10   S    
C91   H16   S    
Cr4   O6    S    
Cr2   O13   S    
C103  H20   S    
C29   H79   S    
C83   C84   A    
C51   C112  S    
C1    O4    A    
C1    C95   S    
C7    H42   S    
C55   H60   S    
C70   C73   A    
C17   C18   A    
C120  C121  A    
C62   C72   S    
C111  C113  A    
C17   C96   S    
C84   C94   S    
C36   O27   A    
C37   O28   A    
C75   C77   A    
C48   H58   S    
C121  C122  A    
C111  C116  A    
C87   H13   S    
C38   C75   S    
C113  C117  A    
C20   H50   S    
Cr2   O24   S    
C8    C10   A    
Cr5   O28   S    
C99   C101  A    
C32   H92   S    
C49   C50   A    
C24   C63   S    
C28   H77   S    
C87   C89   A    
C21   C68   S    
C22   H61   S    
C58   C59   A    
C26   H71   S    
C127  H35   S    
C43   C112  A    
C29   H80   S    
C44   N4    A    
C100  O23   A    
C86   H11   S    
C119  C125  A    
C40   C97   S    
C43   H3    S    
C93   H7    S    
Cr3   O22   S    
C86   C87   A    
C30   H86   S    
Cr1   O17   S    
Cr2   O19   S    
C44   C50   S    
C34   H37   S    
C46   C50   A    
C46   C47   A    
C48   C49   A    
C124  H1    S    
C115  H21   S    
C3    C128  A    
Cr6   O10   S    
C14   C19   A    
C45   N3    A    
C75   C81   A    
C34   C43   A    
C77   H5    S    
C101  C110  S    
C104  H24   S    
C82   H9    S    
C25   H69   S    
C26   H73   S    
C64   O1    A    
C119  C120  A    
Cr3   O23   S    
C114  C115  A    
C127  C128  A    
C63   C74   A    
C37   O2    A    
C48   C53   A    
C40   O9    A    
C105  C106  A    
Cr1   O1    S    
C9    C41   A    
C14   C42   S    
Cr1   O4    S    
C61   H34   S    
C32   C33   S    
C125  H32   S    
C122  C123  A    
C121  H38   S    
C71   C72   A    
C20   C52   A    
C100  O17   A    
C109  H27   S    
C109  C110  A    
C104  C110  A    
Cr2   O12   S    
C70   H4    S    
C90   C91   A    
C30   C31   S    
C49   H59   S    
C39   C119  S    
C114  O21   S    
C5    C122  S    
C92   C93   A    
Cr6   O3    S    
C38   O25   A    
C11   C128  S    
C23   C25   S    
C74   C85   A    
C102  C103  A    
C97   C103  A    
Cr4   O5    S    
C12   C100  S    
C114  C117  A    
C123  C125  A    
C10   C11   A    
Cr4   O26   S    
C91   C95   A    
C79   C80   A    
C33   H90   S    
C8    H44   S    
Cr4   O11   S    
C4    C5    A    
C105  H22   S    
C64   O16   A    
C32   H91   S    
C102  H30   S    
C98   C99   A    
Cr5   O8    S    
C108  O20   S    
C27   C28   S    
C36   O26   A    
C41   C45   S    
C14   C15   A    
C30   H85   S    
C35   C118  A    
C31   H83   S    
C88   C117  S    
C15   H46   S    
C66   H78   S    
C88   O22   A    
C15   C16   A    
C30   C52   S    
C74   H52   S    
Cr1   O18   S    
C33   H87   S    
