data_mof_unit_34246.cif
_audit_creation_date              2012-12-10T17:57:25-0500
_audit_creation_method            fapswitch 2.2
_symmetry_space_group_name_H-M    P1
_symmetry_Int_Tables_number       1
_space_group_crystal_system       triclinic
_cell_length_a                    9.707883
_cell_length_b                    10.768631
_cell_length_c                    13.639839
_cell_angle_alpha                 91.686498
_cell_angle_beta                  74.350376
_cell_angle_gamma                 90.23672
_cell_volume                      1372.45181825

loop_
_atom_site_label
_atom_site_type_symbol
_atom_type_description
_atom_site_fract_x
_atom_site_fract_y
_atom_site_fract_z
_atom_type_partial_charge
C1    C     C_R   0.499041 0.737373 0.501848 0.851797
C2    C     C_R   0.428072 0.497119 0.979201 -0.123564
C3    C     C_R   0.475760 0.519893 0.873801 -0.191281
C4    C     C_R   0.531971 0.480211 0.033025 -0.092842
C5    C     C_R   0.666095 0.433862 0.977667 -0.237854
C6    C     C_R   0.713576 0.459332 0.873141 0.422677
C7    C     C_R   0.624370 0.532886 0.832881 0.446652
C8    C     C_R   0.510587 0.512610 0.136428 0.219287
C9    C     C_R   0.718058 0.386169 0.136672 0.059154
C10   C     C_R   0.379460 0.504309 0.812043 -0.237550
C11   C     C_R   0.541476 0.938087 0.579400 -0.390217
C12   C     C_R   0.424195 0.502153 0.699017 0.865879
C13   C     C_R   0.536554 0.068422 0.583900 0.490967
C14   C     C_R   0.497798 0.129479 0.505817 -0.136122
C15   C     C_R   0.452192 0.063313 0.431434 -0.355252
C16   C     C_R   0.438753 0.934570 0.435031 0.515130
C17   C     C_R   0.495454 0.871963 0.504237 -0.154202
C18   C     C_R   0.913020 0.599427 0.539313 0.453149
C19   C     C_R   0.057089 0.592488 0.549192 0.437835
C20   C     C_R   0.091088 0.408629 0.450538 0.130525
C21   C     C_R   0.940905 0.400927 0.461282 0.450400
C22   C     C_R   0.499036 0.263180 0.502601 0.875839
C23   C     C_R   0.574860 0.492316 0.301162 0.873490
C24   C     C_R   0.747801 0.369348 0.030226 0.567040
C25   C     C_R   0.607288 0.468577 0.189456 -0.273893
C26   C     C_R   0.238254 0.470129 0.859856 0.026290
C27   C     C_R   0.185437 0.486790 0.964817 0.412672
C28   C     C_R   0.281677 0.473437 0.023152 0.454735
Cu1   Cu    Cu3+1 0.359340 0.499980 0.500000 1.052696
Cu2   Cu    Cu3+1 0.640660 0.500020 0.500000 1.058910
H1    H     H_    0.427585 0.111711 0.370217 0.186195
H2    H     H_    0.579132 0.888015 0.634567 0.177365
N1    N     N_R   0.147940 0.499970 0.499970 -0.257372
N2    N     N_R   0.852060 0.500060 0.499990 -0.281671
O1    O     O_R   0.381250 0.680340 0.500010 -0.494579
O2    O     O_R   0.618820 0.680370 0.500010 -0.545204
O3    O     O_R   0.323240 0.499950 0.650980 -0.566191
O4    O     O_R   0.560810 0.499980 0.650980 -0.542641
O5    O     O_R   0.381180 0.319630 0.499990 -0.575075
O6    O     O_R   0.618750 0.319660 0.499990 -0.528023
O7    O     O_R   0.439190 0.500020 0.349020 -0.526218
O8    O     O_R   0.676760 0.500050 0.349020 -0.545286
I1    I     I_    0.839516 0.278301 0.210550 -0.220148
O9    O     O_3   0.577694 0.138658 0.658346 -0.603097
C29   C     C_3   0.511982 0.095953 0.756743 -0.363933
H3    H     H_    0.512558 0.172674 0.812785 0.186257
H4    H     H_    0.574061 0.017760 0.774945 0.151571
H5    H     H_    0.398242 0.068936 0.766439 0.188330
O10   O     O_3   0.379579 0.867425 0.368050 -0.553015
C30   C     C_3   0.251769 0.923920 0.359861 -0.228954
H6    H     H_    0.190013 0.971741 0.431833 0.138691
H7    H     H_    0.180848 0.851139 0.341579 0.191787
H8    H     H_    0.276237 0.989723 0.296365 0.176892
O11   O     O_3   0.834307 0.706588 0.571050 -0.516046
C31   C     C_3   0.892882 0.802166 0.503513 -0.295786
H9    H     H_    0.904699 0.773179 0.422521 0.158186
H10   H     H_    0.820259 0.883360 0.520885 0.174608
H11   H     H_    0.996318 0.835055 0.514055 0.182660
O12   O     O_3   0.111013 0.686933 0.598575 -0.552242
C32   C     C_3   0.053698 0.677785 0.704544 -0.248971
H12   H     H_    0.117083 0.738008 0.743287 0.149515
H13   H     H_    0.060474 0.581690 0.730510 0.216908
H14   H     H_    0.941855 0.711917 0.728594 0.208938
I2    I     I_    0.223329 0.286881 0.341645 -0.336775
O13   O     O_3   0.887080 0.296802 0.423805 -0.496781
C33   C     C_3   0.887561 0.196301 0.488187 -0.251259
H15   H     H_    0.996784 0.169521 0.490535 0.139518
H16   H     H_    0.840096 0.114346 0.458605 0.187242
H17   H     H_    0.821752 0.217481 0.566720 0.182507
O14   O     O_3   0.852615 0.435013 0.817715 -0.534344
C34   C     C_3   0.850384 0.360608 0.730937 -0.244000
H18   H     H_    0.959149 0.357115 0.678012 0.168787
H19   H     H_    0.780220 0.398015 0.686756 0.175456
H20   H     H_    0.817828 0.264183 0.752974 0.173278
O15   O     O_3   0.856278 0.290007 0.978566 -0.465280
C35   C     C_3   0.795102 0.174646 0.962324 -0.265090
H21   H     H_    0.714425 0.184188 0.918484 0.120128
H22   H     H_    0.745397 0.129504 0.035726 0.151852
H23   H     H_    0.881117 0.112238 0.917255 0.195520
I3    I     I_    0.359099 0.658093 0.197321 -0.309365
I4    I     I_    0.158846 0.309384 0.799420 -0.335397
O16   O     O_3   0.236987 0.408336 0.111828 -0.506970
C36   C     C_3   0.257695 0.279840 0.085799 -0.163002
H24   H     H_    0.367795 0.251537 0.085401 0.133728
H25   H     H_    0.237762 0.252316 0.011361 0.144218
H26   H     H_    0.180603 0.225469 0.143253 0.219294
O17   O     O_3   0.041110 0.478999 0.010754 -0.482283
C37   C     C_3   0.982589 0.598466 0.009033 -0.227034
H27   H     H_    0.983597 0.622543 0.930100 0.151941
H28   H     H_    0.039234 0.670971 0.043273 0.134264
H29   H     H_    0.869786 0.599645 0.055428 0.173989
O18   O     O_3   0.685175 0.618890 0.760604 -0.536976
C38   C     C_3   0.631232 0.738399 0.796026 -0.296469
H30   H     H_    0.632649 0.757793 0.876501 0.135732
H31   H     H_    0.521382 0.750447 0.787606 0.153012
H32   H     H_    0.700898 0.808722 0.749448 0.194761

loop_
_geom_bond_atom_site_label_1
_geom_bond_atom_site_label_2
_ccdc_geom_bond_type
C33   H16   S    
O17   C37   S    
C38   H30   S    
C35   H23   S    
C4    C8    A    
C9    C25   A    
C29   H3    S    
C26   C27   A    
C23   O8    A    
C32   H14   S    
C35   H22   S    
C3    C7    A    
C5    C6    A    
C33   H17   S    
C22   O5    A    
C15   C16   A    
Cu1   N1    S    
Cu2   O4    S    
C32   H13   S    
C18   C19   A    
C12   O3    A    
C16   C17   A    
C30   H7    S    
O14   C34   S    
C21   O13   S    
C37   H27   S    
C10   C26   A    
C33   H15   S    
O12   C32   S    
C38   H31   S    
C13   C14   A    
C8    C25   A    
C29   H4    S    
C9    I1    S    
C30   H8    S    
Cu2   N2    S    
C28   O16   S    
C16   O10   S    
C19   N1    A    
C34   H19   S    
C21   N2    A    
C19   O12   S    
C32   H12   S    
C20   I2    S    
C2    C4    A    
O15   C35   S    
Cu1   Cu2   S    
C36   H24   S    
C37   H29   S    
C22   O6    A    
Cu1   O5    S    
C31   H9    S    
C30   H6    S    
Cu2   O6    S    
C9    C24   A    
C35   H21   S    
C27   O17   S    
C18   N2    A    
C10   C12   S    
C20   N1    A    
C36   H25   S    
C37   H28   S    
C11   H2    S    
O10   C30   S    
C38   H32   S    
C31   H10   S    
O9    C29   S    
C1    O1    A    
C29   H5    S    
C6    O14   S    
O11   C31   S    
C11   C17   A    
Cu1   O7    S    
C4    C5    A    
C34   H20   S    
C24   O15   S    
C15   H1    S    
C6    C7    A    
C26   I4    S    
Cu1   O1    S    
C1    C17   S    
C23   O7    A    
Cu2   O2    S    
C14   C22   S    
C2    C3    A    
C34   H18   S    
O13   C33   S    
C3    C10   A    
C11   C13   A    
C5    C24   A    
C7    O18   S    
O18   C38   S    
C23   C25   S    
C12   O4    A    
C18   O11   S    
C36   H26   S    
C20   C21   A    
O16   C36   S    
C31   H11   S    
Cu1   O3    S    
C27   C28   A    
C8    I3    S    
C14   C15   A    
Cu2   O8    S    
C2    C28   A    
C13   O9    S    
C1    O2    A    
