data_mof_unit_53198.cif
_audit_creation_date              2012-12-11T20:07:17-0500
_audit_creation_method            fapswitch 2.2
_symmetry_space_group_name_H-M    P1
_symmetry_Int_Tables_number       1
_space_group_crystal_system       triclinic
_cell_length_a                    8.460069
_cell_length_b                    16.257359
_cell_length_c                    18.833307
_cell_angle_alpha                 112.200103
_cell_angle_beta                  90.796127
_cell_angle_gamma                 84.039831
_cell_volume                      2384.41555956

loop_
_atom_site_label
_atom_site_type_symbol
_atom_type_description
_atom_site_fract_x
_atom_site_fract_y
_atom_site_fract_z
_atom_type_partial_charge
Ba1   Ba    Ba6+2 0.333520 0.539550 0.472180 1.783028
Ba2   Ba    Ba6+2 0.856270 0.460520 0.527840 1.744660
C1    C     C_3   0.003206 0.810844 0.249563 0.547354
C2    C     C_R   0.437146 0.416354 0.078580 -0.030431
C3    C     C_R   0.282886 0.455506 0.952939 -0.118420
C4    C     C_3   0.470609 0.715545 0.310364 0.290085
C5    C     C_R   0.437283 0.476478 0.975711 0.000903
C6    C     C_R   0.221359 0.457649 0.883937 0.427897
C7    C     C_R   0.319810 0.475002 0.831910 0.020795
C8    C     C_R   0.466840 0.509110 0.858903 -0.045914
C9    C     C_R   0.523763 0.511337 0.931809 0.018775
C10   C     C_R   0.279248 0.458950 0.754165 -0.000508
C11   C     C_R   0.379292 0.483701 0.707937 -0.319216
C12   C     C_3   0.015925 0.761931 0.306423 0.227794
C13   C     C_R   0.511689 0.530154 0.737321 0.054279
C14   C     C_R   0.555897 0.542686 0.814052 -0.013133
C15   C     C_R   0.649679 0.500631 0.070176 0.026349
C16   C     C_3   0.455593 0.738000 0.237829 0.547652
C17   C     C_R   0.712085 0.495202 0.139981 -0.105901
C18   C     C_R   0.629623 0.453549 0.180992 -0.136543
C19   C     C_R   0.501444 0.406362 0.143780 0.429522
C20   C     C_R   0.684226 0.589963 0.848778 0.016836
C21   C     C_R   0.739904 0.591348 0.919220 -0.038999
C22   C     C_R   0.668023 0.547055 0.959824 0.016833
C23   C     C_3   0.100543 0.290836 0.269484 0.520517
C24   C     C_R   0.732998 0.539627 0.028201 0.004222
C25   C     C_R   0.885636 0.562839 0.052198 -0.116804
C26   C     C_R   0.860108 0.527909 0.166779 -0.004395
C27   C     C_R   0.952149 0.553568 0.117826 0.461604
C28   C     C_3   0.664870 0.754756 0.711812 0.223382
C29   C     C_R   0.910387 0.532110 0.240781 0.064947
C30   C     C_R   0.816210 0.502327 0.284455 -0.206241
C31   C     C_R   0.681190 0.459606 0.255889 0.044417
C32   C     C_2   0.396837 0.239593 0.489168 -0.302911
C33   C     C_R   0.802067 0.751004 0.520695 0.234657
C34   C     C_3   0.083951 0.236908 0.182765 -0.226936
C35   C     C_2   0.262460 0.112068 0.403526 -0.127014
C36   C     C_2   0.261973 0.202103 0.439202 -0.059170
C37   C     C_2   0.512812 0.186273 0.505555 -0.009312
C38   C     C_3   0.485986 0.089395 0.485012 0.041586
C39   C     C_3   0.403263 0.050473 0.409276 0.094838
C40   C     C_3   0.688457 0.836424 0.784990 -0.315736
C41   C     C_2   0.621989 0.025534 0.489240 0.388920
C42   C     C_2   0.591140 0.969288 0.523616 -0.108765
C43   C     C_R   0.845793 0.931716 0.574227 0.193429
C44   C     C_R   0.709733 0.902497 0.533874 -0.211803
C45   C     C_3   0.630810 0.241488 0.687872 0.854445
C46   C     C_R   0.958262 0.872250 0.589202 -0.132593
C47   C     C_R   0.936693 0.781927 0.562720 -0.011473
C48   C     C_R   0.685110 0.811668 0.508521 0.075771
C49   C     C_3   0.574071 0.264837 0.341083 0.194614
C50   C     C_3   0.572969 0.163275 0.304691 -0.285217
C51   C     C_3   0.154933 0.668235 0.711177 0.225802
C52   C     C_3   0.206685 0.705632 0.794674 -0.255425
C53   C     C_2   0.096241 0.817991 0.377111 0.398157
C54   C     C_2   0.785136 0.901507 0.770659 0.407690
C55   C     C_2   0.703008 0.119651 0.244680 0.557072
C56   C     C_3   0.689795 0.268206 0.771563 0.583709
C57   C     C_2   0.070201 0.753791 0.849193 0.525922
C58   C     C_2   0.849705 0.753842 0.329101 0.424893
C59   C     C_2   0.047723 0.297628 0.139481 0.469835
C60   C     C_2   0.230107 0.171960 0.150227 0.626883
C61   C     C_2   0.556447 0.286615 0.829461 0.447454
C62   C     C_2   0.147584 0.193683 0.599561 0.539655
C63   C     C_2   0.073704 0.095464 0.698033 0.596349
C64   C     C_2   0.152200 0.214740 0.811873 0.581952
C65   C     C_2   0.138705 0.070721 0.349516 0.622653
C66   C     C_2   0.575418 0.783614 0.655498 0.439304
C67   C     C_3   0.170930 0.237975 0.684474 0.256142
C68   C     C_3   0.179684 0.169825 0.726329 -0.151903
C69   C     C_R   0.504422 0.466426 0.042410 -0.051192
H1    H     H_    0.748260 0.813367 0.827910 0.097302
H2    H     H_    0.296087 0.753144 0.801187 0.099672
H3    H     H_    0.262372 0.650622 0.810575 0.052149
H4    H     H_    0.195585 0.335363 0.278060 0.086560
H5    H     H_    0.980718 0.197474 0.175533 0.072351
H6    H     H_    0.547555 0.298506 0.686256 -0.149029
H7    H     H_    0.287543 0.264526 0.690655 -0.003636
H8    H     H_    0.302084 0.135070 0.716187 0.114341
H9    H     H_    0.369013 0.681884 0.317139 0.069870
H10   H     H_    0.346213 0.472828 0.649633 0.049416
H11   H     H_    0.745582 0.626094 0.822071 0.113652
H12   H     H_    0.570244 0.871072 0.810517 0.148365
H13   H     H_    0.853544 0.509084 0.341320 0.099578
H14   H     H_    0.205173 0.439046 0.989345 0.076990
H15   H     H_    0.340976 0.377366 0.053192 0.165179
H16   H     H_    0.839156 0.629144 0.941144 0.134785
H17   H     H_    0.576676 0.666861 0.303276 0.040455
H18   H     H_    0.961144 0.583432 0.017827 0.070101
H19   H     H_    0.061169 0.896594 0.622023 0.093900
H20   H     H_    0.407862 0.310404 0.506691 0.053912
H21   H     H_    0.471586 0.973194 0.545959 0.111783
H22   H     H_    0.393433 0.806506 0.253855 0.084151
H23   H     H_    0.460898 0.295137 0.373681 0.007958
H24   H     H_    0.781772 0.718522 0.686875 0.016517
H25   H     H_    0.154843 0.875013 0.378733 0.051040
H26   H     H_    0.908093 0.882209 0.751381 0.027827
H27   H     H_    0.707031 0.136934 0.194473 0.015475
H28   H     H_    0.017960 0.818468 0.851437 0.013558
H29   H     H_    0.751969 0.799861 0.324837 0.073149
H30   H     H_    0.805728 0.891484 0.263513 0.351950
H31   H     H_    0.879538 0.299476 0.296733 0.296754
H32   H     H_    0.941014 0.344037 0.154455 -0.022448
H33   H     H_    0.346359 0.195531 0.155286 0.019767
H34   H     H_    0.674152 0.280466 0.380827 0.084860
H35   H     H_    0.950025 0.786298 0.143469 0.330249
H36   H     H_    0.589403 0.757228 0.164282 0.337426
H37   H     H_    0.628349 0.114397 0.664815 0.339138
H38   H     H_    0.802087 0.363141 0.843278 0.281752
H39   H     H_    0.583089 0.295741 0.888345 -0.001030
H40   H     H_    0.826617 0.213473 0.830222 0.267917
H41   H     H_    0.089210 0.231774 0.568763 0.041460
H42   H     H_    0.089904 0.042006 0.719539 -0.019641
H43   H     H_    0.067634 0.273325 0.836267 0.063169
H44   H     H_    0.013478 0.433653 0.910479 0.273155
H45   H     H_    0.456922 0.147101 0.277508 0.078578
H46   H     H_    0.539105 0.297465 0.157869 0.288881
H47   H     H_    0.155093 0.586606 0.094654 0.328280
H48   H     H_    0.020576 0.105235 0.353841 0.091524
H49   H     H_    0.864800 0.628638 0.460092 0.325952
H50   H     H_    0.831931 0.965036 0.446588 0.314612
H51   H     H_    0.418698 0.617397 0.172572 0.320518
H52   H     H_    0.549327 0.853452 0.663589 -0.043249
H53   H     H_    0.587851 0.135673 0.350123 0.090050
H54   H     H_    0.262750 0.636725 0.674170 0.039718
H55   H     H_    0.072853 0.616730 0.703808 0.055155
H56   H     H_    0.125048 0.821024 0.235710 0.117365
O1    O     O_2   0.402610 0.439360 0.314250 -0.434131
O2    O     O_2   0.839310 0.191632 0.494107 -0.439872
O3    O     O_3   0.761059 0.224177 0.636379 -0.536227
O4    O     O_3   0.648560 0.446300 0.404730 -0.463881
O5    O     O_3   0.025080 0.609480 0.556050 -0.473476
O6    O     O_2   0.948320 0.280590 0.426090 -0.458146
O7    O     O_3   0.141860 0.229522 0.304469 -0.674339
O8    O     O_2   0.951548 0.475302 0.748793 -0.385254
O9    O     O_3   0.049404 0.308813 0.717117 -0.531689
O10   O     O_3   0.108870 0.604000 0.387500 -0.459109
O11   O     O_2   0.235502 0.520769 0.247908 -0.438372
O12   O     O_3   0.077871 0.738095 0.693029 -0.682088
O13   O     O_3   0.590568 0.297327 0.282986 -0.662554
O14   O     O_3   0.115686 0.680740 0.269260 -0.560351
O15   O     O_2   0.241370 0.719440 0.573960 -0.386794
O16   O     O_3   0.507090 0.652150 0.432150 -0.404799
O17   O     O_2   0.357201 0.814489 0.509836 -0.421577
O18   O     O_2   0.099867 0.798183 0.433247 -0.558523
O19   O     O_2   0.726033 0.977110 0.781258 -0.528943
O20   O     O_2   0.803162 0.063421 0.251039 -0.527886
O21   O     O_2   0.020594 0.722143 0.892780 -0.596531
O22   O     O_2   0.824619 0.704603 0.361584 -0.677852
O23   O     O_3   0.476973 0.794614 0.375594 -0.660365
O24   O     O_3   0.915872 0.895801 0.282389 -0.708258
O25   O     O_3   0.957051 0.342356 0.300362 -0.779335
O26   O     O_2   0.132624 0.293712 0.086177 -0.552336
O27   O     O_2   0.218915 0.092018 0.118988 -0.533926
O28   O     O_3   0.935353 0.758031 0.180985 -0.708631
O29   O     O_3   0.606322 0.735051 0.206501 -0.743983
O30   O     O_3   0.549516 0.165162 0.667439 -0.808342
O31   O     O_3   0.766800 0.345769 0.789620 -0.704603
O32   O     O_2   0.419068 0.292953 0.811858 -0.642132
O33   O     O_3   0.795889 0.198174 0.775998 -0.716831
O34   O     O_2   0.787080 0.560670 0.685800 -0.478898
O35   O     O_2   0.195361 0.115340 0.564294 -0.609185
O36   O     O_2   0.969264 0.094088 0.652586 -0.511423
O37   O     O_2   0.222679 0.183976 0.854866 -0.540096
O38   O     O_3   0.064961 0.443516 0.867866 -0.709522
O39   O     O_3   0.445998 0.342232 0.164253 -0.702664
O40   O     O_3   0.111032 0.563171 0.130853 -0.686434
O41   O     O_2   0.168977 0.997166 0.298806 -0.550319
O42   O     O_3   0.776284 0.662682 0.496076 -0.676028
O43   O     O_3   0.762656 0.019255 0.449811 -0.684202
O44   O     O_3   0.366691 0.678283 0.182431 -0.710138
O45   O     O_3   0.541120 0.553770 0.595290 -0.438724
O46   O     O_2   0.530301 0.726375 0.598607 -0.505906
O47   O     O_3   0.080800 0.396070 0.612520 -0.517360
O48   O     O_3   0.568697 0.701789 0.732076 -0.654702
O49   O     O_3   0.164600 0.390590 0.443970 -0.454746
O50   O     O_3   0.682580 0.347920 0.567870 -0.490763
P1    P     P_3+3 0.582960 0.413890 0.320860 1.031777
P2    P     P_3+3 0.071690 0.707860 0.593450 1.022027
P3    P     P_3+3 0.505031 0.768035 0.457239 1.117341
P4    P     P_3+3 0.606720 0.586180 0.679160 1.037441
P5    P     P_3+3 0.696435 0.234549 0.550797 1.038995
P6    P     P_3+3 0.088547 0.584868 0.288981 1.111106
P7    P     P_3+3 0.130157 0.277284 0.405070 0.970124
P8    P     P_3+3 0.095771 0.408426 0.708422 1.046574

loop_
_geom_bond_atom_site_label_1
_geom_bond_atom_site_label_2
_ccdc_geom_bond_type
C65   O41   D    
O14   P6    S    
O2    P5    D    
Ba1   O49   S    
O9    P8    S    
C25   C27   A    
C57   H28   S    
H47   O40   S    
C17   C18   A    
Ba1   O1    S    
C61   O32   D    
H40   O33   S    
Ba1   O5    S    
C50   H53   S    
C36   P7    S    
C43   C44   A    
C5    C9    A    
C24   C25   A    
C28   H24   S    
C23   O25   S    
C15   C24   A    
C20   H11   S    
C26   C27   A    
C59   H32   S    
C22   C24   A    
O47   P8    S    
C5    C69   A    
C1    H56   S    
H49   O42   S    
C53   O18   D    
C2    H15   S    
C10   P8    S    
C13   C14   A    
C11   H10   S    
C9    C22   A    
C4    H17   S    
C66   H52   S    
Ba1   Ba2   S    
H51   O44   S    
C32   H20   S    
Ba1   O15   S    
C34   H5    S    
C40   C54   S    
O5    P2    S    
C52   H3    S    
C4    H9    S    
O45   P4    S    
O4    P1    S    
C38   C41   S    
O17   P3    D    
C6    C7    A    
C13   P4    S    
C33   C47   A    
O13   P1    S    
C21   C22   A    
C25   H18   S    
Ba2   O50   S    
H44   O38   S    
C7    C8    A    
H36   O29   S    
C42   H21   S    
O11   P6    D    
O48   P4    S    
C3    H14   S    
C49   O13   S    
C12   C53   S    
C68   H8    S    
C12   O14   S    
C21   H16   S    
O16   P3    S    
C54   O19   D    
C67   H7    S    
C54   H26   S    
C30   H13   S    
H38   O31   S    
Ba2   O34   S    
Ba2   O49   S    
C41   O43   S    
C42   C44   S    
C60   H33   S    
C52   C57   S    
C50   H45   S    
C4    C16   S    
Ba2   O6    S    
C45   O3    S    
C32   C37   D    
C62   O35   D    
O3    P5    S    
C37   C38   S    
C3    C5    A    
H37   O30   S    
C23   C34   S    
Ba1   O4    S    
C16   O44   S    
H30   O24   S    
C19   O39   S    
C49   C50   S    
C34   C60   S    
Ba2   P4    S    
C48   P3    S    
C41   C42   D    
C26   C29   A    
C35   C36   D    
Ba1   O16   S    
C52   H2    S    
Ba1   P1    S    
O6    P7    D    
Ba2   O5    S    
O15   P2    D    
H46   O39   S    
C49   H34   S    
C63   O36   D    
C33   C48   A    
C40   H1    S    
Ba2   O4    S    
C64   O37   D    
C51   H55   S    
C62   C67   S    
C10   C11   A    
C17   C26   A    
C1    C12   S    
C51   H54   S    
C56   O33   S    
C18   C31   A    
C46   C47   A    
C15   C69   A    
C67   O9    S    
C8    C9    A    
C55   O20   D    
C56   O31   S    
C33   O42   S    
O1    P1    D    
C1    O28   S    
C45   H6    S    
C34   C59   S    
C23   O7    S    
C28   O48   S    
Ba1   O10   S    
C50   C55   S    
O23   P3    S    
C45   O30   S    
C43   C46   A    
C56   C61   S    
O49   P7    S    
C38   C39   S    
C14   C20   A    
C64   H43   S    
C29   P6    S    
C31   P1    S    
C32   C36   S    
C63   H42   S    
C29   C30   A    
C62   H41   S    
C40   H12   S    
C16   O29   S    
O7    P7    S    
C53   H25   S    
C58   H29   S    
C59   O26   D    
C3    C6    A    
C66   O46   D    
C51   C52   S    
O10   P6    S    
C12   C58   S    
C44   C48   A    
Ba1   O45   S    
C1    O24   S    
C30   C31   A    
C27   O40   S    
C61   H39   S    
C11   C13   A    
C8    C14   A    
C57   O21   D    
C45   C56   S    
C2    C19   A    
Ba1   P2    S    
C64   C68   S    
C51   O12   S    
C55   H27   S    
C35   C65   S    
C15   C17   A    
H50   O43   S    
C58   O22   D    
C2    C69   A    
C35   C39   S    
C67   C68   S    
C7    C10   A    
C28   C66   S    
C37   P5    S    
O12   P2    S    
C6    O38   S    
C49   H23   S    
C4    O23   S    
C60   O27   D    
C18   C19   A    
H35   O28   S    
Ba2   O45   S    
C16   H22   S    
C20   C21   A    
C28   C40   S    
C46   H19   S    
C23   H4    S    
C63   C68   S    
C65   H48   S    
O8    P8    D    
O34   P4    D    
Ba2   O47   S    
O50   P5    S    
H31   O25   S    
C47   P2    S    
