data_mof_unit_34113.cif
_audit_creation_date              2012-12-11T14:10:44-0500
_audit_creation_method            fapswitch 2.2
_symmetry_space_group_name_H-M    P1
_symmetry_Int_Tables_number       1
_space_group_crystal_system       triclinic
_cell_length_a                    19.7441
_cell_length_b                    17.204541
_cell_length_c                    15.435492
_cell_angle_alpha                 89.989835
_cell_angle_beta                  52.425384
_cell_angle_gamma                 89.976781
_cell_volume                      4155.59252988

loop_
_atom_site_label
_atom_site_type_symbol
_atom_type_description
_atom_site_fract_x
_atom_site_fract_y
_atom_site_fract_z
_atom_type_partial_charge
C1    C     C_R   0.374100 0.196974 0.995328 -0.122076
C2    C     C_R   0.625798 0.803002 0.004802 -0.121888
C3    C     C_R   0.660640 0.175234 0.951286 -0.116274
C4    C     C_R   0.339359 0.824769 0.048723 -0.115518
C5    C     C_R   0.839327 0.675252 0.048658 -0.115892
C6    C     C_R   0.160724 0.324824 0.951143 -0.116192
C7    C     C_R   0.125945 0.696939 0.004576 -0.121393
C8    C     C_R   0.874061 0.303058 0.995420 -0.122104
C9    C     C_3   0.242813 0.221792 0.558315 -0.156633
C10   C     C_3   0.792863 0.809411 0.412858 -0.169804
C11   C     C_3   0.666999 0.274127 0.461270 -0.158687
C12   C     C_3   0.333021 0.725918 0.538793 -0.158523
C13   C     C_3   0.798189 0.741964 0.565898 -0.170328
C14   C     C_3   0.167164 0.226326 0.460926 -0.158809
C15   C     C_3   0.256966 0.722205 0.441905 -0.156362
C16   C     C_3   0.743242 0.277829 0.557919 -0.156009
C17   C     C_2   0.191111 0.742946 0.094046 -0.213135
C18   C     C_2   0.808902 0.257043 0.905943 -0.213545
C19   C     C_2   0.713840 0.687562 0.045169 -0.206490
C20   C     C_2   0.286204 0.312450 0.954665 -0.206549
C21   C     C_2   0.785979 0.187678 0.955060 -0.206579
C22   C     C_2   0.214032 0.812312 0.044929 -0.203048
C23   C     C_2   0.309115 0.243058 0.905616 -0.213465
C24   C     C_2   0.690756 0.756865 0.094484 -0.212933
C25   C     C_R   0.390633 0.802789 0.214091 -0.152642
C26   C     C_R   0.609511 0.197163 0.785815 -0.152650
C27   C     C_R   0.650514 0.827177 0.779244 -0.128334
C28   C     C_R   0.348391 0.171578 0.221388 -0.142191
C29   C     C_R   0.848362 0.328516 0.221443 -0.141935
C30   C     C_R   0.151559 0.671591 0.778581 -0.142388
C31   C     C_R   0.109401 0.302783 0.785899 -0.152409
C32   C     C_R   0.890656 0.697430 0.213135 -0.139891
C33   C     C_R   0.330022 0.913115 0.950916 -0.161139
C34   C     C_R   0.669979 0.086881 0.049082 -0.160867
C35   C     C_R   0.634649 0.889971 0.102888 -0.161773
C36   C     C_R   0.365314 0.110012 0.897160 -0.161835
C37   C     C_R   0.865262 0.390027 0.897231 -0.161992
C38   C     C_R   0.134751 0.609966 0.102756 -0.162555
C39   C     C_R   0.170049 0.413160 0.048928 -0.160765
C40   C     C_R   0.829989 0.586848 0.950982 -0.161126
C41   C     C_R   0.357038 0.079573 0.317154 -0.128005
C42   C     C_R   0.643250 0.919825 0.682835 -0.142701
C43   C     C_R   0.602280 0.104901 0.689864 -0.139774
C44   C     C_R   0.397982 0.894985 0.309982 -0.140432
C45   C     C_R   0.899390 0.606271 0.309003 -0.153360
C46   C     C_R   0.102046 0.394999 0.690004 -0.140589
C47   C     C_R   0.142911 0.579602 0.682820 -0.127846
C48   C     C_R   0.856988 0.420622 0.317122 -0.128592
C49   C     C_R   0.346621 0.185641 0.933154 0.157476
C50   C     C_R   0.653284 0.814326 0.066955 0.157373
C51   C     C_R   0.712321 0.148181 0.977090 0.155606
C52   C     C_R   0.287681 0.851817 0.022912 0.154396
C53   C     C_R   0.787611 0.648137 0.022979 0.155899
C54   C     C_R   0.212444 0.351903 0.976846 0.155563
C55   C     C_R   0.153494 0.685572 0.066671 0.157525
C56   C     C_R   0.846520 0.314420 0.933315 0.157564
C57   C     C_R   0.374883 0.819815 0.311822 0.043181
C58   C     C_R   0.625444 0.180071 0.687983 0.042594
C59   C     C_R   0.692177 0.859788 0.676972 0.031846
C60   C     C_R   0.306918 0.138397 0.323659 0.030549
C61   C     C_R   0.806896 0.361759 0.323707 0.030037
C62   C     C_R   0.192986 0.638436 0.676299 0.030692
C63   C     C_R   0.125175 0.319820 0.688153 0.043122
C64   C     C_R   0.876275 0.681473 0.310019 0.043007
C65   C     C_3   0.205190 0.150849 0.540080 -0.167648
C66   C     C_3   0.830341 0.847246 0.466185 -0.153212
C67   C     C_3   0.704482 0.202873 0.479708 -0.167946
C68   C     C_3   0.295699 0.797183 0.520124 -0.167811
C69   C     C_3   0.760491 0.704759 0.513004 -0.152171
C70   C     C_3   0.204664 0.297277 0.479810 -0.167509
C71   C     C_3   0.294413 0.650957 0.459917 -0.167843
C72   C     C_3   0.705639 0.349069 0.540131 -0.167672
C73   C     C_3   0.714851 0.780639 0.524879 -0.138210
C74   C     C_3   0.284781 0.250693 0.441768 -0.135409
C75   C     C_3   0.375797 0.697695 0.420052 -0.144933
C76   C     C_3   0.624293 0.302243 0.580035 -0.145202
C77   C     C_3   0.124058 0.198001 0.579710 -0.145031
C78   C     C_3   0.877154 0.770144 0.452540 -0.144866
C79   C     C_3   0.784816 0.249138 0.441389 -0.135476
C80   C     C_3   0.215327 0.751006 0.558406 -0.135470
C81   C     C_3   0.752693 0.817726 0.577191 0.186092
C82   C     C_3   0.246982 0.180303 0.423892 0.186761
C83   C     C_3   0.337011 0.768055 0.403982 0.186266
C84   C     C_3   0.663238 0.231891 0.595873 0.186232
C85   C     C_3   0.163020 0.268049 0.596000 0.186279
C86   C     C_3   0.838150 0.733614 0.401625 0.186402
C87   C     C_3   0.747032 0.319830 0.423957 0.186866
C88   C     C_3   0.252949 0.680308 0.576063 0.186741
H1    H     H_    0.381209 0.251679 0.023279 0.079003
H2    H     H_    0.618496 0.748263 0.977128 0.078654
H3    H     H_    0.670492 0.224684 0.901977 0.086424
H4    H     H_    0.329503 0.775326 0.098044 0.086282
H5    H     H_    0.829447 0.724801 0.097792 0.086489
H6    H     H_    0.170629 0.275405 0.901771 0.086439
H7    H     H_    0.118841 0.751648 0.976598 0.079032
H8    H     H_    0.881155 0.248352 0.023415 0.079000
H9    H     H_    0.388601 0.746024 0.185687 0.090419
H10   H     H_    0.611519 0.253946 0.814197 0.090510
H11   H     H_    0.668995 0.776020 0.800716 0.092108
H12   H     H_    0.328887 0.222554 0.200888 0.098929
H13   H     H_    0.828844 0.277540 0.201007 0.098935
H14   H     H_    0.171051 0.722557 0.799070 0.098875
H15   H     H_    0.111430 0.246009 0.814311 0.090337
H16   H     H_    0.888938 0.753843 0.183684 0.084166
H17   H     H_    0.309811 0.946817 0.911193 0.096826
H18   H     H_    0.690191 0.053175 0.088800 0.096772
H19   H     H_    0.638311 0.916080 0.163677 0.089412
H20   H     H_    0.361653 0.083906 0.836367 0.089412
H21   H     H_    0.861565 0.416139 0.836461 0.089531
H22   H     H_    0.138446 0.583854 0.163527 0.089080
H23   H     H_    0.190286 0.446876 0.088586 0.096866
H24   H     H_    0.809768 0.553111 0.911321 0.096691
H25   H     H_    0.205941 0.089813 0.562809 0.105156
H26   H     H_    0.857515 0.906639 0.450243 0.111661
H27   H     H_    0.704160 0.142190 0.455551 0.103173
H28   H     H_    0.296076 0.857880 0.544196 0.102401
H29   H     H_    0.732389 0.645632 0.530333 0.108934
H30   H     H_    0.204604 0.358057 0.455720 0.102425
H31   H     H_    0.293365 0.590008 0.437182 0.105047
H32   H     H_    0.706630 0.410007 0.562952 0.104283
H33   H     H_    0.273153 0.221096 0.599685 0.108039
H34   H     H_    0.790917 0.836291 0.349030 0.102459
H35   H     H_    0.637208 0.274219 0.419250 0.111642
H36   H     H_    0.362716 0.725833 0.580931 0.111451
H37   H     H_    0.799894 0.715402 0.630083 0.105683
H38   H     H_    0.137631 0.226577 0.418585 0.111521
H39   H     H_    0.226461 0.721845 0.400741 0.107778
H40   H     H_    0.773829 0.278174 0.598979 0.108012
H41   H     H_    0.212551 0.722578 0.140105 0.123194
H42   H     H_    0.787457 0.277414 0.859891 0.124096
H43   H     H_    0.690572 0.666490 0.001509 0.122810
H44   H     H_    0.309598 0.333587 0.998150 0.123221
H45   H     H_    0.809344 0.166549 0.998597 0.123219
H46   H     H_    0.190674 0.833438 0.001383 0.122887
H47   H     H_    0.287660 0.222684 0.859590 0.124084
H48   H     H_    0.712078 0.777157 0.140693 0.124609
N1    N     N_R   0.408680 0.130810 0.995780 -0.040930
N2    N     N_R   0.591320 0.869190 0.004220 -0.041360
N3    N     N_R   0.591320 0.130810 0.004220 -0.046728
N4    N     N_R   0.408680 0.869190 0.995780 -0.046642
N5    N     N_R   0.908680 0.630810 0.995780 -0.047037
N6    N     N_R   0.091320 0.369190 0.004220 -0.046769
N7    N     N_R   0.091320 0.630810 0.004220 -0.041097
N8    N     N_R   0.908680 0.369190 0.995780 -0.040947
N9    N     N_R   0.421410 0.867210 0.153620 -0.035049
N10   N     N_R   0.578590 0.132790 0.846380 -0.034988
N11   N     N_R   0.578590 0.867210 0.846380 -0.041205
N12   N     N_R   0.421410 0.132790 0.153620 -0.041057
N13   N     N_R   0.921410 0.367210 0.153620 -0.041082
N14   N     N_R   0.078590 0.632790 0.846380 -0.041100
N15   N     N_R   0.078590 0.367210 0.846380 -0.034985
N16   N     N_R   0.921410 0.632790 0.153620 -0.035632
N17   N     N_R   0.403840 0.921910 0.935760 -0.042571
N18   N     N_R   0.596160 0.078090 0.064240 -0.042626
N19   N     N_R   0.596160 0.921910 0.064240 -0.037594
N20   N     N_R   0.403840 0.078090 0.935760 -0.037502
N21   N     N_R   0.903840 0.421910 0.935760 -0.037514
N22   N     N_R   0.096160 0.578090 0.064240 -0.037199
N23   N     N_R   0.096160 0.421910 0.064240 -0.042556
N24   N     N_R   0.903840 0.578090 0.935760 -0.042575
N25   N     N_R   0.426250 0.076100 0.213650 -0.040780
N26   N     N_R   0.573750 0.923900 0.786350 -0.040217
N27   N     N_R   0.573750 0.076100 0.786350 -0.033604
N28   N     N_R   0.426250 0.923900 0.213650 -0.033901
N29   N     N_R   0.926250 0.576100 0.213650 -0.033384
N30   N     N_R   0.073750 0.423900 0.786350 -0.033880
N31   N     N_R   0.073750 0.576100 0.786350 -0.040736
N32   N     N_R   0.926250 0.423900 0.213650 -0.040444
Ni1   Ni    Ni4+2 0.500000 0.131570 0.000000 0.205102
Ni2   Ni    Ni4+2 0.500000 0.868430 0.000000 0.205746
Ni3   Ni    Ni4+2 1.000000 0.631570 0.000000 0.205220
Ni4   Ni    Ni4+2 1.000000 0.368430 0.000000 0.205104
Ni5   Ni    Ni4+2 0.488900 0.000000 0.862310 0.206990
Ni6   Ni    Ni4+2 0.511100 0.000000 0.137690 0.207398
Ni7   Ni    Ni4+2 0.988900 0.500000 0.862310 0.207509
Ni8   Ni    Ni4+2 0.011100 0.500000 0.137690 0.207353
H49   H     H_    0.346110 0.045709 0.383518 0.092596
H50   H     H_    0.655112 0.953665 0.615882 0.098568
H51   H     H_    0.596846 0.076865 0.631661 0.084872
H52   H     H_    0.403588 0.922931 0.368082 0.084604
H53   H     H_    0.904523 0.578836 0.367839 0.091230
H54   H     H_    0.096432 0.422959 0.631904 0.084695
H55   H     H_    0.153830 0.545743 0.616466 0.092461
H56   H     H_    0.846009 0.454777 0.383320 0.092826
H57   H     H_    0.647268 0.785355 0.556184 0.111728
H58   H     H_    0.351652 0.271675 0.383605 0.112589
H59   H     H_    0.442845 0.677707 0.360253 0.116045
H60   H     H_    0.557224 0.322145 0.639950 0.115907
H61   H     H_    0.056908 0.178263 0.639345 0.115887
H62   H     H_    0.945042 0.764301 0.419409 0.112445
H63   H     H_    0.851607 0.227981 0.382952 0.112428
H64   H     H_    0.148558 0.772243 0.616733 0.112777

loop_
_geom_bond_atom_site_label_1
_geom_bond_atom_site_label_2
_ccdc_geom_bond_type
N2    N19   A    
C68   C80   S    
C78   C86   S    
C15   C71   S    
C41   N25   A    
C36   H20   S    
N13   Ni4   S    
C14   C70   S    
C8    H8    S    
C7    C55   A    
N6    N23   A    
C72   C76   S    
C75   C83   S    
C16   C72   S    
C44   H52   S    
C47   C62   A    
C7    N7    A    
N16   N29   A    
C48   C61   A    
C45   H53   S    
C40   H24   S    
N26   Ni5   S    
C33   C52   A    
C12   C68   S    
C43   H51   S    
C34   C51   A    
C22   H46   S    
N12   N25   A    
N17   Ni5   S    
N6    Ni4   S    
C35   N19   A    
C11   C76   S    
C10   C73   S    
C33   N17   A    
C23   C49   S    
C39   C54   A    
N2    Ni2   S    
C18   C21   D    
C13   C81   S    
N5    Ni3   S    
C47   N31   A    
C3    H3    S    
C1    C49   A    
C14   C77   S    
C37   N21   A    
C26   N10   A    
C67   H27   S    
N22   Ni8   S    
C61   C87   S    
C43   C58   A    
C9    C85   S    
C13   C78   S    
C37   C56   A    
C60   C82   S    
C21   H45   S    
C38   C55   A    
N14   Ni3   S    
C11   C87   S    
C6    H6    S    
C68   H28   S    
C78   H62   S    
C70   C74   S    
C9    H33   S    
C32   H16   S    
N28   Ni6   S    
C6    N6    A    
C47   H55   S    
C17   C55   S    
C37   H21   S    
C76   H60   S    
N11   Ni2   S    
C18   C56   S    
N4    N17   A    
C13   H37   S    
C5    H5    S    
C19   C53   S    
C10   C66   S    
C77   C85   S    
C67   C84   S    
C79   H63   S    
N10   Ni1   S    
C63   C85   S    
C24   C50   S    
C8    C56   A    
C80   H64   S    
C76   C84   S    
N13   N32   A    
C25   C57   A    
C20   H44   S    
C46   N30   A    
C79   C87   S    
C26   H10   S    
C11   C67   S    
C4    C52   A    
C34   N18   A    
C19   H43   S    
C66   C78   S    
C29   C61   A    
N20   Ni5   S    
C64   C86   S    
C28   N12   A    
N18   Ni6   S    
C17   H41   S    
C2    N2    A    
C31   C63   A    
C65   C77   S    
C38   N22   A    
C20   C54   S    
C34   H18   S    
C75   H59   S    
C48   H56   S    
N16   Ni3   S    
C3    C51   A    
C15   C83   S    
N3    N18   A    
C62   C88   S    
C16   C84   S    
N15   Ni4   S    
N1    N20   A    
N29   Ni8   S    
C31   H15   S    
C29   H13   S    
C58   C84   S    
C4    N4    A    
C31   N15   A    
N5    N24   A    
C5    N5    A    
C15   C80   S    
C32   N16   A    
C20   C23   D    
C44   C57   A    
C12   C88   S    
C27   H11   S    
C72   H32   S    
C35   C50   A    
C57   C83   S    
N12   Ni1   S    
N30   Ni7   S    
C67   C79   S    
C8    N8    A    
C69   C73   S    
C26   C58   A    
C28   H12   S    
C32   C64   A    
C28   C60   A    
C30   H14   S    
C73   C81   S    
N19   Ni6   S    
C25   H9    S    
N21   Ni7   S    
C48   N32   A    
C6    C54   A    
N23   Ni8   S    
C30   C62   A    
C2    C50   A    
N24   Ni7   S    
C18   H42   S    
C38   H22   S    
C9    C74   S    
C14   C82   S    
N27   Ni5   S    
C21   C51   S    
C72   C87   S    
C1    N1    A    
C36   N20   A    
N7    N22   A    
C22   C52   S    
C74   C82   S    
C41   H49   S    
N32   Ni8   S    
N9    Ni2   S    
C10   C86   S    
C1    H1    S    
C66   H26   S    
C30   N14   A    
C39   N23   A    
C68   C83   S    
C65   H25   S    
N1    Ni1   S    
C40   N24   A    
C25   N9    A    
C11   H35   S    
C59   C81   S    
C41   C60   A    
C10   H34   S    
N11   N26   A    
C42   C59   A    
C73   H57   S    
C42   N26   A    
N4    Ni2   S    
N9    N28   A    
C23   H47   S    
N15   N30   A    
C7    H7    S    
N10   N27   A    
N8    Ni4   S    
C45   C64   A    
C17   C22   D    
C14   H38   S    
C33   H17   S    
C71   H31   S    
C46   C63   A    
C16   C79   S    
C77   H61   S    
C46   H54   S    
C19   C24   D    
C5    C53   A    
N7    Ni3   S    
C80   C88   S    
C27   N11   A    
C27   C59   A    
C66   C81   S    
C71   C75   S    
N25   Ni6   S    
C69   H29   S    
C24   H48   S    
C65   C82   S    
C13   C69   S    
C42   H50   S    
N14   N31   A    
C39   H23   S    
N3    Ni1   S    
N31   Ni7   S    
C16   H40   S    
C9    C65   S    
C35   H19   S    
C69   C86   S    
C29   N13   A    
C71   C88   S    
C70   H30   S    
C3    N3    A    
C2    H2    S    
C40   C53   A    
C12   C75   S    
C15   H39   S    
C44   N28   A    
C4    H4    S    
N8    N21   A    
C70   C85   S    
C45   N29   A    
C12   H36   S    
C36   C49   A    
C74   H58   S    
C43   N27   A    
