data_mof_unit_8992.cif
_audit_creation_date              2012-12-10T18:44:58-0500
_audit_creation_method            fapswitch 2.2
_symmetry_space_group_name_H-M    P1
_symmetry_Int_Tables_number       1
_space_group_crystal_system       triclinic
_cell_length_a                    19.380897
_cell_length_b                    18.158796
_cell_length_c                    10.760688
_cell_angle_alpha                 89.938562
_cell_angle_beta                  90.066986
_cell_angle_gamma                 89.962745
_cell_volume                      3787.04376433

loop_
_atom_site_label
_atom_site_type_symbol
_atom_type_description
_atom_site_fract_x
_atom_site_fract_y
_atom_site_fract_z
_atom_type_partial_charge
C1    C     C_R   0.367480 0.500033 0.499556 0.792116
C2    C     C_R   0.632489 0.500035 0.499647 0.765257
C3    C     C_R   0.852215 0.501695 0.486842 0.120658
C4    C     C_R   0.147593 0.499113 0.487859 0.119079
C5    C     C_R   0.816572 0.563449 0.530694 -0.186238
C6    C     C_R   0.183915 0.562573 0.453767 -0.143224
C7    C     C_R   0.744743 0.562990 0.534757 -0.200040
C8    C     C_R   0.255717 0.563196 0.458957 -0.189021
C9    C     C_R   0.708064 0.500220 0.496900 -0.027322
C10   C     C_R   0.291828 0.499988 0.496959 -0.033527
C11   C     C_R   0.964090 0.500517 0.594136 -0.199472
C12   C     C_R   0.035614 0.498103 0.594336 -0.198888
C13   C     C_R   0.072046 0.498493 0.482315 0.025041
C14   C     C_R   0.927762 0.502375 0.481884 0.025234
C15   C     C_R   0.036456 0.500709 0.367543 -0.035739
C16   C     C_R   0.963464 0.502444 0.367367 -0.035837
C17   C     C_R   0.471739 0.721259 0.402548 0.081764
C18   C     C_R   0.528424 0.721146 0.597258 0.082529
C19   C     C_R   0.471964 0.798633 0.400008 -0.287377
C20   C     C_R   0.528301 0.798516 0.599602 -0.287237
C21   C     C_R   0.500127 0.838480 0.499783 0.108634
C22   C     C_R   0.502389 0.500034 0.262416 0.795683
C23   C     C_R   0.502557 0.499949 0.737574 0.797650
C24   C     C_R   0.477830 0.960694 0.604663 -0.182727
C25   C     C_R   0.522203 0.960862 0.394897 -0.183948
C26   C     C_R   0.476910 0.038077 0.604084 -0.164197
C27   C     C_R   0.522964 0.038250 0.395505 -0.162842
C28   C     C_R   0.499914 0.078022 0.499818 0.108131
C29   C     C_R   0.500067 0.921011 0.499782 0.112573
C30   C     C_R   0.465335 0.201698 0.405392 -0.095525
C31   C     C_R   0.534494 0.201449 0.594498 -0.096025
C32   C     C_R   0.466456 0.279298 0.408322 0.029128
C33   C     C_R   0.533470 0.279058 0.591671 0.026963
C34   C     C_R   0.499910 0.161108 0.499901 -0.003570
C35   C     C_R   0.612089 0.577885 0.129784 -0.174522
C36   C     C_R   0.612953 0.576655 0.870507 -0.195064
C37   C     C_R   0.663291 0.615536 0.064861 -0.130576
C38   C     C_R   0.663923 0.614681 0.935616 -0.155421
C39   C     C_R   0.559522 0.539480 0.934400 0.100136
C40   C     C_R   0.559246 0.539842 0.065721 0.091478
C41   C     C_R   0.507300 0.499914 0.128844 -0.099887
C42   C     C_R   0.507552 0.499629 0.871157 -0.099818
C43   C     C_R   0.459030 0.457904 0.063976 -0.211620
C44   C     C_R   0.459099 0.457842 0.935944 -0.209567
C45   C     C_R   0.744132 0.438042 0.454678 -0.185915
C46   C     C_R   0.255090 0.436463 0.530976 -0.195522
C47   C     C_R   0.815908 0.438976 0.449015 -0.143599
C48   C     C_R   0.183242 0.436294 0.527463 -0.187633
Cu1   Cu    Cu3+1 0.500000 0.573360 0.500000 0.929224
Cu2   Cu    Cu3+1 0.500000 0.426640 0.500000 0.930246
H1    H     H_    0.420019 0.426423 0.112853 0.144218
H2    H     H_    0.420080 0.426399 0.886987 0.146152
H3    H     H_    0.448717 0.691457 0.326132 0.124605
H4    H     H_    0.551477 0.691284 0.673692 0.121900
H5    H     H_    0.449193 0.827133 0.321574 0.132665
H6    H     H_    0.551127 0.826917 0.677954 0.132530
H7    H     H_    0.459933 0.931729 0.686523 0.131562
H8    H     H_    0.540148 0.932026 0.313020 0.131072
H9    H     H_    0.458121 0.066889 0.685360 0.135813
H10   H     H_    0.541688 0.067201 0.314241 0.136252
H11   H     H_    0.439378 0.310328 0.337495 0.132036
H12   H     H_    0.560527 0.309896 0.662598 0.137009
H13   H     H_    0.615308 0.578001 0.230040 0.150965
H14   H     H_    0.616783 0.575665 0.770331 0.135865
H15   H     H_    0.703063 0.644785 0.115259 0.127544
H16   H     H_    0.704488 0.642935 0.885591 0.123978
H17   H     H_    0.716855 0.389182 0.424476 0.148724
H18   H     H_    0.281845 0.387169 0.561000 0.147797
H19   H     H_    0.843242 0.390882 0.415541 0.126199
H20   H     H_    0.155391 0.387050 0.554067 0.129221
H21   H     H_    0.844408 0.612053 0.560466 0.127426
H22   H     H_    0.156576 0.611438 0.423357 0.125811
H23   H     H_    0.717944 0.611399 0.568318 0.141248
H24   H     H_    0.282962 0.612686 0.431680 0.145733
H25   H     H_    0.936766 0.500109 0.681970 0.144110
H26   H     H_    0.062855 0.496770 0.682343 0.144889
N1    N     N_R   0.500000 0.683620 0.500000 -0.169727
N2    N     N_R   0.500000 0.316380 0.500000 -0.183291
O1    O     O_R   0.400190 0.561980 0.499980 -0.577859
O2    O     O_R   0.599810 0.561980 0.500020 -0.595614
O3    O     O_R   0.400190 0.438070 0.500040 -0.583732
O4    O     O_R   0.599810 0.438070 0.499960 -0.579351
O5    O     O_R   0.500000 0.561970 0.319650 -0.595956
O6    O     O_R   0.500000 0.561970 0.680350 -0.590566
O7    O     O_R   0.500010 0.438060 0.319710 -0.584067
O8    O     O_R   0.499990 0.438060 0.680290 -0.586396
C49   C     C_R   0.426471 0.165262 0.303923 0.100402
C50   C     C_R   0.372782 0.115756 0.330792 -0.115354
C51   C     C_R   0.336927 0.081095 0.234410 -0.141284
C52   C     C_R   0.353980 0.095970 0.110741 -0.113132
C53   C     C_R   0.406745 0.145764 0.083191 -0.133806
C54   C     C_R   0.442749 0.180542 0.179259 -0.182368
H27   H     H_    0.358731 0.104055 0.426171 0.123496
H28   H     H_    0.295853 0.042751 0.255609 0.121681
H29   H     H_    0.326194 0.069052 0.036261 0.117053
H30   H     H_    0.419795 0.157332 0.987379 0.123327
H31   H     H_    0.483763 0.218745 0.156588 0.120838
C55   C     C_R   0.573155 0.164713 0.696082 0.100110
C56   C     C_R   0.626927 0.115238 0.669400 -0.113710
C57   C     C_R   0.662467 0.080148 0.765895 -0.141211
C58   C     C_R   0.645001 0.094550 0.889489 -0.112971
C59   C     C_R   0.592144 0.144307 0.916855 -0.128609
C60   C     C_R   0.556463 0.179523 0.820672 -0.177910
H32   H     H_    0.641250 0.103858 0.574078 0.123860
H33   H     H_    0.703601 0.041818 0.744844 0.121381
H34   H     H_    0.672532 0.067286 0.964054 0.117099
H35   H     H_    0.578759 0.155493 0.012608 0.124838
H36   H     H_    0.515355 0.217670 0.843175 0.118608
C61   C     C_R   0.075401 0.501178 0.248726 0.111477
C62   C     C_R   0.114927 0.439739 0.213839 -0.136384
C63   C     C_R   0.151160 0.440019 0.101548 -0.135790
C64   C     C_R   0.148060 0.501460 0.023369 -0.114894
C65   C     C_R   0.108901 0.562830 0.057584 -0.133894
C66   C     C_R   0.072763 0.562859 0.169974 -0.135817
H37   H     H_    0.117312 0.391624 0.273259 0.120596
H38   H     H_    0.181500 0.392526 0.074977 0.123767
H39   H     H_    0.175992 0.501518 0.936309 0.123569
H40   H     H_    0.106586 0.610402 0.997037 0.123547
H41   H     H_    0.042801 0.610825 0.195752 0.117960
C67   C     C_R   0.924673 0.504590 0.248384 0.113587
C68   C     C_R   0.887920 0.568130 0.214203 -0.142649
C69   C     C_R   0.852857 0.570829 0.100665 -0.133515
C70   C     C_R   0.853709 0.510009 0.021202 -0.102931
C71   C     C_R   0.889947 0.446462 0.054943 -0.134383
C72   C     C_R   0.925449 0.443686 0.168083 -0.136625
H42   H     H_    0.887200 0.615725 0.274762 0.117986
H43   H     H_    0.825432 0.620258 0.073886 0.114920
H44   H     H_    0.826481 0.512223 0.933371 0.125843
H45   H     H_    0.890709 0.399441 0.993242 0.124765
H46   H     H_    0.953554 0.394278 0.193167 0.118143

loop_
_geom_bond_atom_site_label_1
_geom_bond_atom_site_label_2
_ccdc_geom_bond_type
C49   C50   A    
C9    C45   A    
C58   C59   A    
C15   C61   S    
C63   C64   A    
C20   H6    S    
C52   C53   A    
C70   C71   A    
C7    H23   S    
C6    H22   S    
C57   H33   S    
C23   C42   S    
Cu1   O6    S    
C35   C37   A    
C24   C26   A    
C32   H11   S    
C27   H10   S    
C16   C67   S    
C64   H39   S    
C11   C14   A    
C33   N2    A    
C31   C55   S    
C22   C41   S    
C1    O3    A    
C55   C60   A    
C4    C13   S    
C22   O7    A    
C3    C47   A    
C69   H43   S    
C24   C29   A    
C47   H19   S    
Cu2   O7    S    
C53   H30   S    
C62   C63   A    
C72   H46   S    
C38   H16   S    
C33   H12   S    
C23   O8    A    
C37   H15   S    
C45   H17   S    
C31   C33   A    
C63   H38   S    
C26   H9    S    
C66   H41   S    
C50   C51   A    
C44   H2    S    
C56   H32   S    
C28   C34   S    
C49   C54   A    
C41   C43   A    
C42   C44   A    
C30   C49   S    
Cu2   N2    S    
C17   N1    A    
C64   C65   A    
C54   H31   S    
C39   C42   A    
C45   C47   A    
C25   C29   A    
C46   C48   A    
C23   O6    A    
C30   C34   A    
C52   H29   S    
C4    C6    A    
C53   C54   A    
C5    C7    A    
Cu2   O8    S    
C67   C72   A    
C24   H7    S    
C6    C8    A    
C21   C29   S    
Cu1   O1    S    
C43   C44   A    
C46   H18   S    
C37   C38   A    
C56   C57   A    
C8    H24   S    
C31   C34   A    
C59   H35   S    
C12   C13   A    
C68   C69   A    
C60   H36   S    
C3    C14   S    
C61   C66   A    
C40   C41   A    
C55   C56   A    
C13   C15   A    
C1    O1    A    
C14   C16   A    
C2    O4    A    
C25   H8    S    
C17   H3    S    
C10   C46   A    
C39   C40   A    
C67   C68   A    
Cu2   O4    S    
C65   C66   A    
C4    C48   A    
C19   H5    S    
C58   H34   S    
C7    C9    A    
C50   H27   S    
C19   C21   A    
C36   C39   A    
C1    C10   S    
C48   H20   S    
C3    C5    A    
C51   H28   S    
C11   C12   A    
C25   C27   A    
C26   C28   A    
Cu1   O2    S    
C22   O5    A    
Cu1   O5    S    
C12   H26   S    
C35   C40   A    
C69   C70   A    
C68   H42   S    
C5    H21   S    
C11   H25   S    
C61   C62   A    
C30   C32   A    
C43   H1    S    
C70   H44   S    
C18   N1    A    
C36   C38   A    
C57   C58   A    
C17   C19   A    
Cu1   N1    S    
C71   H45   S    
C18   C20   A    
C59   C60   A    
C2    O2    A    
C18   H4    S    
C32   N2    A    
C65   H40   S    
C20   C21   A    
C8    C10   A    
Cu1   Cu2   S    
C27   C28   A    
C35   H13   S    
C51   C52   A    
C36   H14   S    
C2    C9    S    
C62   H37   S    
C15   C16   A    
Cu2   O3    S    
C71   C72   A    
