data_mof_unit_48389.cif
_audit_creation_date              2012-12-11T15:31:31-0500
_audit_creation_method            fapswitch 2.2
_symmetry_space_group_name_H-M    P1
_symmetry_Int_Tables_number       1
_space_group_crystal_system       triclinic
_cell_length_a                    6.942557
_cell_length_b                    14.760711
_cell_length_c                    21.305471
_cell_angle_alpha                 74.905213
_cell_angle_beta                  90.276159
_cell_angle_gamma                 90.544288
_cell_volume                      2107.88842561

loop_
_atom_site_label
_atom_site_type_symbol
_atom_type_description
_atom_site_fract_x
_atom_site_fract_y
_atom_site_fract_z
_atom_type_partial_charge
O1    O     O_R   0.648150 0.130050 0.214300 -0.541601
O2    O     O_R   0.351850 0.869950 0.785700 -0.541601
O3    O     O_R   0.320490 0.006660 0.340150 -0.545909
O4    O     O_R   0.679510 0.993340 0.659850 -0.545910
O5    O     O_R   0.146100 0.869940 0.285700 -0.534704
O6    O     O_R   0.853900 0.130060 0.714300 -0.534703
C1    C     C_R   0.489230 0.001570 0.367150 0.671399
C2    C     C_R   0.510770 0.998430 0.632850 0.671398
O7    O     O_R   0.318690 0.137980 0.218120 -0.542151
O8    O     O_R   0.681310 0.862020 0.781880 -0.542148
O9    O     O_R   0.144280 0.002190 0.162800 -0.539123
O10   O     O_R   0.855720 0.997810 0.837200 -0.539121
C3    C     C_R   0.487999 0.175609 0.206008 0.689656
C4    C     C_R   0.512001 0.824391 0.793993 0.689656
O11   O     O_R   0.649960 0.997790 0.337200 -0.543049
O12   O     O_R   0.350040 0.002210 0.662800 -0.543047
O13   O     O_3   0.479300 0.955290 0.231990 -0.358554
O14   O     O_3   0.520700 0.044710 0.768010 -0.358555
V1    V     V_3+5 0.206040 0.008290 0.253340 1.434389
V2    V     V_3+5 0.793960 0.991710 0.746660 1.434399
O15   O     O_R   0.814320 0.993320 0.159850 -0.540600
O16   O     O_R   0.185680 0.006680 0.840150 -0.540602
C5    C     C_R   0.982870 0.998367 0.132844 0.691369
C6    C     C_R   0.017130 0.001633 0.867156 0.691371
O17   O     O_R   0.816120 0.862000 0.281880 -0.535352
O18   O     O_R   0.183880 0.138000 0.718120 -0.535360
C7    C     C_R   0.984205 0.824374 0.293991 0.709719
C8    C     C_R   0.015796 0.175625 0.706008 0.709716
V3    V     V_3+5 0.705540 0.991700 0.246660 1.448161
V4    V     V_3+5 0.294460 0.008300 0.753340 1.448149
O19   O     O_3   0.982150 0.044700 0.268010 -0.375580
O20   O     O_3   0.017850 0.955300 0.731990 -0.375578
C9    C     C_R   0.989279 0.722939 0.321650 -0.042050
C10   C     C_R   0.010753 0.277062 0.678353 -0.042062
C11   C     C_R   0.954273 0.565974 0.309007 -0.138147
C12   C     C_R   0.046284 0.434012 0.690981 -0.138150
C13   C     C_R   0.962672 0.662425 0.281771 -0.116323
C14   C     C_R   0.037728 0.337566 0.718220 -0.116326
C15   C     C_R   0.007460 0.687182 0.388935 -0.216157
C16   C     C_R   0.992395 0.312826 0.611074 -0.216156
C17   C     C_R   0.996259 0.589413 0.418203 0.087230
C18   C     C_R   0.003933 0.410585 0.581796 0.087220
C19   C     C_R   0.969444 0.529119 0.376611 0.129529
C20   C     C_R   0.031004 0.470870 0.623381 0.129531
C21   C     C_R   0.007980 0.549776 0.487039 0.062357
C22   C     C_R   0.992308 0.450217 0.512958 0.062358
C23   C     C_R   0.966284 0.393666 0.469184 -0.189961
C24   C     C_R   0.034258 0.606319 0.530805 -0.189957
C25   C     C_R   0.955627 0.432512 0.402598 -0.201687
C26   C     C_R   0.045017 0.567470 0.597389 -0.201679
H1    H     H_    0.935017 0.386196 0.371048 0.121568
H2    H     H_    0.065873 0.613778 0.628933 0.121565
H3    H     H_    0.973927 0.261959 0.583294 0.089828
H4    H     H_    0.025495 0.738060 0.416728 0.089811
H5    H     H_    0.053541 0.310006 0.770318 0.143054
H6    H     H_    0.947012 0.689979 0.229668 0.143027
H7    H     H_    0.933084 0.520080 0.277216 0.130354
H8    H     H_    0.067721 0.479898 0.722765 0.130353
H9    H     H_    0.952892 0.318465 0.484557 0.117020
H10   H     H_    0.047925 0.681509 0.515425 0.117023
C27   C     C_3   0.820545 0.995230 0.977304 -0.109794
C28   C     C_3   0.179455 0.004770 0.022696 -0.109798
C29   C     C_3   0.914181 0.920280 0.033613 -0.136130
C30   C     C_3   0.085819 0.079720 0.966387 -0.136122
H11   H     H_    0.843286 0.854582 0.061728 0.139266
H12   H     H_    0.156714 0.145418 0.938272 0.139260
H13   H     H_    0.672198 0.991364 0.958393 0.120240
H14   H     H_    0.327802 0.008636 0.041606 0.120240
C31   C     C_3   0.992253 0.998944 0.062230 -0.019282
C32   C     C_3   0.007747 0.001056 0.937770 -0.019280
C33   C     C_3   0.898701 0.073910 0.006726 -0.133212
C34   C     C_3   0.101299 0.926090 0.993274 -0.133221
H15   H     H_    0.814823 0.134785 0.012697 0.116723
H16   H     H_    0.185177 0.865215 0.987303 0.116721
C35   C     C_3   0.681103 0.994578 0.479378 -0.119648
C36   C     C_3   0.318897 0.005422 0.520622 -0.119650
C37   C     C_3   0.603402 0.073527 0.507863 -0.136314
C38   C     C_3   0.396597 0.926472 0.492137 -0.136316
H17   H     H_    0.688637 0.134213 0.514837 0.097776
H18   H     H_    0.311362 0.865787 0.485163 0.097767
H19   H     H_    0.830547 0.990159 0.462143 0.107025
H20   H     H_    0.169453 0.009841 0.537856 0.107025
C39   C     C_3   0.502650 0.999012 0.562253 -0.004253
C40   C     C_3   0.497350 0.000987 0.437747 -0.004248
C41   C     C_3   0.580397 0.920078 0.534585 -0.143020
C42   C     C_3   0.419602 0.079921 0.465415 -0.143014
H21   H     H_    0.646382 0.854096 0.563584 0.101113
H22   H     H_    0.353618 0.145903 0.436416 0.101101
C43   C     C_R   0.497740 0.277057 0.178393 -0.031115
C44   C     C_R   0.502260 0.722943 0.821609 -0.031112
C45   C     C_R   0.503921 0.433901 0.192181 -0.132017
C46   C     C_R   0.496065 0.566098 0.807822 -0.132017
C47   C     C_R   0.500876 0.337315 0.218885 -0.191267
C48   C     C_R   0.499106 0.662683 0.781118 -0.191254
C49   C     C_R   0.498382 0.313129 0.110996 -0.195301
C50   C     C_R   0.501634 0.686871 0.889006 -0.195303
C51   C     C_R   0.500951 0.411212 0.082081 0.070577
C52   C     C_R   0.499066 0.588788 0.917922 0.070576
C53   C     C_R   0.502828 0.472053 0.124226 0.098227
C54   C     C_R   0.497181 0.527947 0.875777 0.098238
C55   C     C_R   0.500173 0.450307 0.013006 0.023131
C56   C     C_R   0.499850 0.549693 0.986997 0.023132
C57   C     C_R   0.500155 0.606935 0.030849 -0.194598
C58   C     C_R   0.499870 0.393066 0.969154 -0.194595
C59   C     C_R   0.502202 0.569626 0.097808 0.126803
C60   C     C_R   0.497820 0.430374 0.902195 0.126806
H23   H     H_    0.505571 0.737998 0.916933 0.090321
H24   H     H_    0.494457 0.262003 0.083069 0.090322
H25   H     H_    0.500002 0.690488 0.728761 0.103063
H26   H     H_    0.499963 0.309510 0.271242 0.103073
H27   H     H_    0.505990 0.477910 0.225522 0.159016
H28   H     H_    0.493980 0.522088 0.774481 0.158992
H29   H     H_    0.498166 0.682204 0.015030 0.143405
H30   H     H_    0.501862 0.317796 0.984973 0.143407
I1    I     I_    0.501666 0.668606 0.155139 -0.515374
I2    I     I_    0.498385 0.331393 0.844865 -0.515393

loop_
_geom_bond_atom_site_label_1
_geom_bond_atom_site_label_2
_ccdc_geom_bond_type
C27   C32   S    
C29   H11   S    
C55   C56   A    
O11   V3    S    
C2    C39   S    
O13   V3    S    
C5    C31   S    
O4    C2    A    
V1    O19   S    
C58   C60   A    
C6    C32   S    
C23   C25   A    
C21   C22   A    
C7    C9    S    
O9    V1    S    
C9    C15   A    
C10   C16   A    
C57   H29   S    
C36   C38   S    
O3    C1    A    
C38   H18   S    
C35   C40   S    
C15   H4    S    
C37   C39   S    
O12   V4    S    
C31   C33   S    
C18   C22   A    
C30   C33   S    
C45   H27   S    
C27   C29   S    
O7    C3    A    
C4    C44   S    
C28   C30   S    
O5    C7    A    
C13   H6    S    
C35   C41   S    
O6    C8    A    
C14   H5    S    
C29   C31   S    
O8    V2    S    
C25   H1    S    
C50   C52   A    
C26   H2    S    
O3    V1    S    
O14   V4    S    
C30   C32   S    
C11   C19   A    
O14   V2    S    
C47   H26   S    
C24   H10   S    
C27   C33   S    
C41   H21   S    
C1    C40   S    
C8    C10   S    
C2    O12   A    
C17   C19   A    
C18   C20   A    
C36   C39   S    
O1    V3    S    
O18   C8    A    
C51   C53   A    
O7    V1    S    
C44   C48   A    
C37   H17   S    
O17   V3    S    
C53   C59   A    
C19   C25   A    
C34   H16   S    
O8    C4    A    
C36   H20   S    
C33   H15   S    
C35   H19   S    
C1    O11   A    
C52   C56   A    
O15   V3    S    
C9    C13   A    
C28   C31   S    
C60   I2    S    
C30   H12   S    
C43   C49   A    
C45   C47   A    
C27   H13   S    
O10   V2    S    
C46   C48   A    
C28   C34   S    
C57   C59   A    
C24   C26   A    
C35   C37   S    
C58   H30   S    
C38   C41   S    
C39   C41   S    
C50   H23   S    
C37   C42   S    
O18   V4    S    
C55   C58   A    
C52   C54   A    
O15   C5    A    
O16   C6    A    
C12   C20   A    
O1    C3    A    
O2    V4    S    
C36   C42   S    
C46   C54   A    
V2    O20   S    
C21   C24   A    
C20   C26   A    
C22   C23   A    
O16   V4    S    
C3    C43   S    
C10   C14   A    
C54   C60   A    
C59   I1    S    
C46   H28   S    
C40   C42   S    
C16   C18   A    
C49   C51   A    
C44   C50   A    
O5    V1    S    
O17   C7    A    
O6    V2    S    
O10   C6    A    
C48   H25   S    
C12   H8    S    
C28   H14   S    
C11   H7    S    
C12   C14   A    
C11   C13   A    
V3    O19   S    
V4    O20   S    
O9    C5    A    
O13   V1    S    
C42   H22   S    
C43   C47   A    
C56   C57   A    
O2    C4    A    
C49   H24   S    
C23   H9    S    
O4    V2    S    
C38   C40   S    
C29   C34   S    
C15   C17   A    
C16   H3    S    
C17   C21   A    
C32   C34   S    
C45   C53   A    
C51   C55   A    
