data_mof_unit_25410.cif
_audit_creation_date              2012-12-10T16:59:20-0500
_audit_creation_method            fapswitch 2.2
_symmetry_space_group_name_H-M    P1
_symmetry_Int_Tables_number       1
_space_group_crystal_system       triclinic
_cell_length_a                    7.759693
_cell_length_b                    8.595073
_cell_length_c                    27.624389
_cell_angle_alpha                 90.195195
_cell_angle_beta                  85.211078
_cell_angle_gamma                 94.22441
_cell_volume                      1830.98533586

loop_
_atom_site_label
_atom_site_type_symbol
_atom_type_description
_atom_site_fract_x
_atom_site_fract_y
_atom_site_fract_z
_atom_type_partial_charge
C1    C     C_R   0.545886 0.794476 0.498690 0.880287
C2    C     C_R   0.565217 0.663278 0.122793 -0.083642
C3    C     C_R   0.500384 0.476464 0.646412 -0.226554
C4    C     C_R   0.498776 0.521954 0.353530 -0.227287
C5    C     C_R   0.567553 0.630618 0.020695 0.017144
C6    C     C_R   0.403142 0.363715 0.979298 0.012768
C7    C     C_R   0.403396 0.377138 0.030721 0.019690
C8    C     C_R   0.583406 0.609287 0.969562 0.021087
C9    C     C_R   0.483848 0.511873 0.051224 0.082921
C10   C     C_R   0.497427 0.477816 0.948944 0.077863
C11   C     C_R   0.627559 0.771185 0.041819 -0.240713
C12   C     C_R   0.454114 0.205524 0.501314 0.880261
C13   C     C_R   0.313501 0.237375 0.957366 -0.231911
C14   C     C_R   0.633050 0.789917 0.091932 0.105444
C15   C     C_R   0.332195 0.209876 0.907467 0.114556
C16   C     C_R   0.500760 0.495998 0.593947 0.938869
C17   C     C_R   0.499178 0.503891 0.406043 0.939190
C18   C     C_R   0.682628 0.717413 0.938484 -0.224490
C19   C     C_R   0.331934 0.255853 0.062031 -0.231232
C20   C     C_2   0.570146 0.957353 0.498109 0.281541
C21   C     C_2   0.429855 0.042647 0.501901 0.281653
C22   C     C_R   0.606290 0.554124 0.816820 0.580939
C23   C     C_R   0.504296 0.461401 0.897711 -0.093290
C24   C     C_R   0.392401 0.431281 0.183715 0.581810
C25   C     C_R   0.410878 0.326880 0.825879 0.575271
C26   C     C_R   0.574747 0.666526 0.173629 0.572696
C27   C     C_R   0.354976 0.493104 0.726940 0.653590
C28   C     C_R   0.354111 0.597566 0.283950 0.657259
C29   C     C_R   0.355798 0.513408 0.677060 -0.269376
C30   C     C_R   0.354398 0.578555 0.333834 -0.283298
C31   C     C_R   0.641719 0.414168 0.666048 -0.284996
C32   C     C_R   0.644588 0.488229 0.322843 -0.268736
C33   C     C_R   0.640011 0.392190 0.715885 0.661537
C34   C     C_R   0.481300 0.527912 0.102396 -0.089769
C35   C     C_R   0.643559 0.505788 0.272887 0.653621
C36   C     C_R   0.497788 0.433977 0.746411 0.031769
C37   C     C_R   0.497546 0.558763 0.253406 0.038082
C38   C     C_3   0.741598 0.858375 0.857897 -0.318851
C39   C     C_3   0.764029 0.013236 0.885776 -0.522686
C40   C     C_3   0.802740 0.150897 0.850729 -0.689288
C41   C     C_3   0.258800 0.124721 0.144166 -0.322950
C42   C     C_3   0.216551 0.969614 0.118053 -0.538606
C43   C     C_3   0.164241 0.837779 0.154484 -0.667716
C44   C     C_3   0.703564 0.946621 0.112069 -0.339411
C45   C     C_R   0.597447 0.577755 0.867326 -0.098779
C46   C     C_3   0.746036 0.082503 0.075662 -0.467400
C47   C     C_3   0.802940 0.233479 0.101009 -0.762866
C48   C     C_3   0.270858 0.050113 0.887763 -0.343203
C49   C     C_3   0.241464 0.915353 0.925055 -0.462561
C50   C     C_3   0.203413 0.758965 0.900340 -0.764470
C51   C     C_R   0.397177 0.407613 0.133158 -0.094776
C52   C     C_R   0.676451 0.713479 0.888253 0.114938
C53   C     C_R   0.327664 0.266559 0.112588 0.114400
C54   C     C_R   0.416021 0.329906 0.876826 -0.084584
F1    F     F_    0.778938 0.335748 0.734765 -0.612171
F2    F     F_    0.781499 0.465614 0.243218 -0.607177
F3    F     F_    0.212095 0.647872 0.265068 -0.616270
F4    F     F_    0.218501 0.536488 0.756586 -0.605641
F5    F     F_    0.737899 0.019179 0.493773 -0.617582
F6    F     F_    0.262102 0.980822 0.506241 -0.617538
H1    H     H_    0.753361 0.382538 0.642931 0.211411
H2    H     H_    0.286667 0.146984 0.047360 0.138734
H3    H     H_    0.817559 0.261144 0.871548 0.245222
H4    H     H_    0.695491 0.158284 0.826944 0.270214
H5    H     H_    0.923942 0.137244 0.827316 0.301080
H6    H     H_    0.872945 0.011085 0.909219 0.228488
H7    H     H_    0.643958 0.032103 0.909147 0.244128
H8    H     H_    0.643659 0.876924 0.831725 0.239516
H9    H     H_    0.866614 0.837304 0.837242 0.253916
H10   H     H_    0.271219 0.821287 0.177744 0.277010
H11   H     H_    0.047660 0.864858 0.178169 0.299321
H12   H     H_    0.757716 0.445448 0.337353 0.216315
H13   H     H_    0.134973 0.727388 0.134779 0.246961
H14   H     H_    0.108251 0.981414 0.094854 0.233734
H15   H     H_    0.331360 0.937155 0.094672 0.245770
H16   H     H_    0.358306 0.101943 0.169387 0.239181
H17   H     H_    0.138514 0.153861 0.165836 0.259315
H18   H     H_    0.706593 0.260398 0.131241 0.272999
H19   H     H_    0.929901 0.223195 0.115713 0.265649
H20   H     H_    0.816247 0.331475 0.074542 0.248225
H21   H     H_    0.852826 0.053998 0.048447 0.216176
H22   H     H_    0.629525 0.103133 0.056591 0.240474
H23   H     H_    0.014335 0.383301 0.463706 0.221370
H24   H     H_    0.605846 0.985679 0.140176 0.236424
H25   H     H_    0.823839 0.927829 0.129370 0.247820
H26   H     H_    0.076271 0.755965 0.884822 0.266253
H27   H     H_    0.304813 0.739128 0.870742 0.270964
H28   H     H_    0.198855 0.663245 0.927405 0.249141
H29   H     H_    0.358773 0.908596 0.945245 0.238402
H30   H     H_    0.128515 0.933887 0.951308 0.212268
H31   H     H_    0.149809 0.060602 0.870004 0.243730
H32   H     H_    0.372424 0.014982 0.859959 0.237014
H33   H     H_    0.985666 0.616702 0.536292 0.221636
H34   H     H_    0.241601 0.607557 0.356925 0.210985
H35   H     H_    0.245058 0.560664 0.662576 0.215698
H36   H     H_    0.665199 0.870348 0.019115 0.136567
H37   H     H_    0.223702 0.159275 0.978491 0.137997
H38   H     H_    0.768470 0.806210 0.952776 0.141035
N1    N     N_R   0.507407 0.435940 0.797727 -0.306567
N2    N     N_R   0.486530 0.553784 0.202142 -0.305887
N3    N     N_2   0.950320 0.457960 0.486880 -0.147851
N4    N     N_2   0.049680 0.542040 0.513120 -0.147638
O1    O     O_R   0.389250 0.738570 0.503220 -0.575515
O2    O     O_2   0.295702 0.333663 0.214990 -0.542345
O3    O     O_2   0.670749 0.779692 0.195086 -0.566575
O4    O     O_2   0.308806 0.218792 0.804172 -0.556298
O5    O     O_R   0.610750 0.261430 0.496780 -0.575556
O6    O     O_R   0.678390 0.711630 0.494810 -0.581807
O7    O     O_R   0.321610 0.288370 0.505190 -0.581719
O8    O     O_R   0.355440 0.513440 0.575450 -0.618757
O9    O     O_R   0.644560 0.486560 0.424550 -0.619097
O10   O     O_R   0.644590 0.486500 0.567040 -0.633620
O11   O     O_R   0.355410 0.513500 0.432960 -0.634046
O12   O     O_2   0.712990 0.646965 0.786408 -0.533271
Zn1   Zn    Zn3+2 0.306940 0.517990 0.505620 1.033103
Zn2   Zn    Zn3+2 0.693060 0.482010 0.494380 1.032933

loop_
_geom_bond_atom_site_label_1
_geom_bond_atom_site_label_2
_ccdc_geom_bond_type
C11   H36   S    
C33   F1    S    
C43   H13   S    
N3    N4    D    
C23   C45   A    
C27   C29   A    
C41   C42   S    
C31   H1    S    
C47   H19   S    
C49   H30   S    
C16   O8    A    
C32   H12   S    
C28   F3    S    
C42   H15   S    
C40   H3    S    
C47   H20   S    
C35   C37   A    
C5    C11   A    
C41   H17   S    
C38   C39   S    
C11   C14   A    
C38   C52   S    
C19   H2    S    
C33   C36   A    
C3    C29   A    
N4    Zn1   S    
C46   H22   S    
C25   N1    A    
C48   H31   S    
C31   C33   A    
O9    Zn2   S    
C1    O1    A    
C50   H28   S    
C2    C34   A    
C24   C51   A    
C38   H9    S    
C15   C48   S    
C17   O9    A    
C26   O3    S    
C12   O7    A    
C44   C46   S    
C25   O4    S    
C42   H14   S    
C17   O11   A    
C15   C54   A    
C25   C54   A    
C21   F6    S    
C39   C40   S    
C29   H35   S    
O7    Zn1   S    
C45   C52   A    
C12   C21   S    
C8    C18   A    
O11   Zn1   S    
C24   O2    S    
C18   C52   A    
O1    Zn1   S    
C32   C35   A    
C5    C9    A    
C5    C8    A    
C46   H21   S    
C34   C51   A    
C2    C26   A    
C20   F5    S    
C3    C31   A    
C41   C53   S    
C4    C32   A    
C50   H27   S    
C4    C17   S    
C48   C49   S    
C38   H8    S    
C43   H10   S    
C7    C19   A    
C40   H5    S    
C13   C15   A    
C9    C34   A    
C10   C23   A    
C39   H6    S    
C42   C43   S    
C44   H25   S    
O10   Zn2   S    
C16   O10   A    
C23   C54   A    
C14   C44   S    
C7    C9    A    
C46   C47   S    
C1    C20   S    
C43   H11   S    
C22   N1    A    
H23   N3    S    
C35   F2    S    
C24   N2    A    
C39   H7    S    
C49   H29   S    
C44   H24   S    
C27   F4    S    
H33   N4    S    
C6    C10   A    
C12   O5    A    
C6    C7    A    
C27   C36   A    
C40   H4    S    
O6    Zn2   S    
C28   C30   A    
C30   H34   S    
C6    C13   A    
C19   C53   A    
C28   C37   A    
C36   N1    S    
C13   H37   S    
C2    C14   A    
O5    Zn2   S    
C50   H26   S    
C1    O6    A    
C22   O12   S    
C22   C45   A    
C20   C21   D    
C8    C10   A    
C49   C50   S    
C48   H32   S    
N3    Zn2   S    
C18   H38   S    
C47   H18   S    
C51   C53   A    
O8    Zn1   S    
C37   N2    S    
C4    C30   A    
C3    C16   S    
C26   N2    A    
C41   H16   S    
