data_mof_unit_24207.cif
_audit_creation_date              2012-12-10T19:43:26-0500
_audit_creation_method            fapswitch 2.2
_symmetry_space_group_name_H-M    P1
_symmetry_Int_Tables_number       1
_space_group_crystal_system       triclinic
_cell_length_a                    10.854826
_cell_length_b                    10.863892
_cell_length_c                    9.586085
_cell_angle_alpha                 89.153868
_cell_angle_beta                  91.244354
_cell_angle_gamma                 92.164833
_cell_volume                      1129.26210896

loop_
_atom_site_label
_atom_site_type_symbol
_atom_type_description
_atom_site_fract_x
_atom_site_fract_y
_atom_site_fract_z
_atom_type_partial_charge
C1    C     C_R   0.503973 0.262083 0.502724 0.815063
C2    C     C_R   0.163327 0.683849 0.982523 -0.123190
C3    C     C_R   0.931680 0.542636 0.387833 -0.254776
C4    C     C_R   0.870938 0.494907 0.504498 -0.083499
C5    C     C_R   0.938933 0.446132 0.618305 -0.008644
C6    C     C_R   0.066976 0.449397 0.612887 -0.235870
C7    C     C_R   0.127963 0.498007 0.495731 -0.084641
C8    C     C_R   0.058893 0.543459 0.380921 -0.006201
C9    C     C_R   0.885412 0.458259 0.866980 -0.175161
C10   C     C_R   0.836023 0.409201 0.989657 -0.124956
C11   C     C_R   0.781114 0.291344 0.990877 -0.186167
C12   C     C_R   0.262239 0.500234 0.498349 0.788623
C13   C     C_R   0.776092 0.221608 0.869587 -0.161710
C14   C     C_R   0.825820 0.269013 0.743934 0.321740
C15   C     C_R   0.880752 0.389915 0.743727 0.050785
C16   C     C_R   0.478891 0.108407 0.771527 -0.196020
C17   C     C_R   0.433304 0.041428 0.885687 0.192363
C18   C     C_R   0.383696 0.922977 0.865729 -0.175100
C19   C     C_R   0.388346 0.869256 0.735460 -0.200119
C20   C     C_R   0.447362 0.931466 0.622989 0.088287
C21   C     C_R   0.477545 0.058227 0.635230 0.054325
C22   C     C_R   0.506344 0.127192 0.510956 -0.069179
C23   C     C_R   0.491024 0.736846 0.499298 0.777271
C24   C     C_R   0.527420 0.065322 0.387337 -0.212105
C25   C     C_R   0.518295 0.938352 0.383088 -0.234705
C26   C     C_R   0.479892 0.870347 0.500161 -0.096040
C27   C     C_R   0.658950 0.667858 0.144869 -0.178875
C28   C     C_R   0.736766 0.749573 0.073052 -0.228815
C29   C     C_R   0.737733 0.748544 0.929433 -0.213453
C30   C     C_R   0.660901 0.665759 0.856853 -0.123818
C31   C     C_R   0.578180 0.582383 0.925603 0.221312
C32   C     C_R   0.577654 0.582881 0.075222 0.214740
C33   C     C_R   0.427562 0.420001 0.073473 -0.033691
C34   C     C_R   0.737317 0.497102 0.501765 0.787399
C35   C     C_R   0.427199 0.420402 0.925527 -0.075289
C36   C     C_R   0.142452 0.765234 0.090390 -0.154746
C37   C     C_R   0.117052 0.719678 0.224164 -0.154255
C38   C     C_R   0.112094 0.592209 0.250351 0.143711
C39   C     C_R   0.134149 0.511092 0.141948 -0.113667
C40   C     C_R   0.160737 0.557122 0.008783 -0.142188
Cu1   Cu    Cu3+1 0.499990 0.499990 0.640660 0.927094
Cu2   Cu    Cu3+1 0.500010 0.500010 0.359340 0.935515
H1    H     H_    0.179540 0.718669 0.878085 0.122747
H2    H     H_    0.742059 0.253856 0.086133 0.141583
H3    H     H_    0.732390 0.130764 0.875045 0.135065
H4    H     H_    0.554518 0.115504 0.293999 0.158651
H5    H     H_    0.522342 0.195616 0.797187 0.190668
H6    H     H_    0.345405 0.870796 0.952136 0.141727
H7    H     H_    0.345049 0.778716 0.724281 0.164811
H8    H     H_    0.542817 0.893397 0.287992 0.167063
H9    H     H_    0.367796 0.354697 0.128325 0.147422
H10   H     H_    0.143133 0.863449 0.069683 0.127663
H11   H     H_    0.668249 0.674577 0.254778 0.199558
H12   H     H_    0.797982 0.813104 0.129669 0.150006
H13   H     H_    0.799798 0.811158 0.873602 0.145547
H14   H     H_    0.672408 0.669837 0.747338 0.198181
H15   H     H_    0.366793 0.355698 0.869871 0.143337
H16   H     H_    0.096217 0.783136 0.305736 0.118737
H17   H     H_    0.126316 0.412404 0.159433 0.118000
H18   H     H_    0.175417 0.494335 0.924909 0.127722
H19   H     H_    0.879720 0.580501 0.300485 0.153582
H20   H     H_    0.119114 0.411001 0.699751 0.149155
H21   H     H_    0.926703 0.550556 0.867460 0.155884
H22   H     H_    0.839821 0.462972 0.083781 0.153954
N1    N     N_R   0.501190 0.501210 0.147910 -0.201148
N2    N     N_R   0.501230 0.501290 0.852040 -0.205332
O1    O     O_R   0.499990 0.319640 0.618810 -0.593758
O2    O     O_R   0.500000 0.319660 0.381240 -0.584624
O3    O     O_R   0.319640 0.500000 0.618780 -0.594624
O4    O     O_R   0.319650 0.500020 0.381210 -0.571131
O5    O     O_R   0.500000 0.680340 0.618760 -0.608744
O6    O     O_R   0.500010 0.680360 0.381190 -0.595964
O7    O     O_R   0.680350 0.499980 0.618790 -0.590428
O8    O     O_R   0.680360 0.500000 0.381220 -0.606477
N3    N     N_2   0.816897 0.198452 0.618564 -0.444226
H23   H     H_    0.858331 0.237039 0.531853 0.249690
C41   C     C_3   0.830105 0.066403 0.629992 -0.725629
H24   H     H_    0.833627 0.026783 0.524024 0.227616
H25   H     H_    0.749513 0.021673 0.682061 0.236776
H26   H     H_    0.916679 0.045343 0.688065 0.226359
N4    N     N_3   0.436596 0.096545 0.020814 -0.622452
H27   H     H_    0.529354 0.111452 0.049381 0.202716
H28   H     H_    0.398477 0.035460 0.094854 0.218969

loop_
_geom_bond_atom_site_label_1
_geom_bond_atom_site_label_2
_ccdc_geom_bond_type
C31   N2    A    
C12   O3    A    
C16   C21   A    
C40   H18   S    
Cu1   Cu2   S    
C19   C20   A    
N4    H27   S    
C33   N1    A    
C7    C8    A    
Cu1   O1    S    
C41   H24   S    
C37   C38   A    
C36   C37   A    
C5    C6    A    
Cu2   O4    S    
C1    O2    A    
C18   C19   A    
C23   C26   S    
C25   H8    S    
C1    O1    A    
C16   C17   A    
Cu2   N1    S    
C9    C10   A    
C37   H16   S    
C36   H10   S    
Cu1   O5    S    
C3    H19   S    
C1    C22   S    
C21   C22   A    
Cu2   O2    S    
C8    C38   S    
C16   H5    S    
N4    H28   S    
C41   H25   S    
C7    C12   S    
C4    C34   S    
Cu2   O8    S    
C23   O5    A    
C38   C39   A    
C24   C25   A    
C3    C8    A    
C39   C40   A    
C28   H12   S    
C29   H13   S    
C35   N2    A    
C25   C26   A    
C30   H14   S    
N3    H23   S    
C29   C30   A    
C19   H7    S    
C31   C32   A    
C2    H1    S    
C39   H17   S    
Cu2   O6    S    
C17   C18   A    
C11   H2    S    
N3    C41   S    
Cu1   N2    S    
C34   O8    A    
C22   C24   A    
C3    C4    A    
Cu1   O3    S    
C41   H26   S    
C2    C36   A    
C12   O4    A    
C28   C29   A    
C27   C32   A    
C9    H21   S    
C23   O6    A    
C10   H22   S    
C4    C5    A    
C18   H6    S    
C27   H11   S    
C6    C7    A    
C33   H9    S    
C35   H15   S    
C24   H4    S    
C14   N3    S    
C6    H20   S    
C9    C15   A    
C13   H3    S    
C11   C13   A    
C30   C31   A    
C20   C26   A    
C33   C35   A    
C17   N4    S    
C5    C15   S    
C10   C11   A    
C34   O7    A    
Cu1   O7    S    
C2    C40   A    
C20   C21   A    
C27   C28   A    
C14   C15   A    
C13   C14   A    
C32   N1    A    
