data_mof_unit_34538.cif
_audit_creation_date              2012-12-10T16:57:42-0500
_audit_creation_method            fapswitch 2.2
_symmetry_space_group_name_H-M    P1
_symmetry_Int_Tables_number       1
_space_group_crystal_system       triclinic
_cell_length_a                    7.910329
_cell_length_b                    8.563794
_cell_length_c                    19.146058
_cell_angle_alpha                 93.608999
_cell_angle_beta                  84.253608
_cell_angle_gamma                 93.568553
_cell_volume                      1285.87831059

loop_
_atom_site_label
_atom_site_type_symbol
_atom_type_description
_atom_site_fract_x
_atom_site_fract_y
_atom_site_fract_z
_atom_type_partial_charge
C1    C     C_R   0.545110 0.794130 0.498366 0.958352
C2    C     C_R   0.660596 0.562596 0.178041 -0.161770
C3    C     C_R   0.506070 0.572047 0.855544 0.089671
C4    C     C_R   0.507093 0.571193 0.147967 0.089856
C5    C     C_R   0.659525 0.566587 0.812133 -0.162578
C6    C     C_R   0.351697 0.553269 0.189658 -0.163821
C7    C     C_R   0.657392 0.540005 0.740038 -0.200451
C8    C     C_R   0.349770 0.526703 0.260363 -0.196663
C9    C     C_R   0.501914 0.519196 0.710428 -0.022929
C10   C     C_R   0.503181 0.518296 0.290428 -0.021364
C11   C     C_R   0.508366 0.589281 0.072646 0.290177
C12   C     C_R   0.454891 0.205869 0.501621 0.960059
C13   C     C_R   0.507832 0.589818 0.931759 0.290057
C14   C     C_3   0.012351 0.315321 0.445233 -0.142074
C15   C     C_3   0.928411 0.273844 0.377692 -0.877524
C16   C     C_3   0.987667 0.685123 0.554361 -0.140384
C17   C     C_3   0.072351 0.728312 0.621573 -0.882947
C18   C     C_2   0.568675 0.957766 0.497305 -0.383119
C19   C     C_2   0.431327 0.042222 0.502639 -0.384718
C20   C     C_R   0.499991 0.502574 0.634337 0.847893
C21   C     C_R   0.500652 0.501699 0.365751 0.846350
C22   C     C_R   0.348596 0.523741 0.753816 -0.193998
C23   C     C_R   0.658625 0.536201 0.248859 -0.193971
C24   C     C_R   0.350582 0.550568 0.825872 -0.159543
H1    H     H_    0.227045 0.506531 0.732291 0.150245
H2    H     H_    0.301316 0.991817 0.507821 0.175886
H3    H     H_    0.793820 0.232630 0.388342 0.290163
H4    H     H_    0.938937 0.376223 0.344431 0.251132
H5    H     H_    0.994914 0.176801 0.347504 0.217664
H6    H     H_    0.146273 0.329203 0.426857 0.231739
H7    H     H_    0.990046 0.216889 0.480764 0.162721
H8    H     H_    0.062905 0.626461 0.655013 0.249982
H9    H     H_    0.206662 0.770024 0.610711 0.291215
H10   H     H_    0.005443 0.825254 0.651657 0.218230
H11   H     H_    0.009027 0.782841 0.518415 0.163143
H12   H     H_    0.778741 0.532205 0.271074 0.150676
H13   H     H_    0.853952 0.670935 0.573126 0.230712
H14   H     H_    0.230235 0.552571 0.858221 0.152074
H15   H     H_    0.782257 0.575591 0.146968 0.151469
H16   H     H_    0.781293 0.581951 0.833716 0.147729
H17   H     H_    0.231298 0.558387 0.167727 0.147840
H18   H     H_    0.777416 0.537493 0.707576 0.155920
H19   H     H_    0.228082 0.513784 0.291439 0.155438
H20   H     H_    0.698686 0.008170 0.492113 0.175631
N1    N     N_R   0.656595 0.591482 0.961376 -0.176193
N2    N     N_R   0.359983 0.592006 0.043117 -0.176856
N3    N     N_R   0.656861 0.591213 0.030648 -0.173864
N4    N     N_R   0.359714 0.592253 0.973888 -0.174356
N5    N     N_2   0.950330 0.457950 0.481240 -0.031183
N6    N     N_2   0.049670 0.542050 0.518760 -0.030637
O1    O     O_R   0.389250 0.738570 0.504600 -0.610001
O2    O     O_R   0.610750 0.261430 0.495400 -0.609214
O3    O     O_R   0.678400 0.711620 0.492580 -0.657917
O4    O     O_R   0.321600 0.288380 0.507420 -0.656712
O5    O     O_R   0.355380 0.513500 0.607880 -0.613679
O6    O     O_R   0.644620 0.486500 0.392120 -0.615124
O7    O     O_R   0.644530 0.486550 0.595850 -0.642088
O8    O     O_R   0.355470 0.513450 0.404150 -0.642988
Zn1   Zn    Zn3+2 0.306930 0.517990 0.508030 0.928622
Zn2   Zn    Zn3+2 0.693070 0.482010 0.491970 0.928020

loop_
_geom_bond_atom_site_label_1
_geom_bond_atom_site_label_2
_ccdc_geom_bond_type
C13   N4    A    
C2    C4    A    
O5    Zn1   S    
C10   C23   A    
C21   O6    A    
C5    C7    A    
C16   H13   S    
C9    C20   S    
C24   H14   S    
C3    C13   S    
C8    H19   S    
C14   H7    S    
C11   N3    A    
C1    C18   S    
C21   O8    A    
C16   H11   S    
C4    C11   S    
C13   N1    A    
C1    O1    A    
C15   H4    S    
N5    Zn2   S    
C17   H9    S    
C14   H6    S    
C20   O5    A    
N6    Zn1   S    
C12   C19   S    
C8    C10   A    
C12   O2    A    
O3    Zn2   S    
C16   N6    S    
C15   H5    S    
N2    N4    A    
O4    Zn1   S    
N1    N3    A    
C10   C21   S    
C22   C24   A    
C9    C22   A    
C7    H18   S    
C14   N5    S    
O1    Zn1   S    
C17   H10   S    
C23   H12   S    
C18   H20   S    
C19   H2    S    
C4    C6    A    
N5    N6    D    
C5    H16   S    
C2    C23   A    
C7    C9    A    
C17   H8    S    
C1    O3    A    
C14   C15   S    
C18   C19   D    
C11   N2    A    
C6    C8    A    
O2    Zn2   S    
C3    C5    A    
C20   O7    A    
O8    Zn1   S    
C15   H3    S    
C2    H15   S    
C6    H17   S    
C12   O4    A    
O6    Zn2   S    
C3    C24   A    
C16   C17   S    
O7    Zn2   S    
C22   H1    S    
