data_mof_unit_16611.cif
_audit_creation_date              2012-12-10T18:11:06-0500
_audit_creation_method            fapswitch 2.2
_symmetry_space_group_name_H-M    P1
_symmetry_Int_Tables_number       1
_space_group_crystal_system       triclinic
_cell_length_a                    10.741569
_cell_length_b                    9.55122
_cell_length_c                    10.616548
_cell_angle_alpha                 88.941713
_cell_angle_beta                  86.527531
_cell_angle_gamma                 88.58192
_cell_volume                      1086.71574808

loop_
_atom_site_label
_atom_site_type_symbol
_atom_type_description
_atom_site_fract_x
_atom_site_fract_y
_atom_site_fract_z
_atom_type_partial_charge
C1    C     C_R   0.259866 0.500291 0.498129 0.732101
C2    C     C_3   0.502493 0.503436 0.122508 0.035771
C3    C     C_3   0.061035 0.551015 0.623498 -0.407794
C4    C     C_3   0.075200 0.344952 0.481731 -0.369484
C5    C     C_3   0.917938 0.555064 0.621600 -0.376153
C6    C     C_3   0.932109 0.344326 0.481218 -0.376468
C7    C     C_3   0.075169 0.583244 0.381750 -0.377700
C8    C     C_3   0.121249 0.497204 0.496290 0.184517
C9    C     C_3   0.877349 0.495656 0.496243 0.176177
C10   C     C_3   0.931539 0.587403 0.385056 -0.382491
C11   C     C_3   0.628266 0.080336 0.481817 -0.265057
C12   C     C_3   0.628791 0.914021 0.490977 -0.266920
C13   C     C_3   0.449645 0.082550 0.628582 0.149297
C14   C     C_3   0.438882 0.915693 0.622983 0.174571
C15   C     C_3   0.426973 0.086695 0.401267 -0.208521
C16   C     C_3   0.436425 0.921132 0.394500 -0.177235
C17   C     C_R   0.501051 0.501181 0.259669 0.779340
C18   C     C_R   0.739563 0.498435 0.497669 0.753393
C19   C     C_R   0.501336 0.499012 0.740360 0.765415
C20   C     C_3   0.484121 0.633571 0.038287 -0.142083
C21   C     C_3   0.411165 0.420442 0.049698 -0.173523
C22   C     C_3   0.392640 0.550347 0.963235 -0.189108
C23   C     C_3   0.503305 0.498010 0.877492 0.040153
C24   C     C_3   0.594922 0.581341 0.950226 -0.165426
C25   C     C_3   0.522188 0.368242 0.961885 -0.144836
C26   C     C_3   0.613430 0.451516 0.036964 -0.183041
Cu1   Cu    Cu3+1 0.499860 0.642410 0.500060 0.886246
Cu2   Cu    Cu3+1 0.499860 0.357590 0.500060 0.881243
H1    H     H_    0.302263 0.590411 0.929822 0.106686
H2    H     H_    0.897346 0.697835 0.395319 0.163673
H3    H     H_    0.899965 0.549257 0.294080 0.138733
H4    H     H_    0.690523 0.120029 0.552382 0.143979
H5    H     H_    0.681870 0.878725 0.573088 0.138020
H6    H     H_    0.669711 0.114211 0.387861 0.154103
H7    H     H_    0.680855 0.871143 0.405872 0.159057
H8    H     H_    0.522405 0.101654 0.696641 0.107728
H9    H     H_    0.495574 0.876041 0.701163 0.072481
H10   H     H_    0.461801 0.129595 0.308154 0.153828
H11   H     H_    0.489025 0.892829 0.304597 0.128708
H12   H     H_    0.468549 0.742242 0.072191 0.116652
H13   H     H_    0.335880 0.355177 0.094146 0.116209
H14   H     H_    0.670255 0.646831 0.906215 0.113839
H15   H     H_    0.540020 0.259821 0.928360 0.135146
H16   H     H_    0.703790 0.411496 0.070410 0.110872
H17   H     H_    0.089428 0.480118 0.701686 0.145023
H18   H     H_    0.104457 0.277294 0.561227 0.156189
H19   H     H_    0.877234 0.492859 0.703051 0.143567
H20   H     H_    0.894870 0.275606 0.559850 0.160238
H21   H     H_    0.882836 0.665085 0.632788 0.160198
H22   H     H_    0.904407 0.299573 0.391238 0.153180
H23   H     H_    0.109654 0.691146 0.377117 0.150248
H24   H     H_    0.112412 0.533599 0.292702 0.144444
N1    N     N_3   0.500250 0.143650 0.502780 -0.146674
N2    N     N_3   0.500250 0.856350 0.502780 -0.133308
O1    O     O_R   0.317570 0.620260 0.500070 -0.587973
O2    O     O_R   0.317570 0.379740 0.500070 -0.616801
O3    O     O_R   0.499850 0.620240 0.316900 -0.591669
O4    O     O_R   0.499850 0.379760 0.316900 -0.589046
O5    O     O_R   0.682190 0.620260 0.500030 -0.595658
O6    O     O_R   0.682190 0.379740 0.500030 -0.594077
O7    O     O_R   0.499910 0.620280 0.683200 -0.607455
O8    O     O_R   0.499910 0.379720 0.683200 -0.595023
H25   H     H_    0.328799 0.124358 0.412744 0.136934
H26   H     H_    0.344157 0.875431 0.385138 0.161013
C27   C     C_3   0.330661 0.157482 0.694925 -0.306517
C28   C     C_3   0.315624 0.131270 0.838619 -0.989546
H27   H     H_    0.389664 0.060040 0.873650 0.240562
H28   H     H_    0.317570 0.231458 0.889042 0.257682
H29   H     H_    0.223118 0.086251 0.865035 0.247924
H30   H     H_    0.326139 0.269896 0.684768 0.254407
H31   H     H_    0.243672 0.133489 0.653873 0.190985
C29   C     C_3   0.306272 0.857306 0.663721 -0.275545
C30   C     C_3   0.194638 0.896438 0.584092 -0.903048
H32   H     H_    0.206077 0.988935 0.522359 0.223849
H33   H     H_    0.176736 0.813197 0.519655 0.256152
H34   H     H_    0.109006 0.912613 0.646694 0.223714
H35   H     H_    0.309468 0.743713 0.680208 0.219790
H36   H     H_    0.281023 0.888928 0.761318 0.168324
H37   H     H_    0.093215 0.655383 0.646506 0.172136
H38   H     H_    0.116692 0.298555 0.392855 0.153683

loop_
_geom_bond_atom_site_label_1
_geom_bond_atom_site_label_2
_ccdc_geom_bond_type
C7    C10   S    
C28   H28   S    
C22   H1    S    
C1    C8    S    
C24   H14   S    
C30   H32   S    
C4    C8    S    
C3    H37   S    
C25   H15   S    
C6    C9    S    
Cu2   O2    S    
Cu1   N2    S    
C26   H16   S    
C7    C8    S    
C13   C27   S    
C5    H19   S    
C6    H20   S    
C15   N1    S    
C1    O2    A    
C24   C26   S    
C7    H24   S    
C4    H38   S    
C20   H12   S    
Cu1   O1    S    
C28   H29   S    
C19   O8    A    
C15   C16   S    
C29   H36   S    
Cu1   O7    S    
C10   H3    S    
C20   C24   S    
C23   C24   S    
C9    C10   S    
C11   N1    S    
C17   O4    A    
C28   H27   S    
C13   C14   S    
C2    C17   S    
C30   H33   S    
C5    H21   S    
C13   N1    S    
Cu2   O6    S    
C2    C20   S    
C13   H8    S    
C4    C6    S    
C3    C8    S    
Cu1   O3    S    
C4    H18   S    
C25   C26   S    
C27   H31   S    
C3    H17   S    
C19   C23   S    
C15   H10   S    
C5    C9    S    
C29   H35   S    
C10   H2    S    
C11   C12   S    
C2    C21   S    
C2    C26   S    
C6    H22   S    
C12   H7    S    
C18   O5    A    
C21   H13   S    
C18   O6    A    
C14   N2    S    
C20   C22   S    
C11   H4    S    
C30   H34   S    
C21   C25   S    
C14   C29   S    
C11   H6    S    
C29   C30   S    
C3    C5    S    
Cu2   N1    S    
Cu2   O4    S    
C1    O1    A    
C7    H23   S    
Cu1   O5    S    
C14   H9    S    
C19   O7    A    
C23   C25   S    
C16   N2    S    
C16   H11   S    
C9    C18   S    
C27   C28   S    
Cu1   Cu2   S    
C15   H25   S    
C22   C23   S    
C16   H26   S    
C12   H5    S    
C21   C22   S    
C12   N2    S    
C27   H30   S    
C17   O3    A    
Cu2   O8    S    
