data_mof_unit_59910.cif
_audit_creation_date              2012-12-10T17:29:17-0500
_audit_creation_method            fapswitch 2.2
_symmetry_space_group_name_H-M    P1
_symmetry_Int_Tables_number       1
_space_group_crystal_system       triclinic
_cell_length_a                    12.002405
_cell_length_b                    12.89845
_cell_length_c                    13.133308
_cell_angle_alpha                 87.36404
_cell_angle_beta                  113.439499
_cell_angle_gamma                 93.494031
_cell_volume                      1861.42823809

loop_
_atom_site_label
_atom_site_type_symbol
_atom_type_description
_atom_site_fract_x
_atom_site_fract_y
_atom_site_fract_z
_atom_type_partial_charge
C1    C     C_R   0.477471 0.299474 0.498923 0.895921
C2    C     C_R   0.556182 0.480708 0.988421 0.087595
C3    C     C_R   0.529581 0.450715 0.879284 0.092053
C4    C     C_R   0.462648 0.469136 0.028188 0.082320
C5    C     C_R   0.352171 0.412986 0.966853 0.180846
C6    C     C_R   0.335322 0.370476 0.865955 -0.252715
C7    C     C_R   0.423021 0.389048 0.822539 -0.206294
C8    C     C_R   0.475468 0.513509 0.126844 -0.252178
C9    C     C_R   0.281754 0.435420 0.113112 -0.200123
C10   C     C_R   0.609616 0.484774 0.828950 -0.119320
C11   C     C_R   0.534655 0.811952 0.499756 -0.063329
C12   C     C_R   0.566166 0.491470 0.708500 0.863497
C13   C     C_R   0.462753 0.188259 0.496529 -0.106257
C14   C     C_R   0.333894 0.031401 0.460608 0.199218
C15   C     C_R   0.347868 0.138964 0.468579 -0.212139
C16   C     C_R   0.565292 0.131623 0.518946 -0.281745
C17   C     C_R   0.554138 0.025441 0.511219 0.145221
C18   C     C_R   0.438141 0.974265 0.481620 0.158387
C19   C     C_R   0.430168 0.867283 0.474972 -0.270098
C20   C     C_R   0.648448 0.862997 0.527156 -0.204996
C21   C     C_R   0.658139 0.970054 0.532713 -0.200950
C22   C     C_R   0.010410 0.603514 0.401574 -0.337736
C23   C     C_R   0.522138 0.700559 0.500353 0.889993
C24   C     C_R   0.130315 0.593286 0.411009 0.019213
C25   C     C_R   0.156937 0.454205 0.541503 -0.037903
C26   C     C_R   0.036962 0.462016 0.535253 0.095843
C27   C     C_R   0.962712 0.537709 0.464176 0.091222
C28   C     C_R   0.842586 0.545303 0.457717 -0.051162
C29   C     C_R   0.869805 0.406882 0.589137 0.019133
C30   C     C_R   0.989420 0.396315 0.598034 -0.330355
C31   C     C_R   0.433282 0.503624 0.291487 0.875040
C32   C     C_R   0.261294 0.398498 0.008768 -0.198678
C33   C     C_R   0.391066 0.490295 0.173061 -0.057353
C34   C     C_R   0.726066 0.526371 0.893377 -0.193525
C35   C     C_R   0.759765 0.540987 0.005948 -0.147302
C36   C     C_R   0.675087 0.521064 0.053057 -0.187581
H1    H     H_    0.215842 0.416421 0.149138 0.155620
H2    H     H_    0.729602 0.820325 0.546092 0.160712
H3    H     H_    0.746772 0.009423 0.554948 0.137491
H4    H     H_    0.269065 0.184417 0.451429 0.164166
H5    H     H_    0.784420 0.603022 0.403069 0.119743
H6    H     H_    0.833994 0.355941 0.637796 0.124245
H7    H     H_    0.955643 0.662520 0.345898 0.142476
H8    H     H_    0.044119 0.337207 0.653544 0.135524
H9    H     H_    0.253592 0.324267 0.819748 0.136816
H10   H     H_    0.214398 0.395741 0.595175 0.117911
H11   H     H_    0.177163 0.354947 0.963161 0.135321
H12   H     H_    0.553747 0.563027 0.172645 0.139585
H13   H     H_    0.789490 0.550834 0.856005 0.157759
H14   H     H_    0.706058 0.535453 0.140533 0.131336
H15   H     H_    0.850061 0.572199 0.055894 0.141474
H16   H     H_    0.342662 0.826154 0.451835 0.174787
N1    N     N_R   0.798200 0.480260 0.519790 -0.095705
N2    N     N_R   0.201820 0.519740 0.480210 -0.096889
O1    O     O_R   0.579910 0.341070 0.505280 -0.621543
O2    O     O_R   0.388440 0.353740 0.492580 -0.635609
O3    O     O_R   0.643280 0.490550 0.663120 -0.618895
O4    O     O_R   0.451810 0.503220 0.650420 -0.605743
O5    O     O_R   0.611560 0.646260 0.507420 -0.625457
O6    O     O_R   0.420090 0.658930 0.494720 -0.623134
O7    O     O_R   0.548190 0.496780 0.349580 -0.611952
O8    O     O_R   0.356720 0.509450 0.336880 -0.622172
Zn1   Zn    Zn3+2 0.627850 0.491540 0.508480 0.939873
Zn2   Zn    Zn3+2 0.372150 0.508460 0.491520 0.938842
C37   C     C_3   0.208466 0.980424 0.429698 -0.957573
H17   H     H_    0.138856 0.038204 0.416863 0.244688
H18   H     H_    0.181819 0.937914 0.351249 0.240790
H19   H     H_    0.207704 0.925530 0.497101 0.246706
H20   H     H_    0.654560 0.170168 0.541867 0.164405
H21   H     H_    0.166314 0.644480 0.362685 0.125443
H22   H     H_    0.407496 0.353573 0.744712 0.155196

loop_
_geom_bond_atom_site_label_1
_geom_bond_atom_site_label_2
_ccdc_geom_bond_type
C2    C4    A    
C28   N1    A    
C8    H12   S    
O3    Zn1   S    
C29   C30   A    
C6    H9    S    
C29   H6    S    
C20   H2    S    
C14   C18   A    
O5    Zn1   S    
C22   H7    S    
C21   H3    S    
O6    Zn2   S    
C4    C8    A    
C37   H19   S    
C12   O4    A    
C5    C32   A    
O2    Zn2   S    
C2    C3    A    
C1    O1    A    
C24   H21   S    
C10   C34   A    
C3    C10   A    
C7    H22   S    
C35   H15   S    
N1    Zn1   S    
C31   O8    A    
C11   C19   A    
C26   C27   A    
C6    C7    A    
C10   C12   S    
C9    C33   A    
C5    C6    A    
C19   H16   S    
C11   C23   S    
C25   C26   A    
C14   C37   S    
C26   C30   A    
C3    C7    A    
C8    C33   A    
C13   C15   A    
O4    Zn2   S    
C23   O6    A    
C11   C20   A    
C32   H11   S    
C22   C24   A    
C15   H4    S    
C9    C32   A    
C1    C13   S    
C37   H17   S    
C12   O3    A    
C24   N2    A    
C16   C17   A    
C28   H5    S    
C22   C27   A    
C36   H14   S    
C25   N2    A    
N2    Zn2   S    
C17   C18   A    
C34   C35   A    
C13   C16   A    
C2    C36   A    
C27   C28   A    
O7    Zn1   S    
C31   O7    A    
C14   C15   A    
C18   C19   A    
C31   C33   S    
O8    Zn2   S    
C30   H8    S    
C23   O5    A    
C37   H18   S    
C20   C21   A    
C25   H10   S    
C1    O2    A    
C17   C21   A    
C16   H20   S    
C35   C36   A    
C29   N1    A    
C4    C5    A    
C34   H13   S    
C9    H1    S    
O1    Zn1   S    
