data_mof_unit_22414.cif
_audit_creation_date              2012-12-11T14:58:28-0500
_audit_creation_method            fapswitch 2.2
_symmetry_space_group_name_H-M    P1
_symmetry_Int_Tables_number       1
_space_group_crystal_system       triclinic
_cell_length_a                    10.979593
_cell_length_b                    10.972887
_cell_length_c                    18.810932
_cell_angle_alpha                 90.512998
_cell_angle_beta                  91.098758
_cell_angle_gamma                 59.700584
_cell_volume                      1956.3648057

loop_
_atom_site_label
_atom_site_type_symbol
_atom_type_description
_atom_site_fract_x
_atom_site_fract_y
_atom_site_fract_z
_atom_type_partial_charge
C1    C     C_R   0.359506 0.769239 0.396553 0.530971
C2    C     C_R   0.251034 0.445050 0.198294 -0.168753
C3    C     C_R   0.263614 0.465173 0.270570 -0.035312
C4    C     C_R   0.417923 0.381140 0.383172 0.561629
C5    C     C_R   0.903412 0.815520 0.364718 -0.150525
C6    C     C_R   0.945623 0.679036 0.391171 0.326454
C7    C     C_R   0.056866 0.560444 0.357699 0.382541
C8    C     C_R   0.135134 0.581073 0.303948 0.018724
C9    C     C_R   0.394951 0.376808 0.306206 -0.011115
C10   C     C_R   0.860479 0.231198 0.296091 -0.188544
C11   C     C_R   0.882545 0.219498 0.223613 -0.164240
C12   C     C_R   0.617944 0.147493 0.156314 0.028149
C13   C     C_R   0.856713 0.338440 0.183528 -0.015740
C14   C     C_R   0.804279 0.470550 0.217017 -0.016160
C15   C     C_R   0.783991 0.479821 0.289146 -0.105142
C16   C     C_R   0.772547 0.381791 0.401941 0.561713
C17   C     C_R   0.812561 0.360910 0.328753 -0.002975
C18   C     C_R   0.428528 0.694745 0.274012 -0.128118
C19   C     C_R   0.421076 0.723924 0.201778 -0.142635
C20   C     C_R   0.344316 0.863772 0.179031 0.087056
C21   C     C_R   0.275710 0.974095 0.228215 -0.091395
C22   C     C_R   0.281288 0.944235 0.300153 -0.166849
C23   C     C_R   0.362341 0.337186 0.161088 0.001841
C24   C     C_R   0.356953 0.804971 0.322812 0.033888
C25   C     C_R   0.459741 0.250073 0.714352 -0.134319
C26   C     C_R   0.445447 0.252825 0.786416 -0.143078
C27   C     C_R   0.313429 0.337822 0.816922 -0.013627
C28   C     C_R   0.345112 0.767966 0.604966 0.545197
C29   C     C_R   0.198138 0.437954 0.774427 0.006147
C30   C     C_R   0.215214 0.435335 0.700783 -0.096120
C31   C     C_R   0.344505 0.339018 0.670743 0.001393
C32   C     C_R   0.740285 0.476089 0.732050 -0.084823
C33   C     C_R   0.751010 0.462884 0.804963 -0.104721
C34   C     C_R   0.511298 0.281521 0.266468 -0.172205
C35   C     C_R   0.812408 0.329125 0.835971 0.020228
C36   C     C_R   0.845806 0.210517 0.793382 -0.137612
C37   C     C_R   0.830055 0.224833 0.719644 -0.144607
C38   C     C_R   0.783378 0.357106 0.688637 0.032379
C39   C     C_R   0.205599 0.822786 0.713563 -0.127841
C40   C     C_R   0.373116 0.351891 0.597342 0.567781
C41   C     C_R   0.197667 0.834220 0.786650 -0.139601
C42   C     C_R   0.303074 0.842210 0.825504 0.027000
C43   C     C_R   0.418833 0.834449 0.790367 -0.132042
C44   C     C_R   0.426434 0.823571 0.717071 -0.141657
C45   C     C_R   0.495434 0.256989 0.195166 -0.003646
C46   C     C_R   0.321084 0.815457 0.678297 0.031100
C47   C     C_R   0.911721 0.315625 0.112065 0.519972
C48   C     C_R   0.329276 0.294533 0.092474 0.545314
C49   C     C_R   0.308917 0.898240 0.104966 0.535206
C50   C     C_R   0.878388 0.310686 0.905909 0.537135
C51   C     C_R   0.296317 0.292602 0.886795 0.537286
C52   C     C_R   0.756667 0.380446 0.612486 0.558779
C53   C     C_R   0.275608 0.893743 0.898057 0.543582
C54   C     C_R   0.790700 0.964972 0.049521 -0.165575
C55   C     C_R   0.755854 0.105297 0.050329 -0.098970
C56   C     C_R   0.086568 0.717247 0.277706 -0.110713
C57   C     C_R   0.672984 0.195425 0.103980 -0.131934
C58   C     C_3   0.770352 0.772761 0.478863 -0.075327
C59   C     C_3   0.125069 0.324681 0.336659 -0.102055
C60   C     C_2   0.775301 0.600068 0.179940 0.240974
C61   C     C_2   0.062743 0.548510 0.804728 0.232028
C62   C     C_3   0.589971 0.965290 0.266371 -0.075064
C63   C     C_R   0.970374 0.832342 0.306811 -0.133361
C64   C     C_R   0.650020 0.004472 0.154899 0.353170
C65   C     C_R   0.736415 0.915724 0.100728 -0.034794
Cr1   Cr    Cr6+3 0.601770 0.606860 0.505860 1.012226
Cr2   Cr    Cr6+3 0.291380 0.601660 0.495070 1.058017
Cr3   Cr    Cr6+3 0.606880 0.291510 0.499120 0.995330
Cr4   Cr    Cr6+3 0.062440 0.063090 0.008210 0.989454
Cr5   Cr    Cr6+3 0.062880 0.375170 0.998920 1.007080
Cr6   Cr    Cr6+3 0.374700 0.061720 0.992470 1.030037
H1    H     H_    0.613757 0.220498 0.292093 0.124637
H2    H     H_    0.225273 0.027758 0.337991 0.092425
H3    H     H_    0.563550 0.180132 0.693283 0.145359
H4    H     H_    0.537261 0.180404 0.817908 0.140134
H5    H     H_    0.129669 0.511049 0.667000 0.174807
H6    H     H_    0.698816 0.580292 0.709692 0.151650
H7    H     H_    0.722796 0.556077 0.836722 0.138707
H8    H     H_    0.893453 0.105911 0.816376 0.132488
H9    H     H_    0.858461 0.132765 0.686996 0.121465
H10   H     H_    0.122956 0.815244 0.685080 0.144589
H11   H     H_    0.933204 0.935187 0.284301 0.106968
H12   H     H_    0.818446 0.910383 0.387628 0.084610
H13   H     H_    0.106266 0.842390 0.812236 0.129830
H14   H     H_    0.500945 0.842395 0.819172 0.136545
H15   H     H_    0.516178 0.818049 0.691004 0.126920
H16   H     H_    0.853223 0.896315 0.006833 0.100571
H17   H     H_    0.787136 0.146327 0.007375 0.162601
H18   H     H_    0.641462 0.306138 0.101211 0.100836
H19   H     H_    0.139901 0.734699 0.234492 0.134904
H20   H     H_    0.149093 0.508820 0.172242 0.164912
H21   H     H_    0.802379 0.846683 0.501343 0.086775
H22   H     H_    0.729557 0.739116 0.523508 0.170375
H23   H     H_    0.881403 0.140422 0.327274 0.123006
H24   H     H_    0.683181 0.825168 0.438850 0.098811
H25   H     H_    0.084140 0.258752 0.357418 0.138607
H26   H     H_    0.240210 0.253944 0.330762 0.128756
H27   H     H_    0.074113 0.366439 0.283851 0.119974
H28   H     H_    0.722239 0.626025 0.128395 0.113460
H29   H     H_    0.057485 0.582160 0.859448 0.125936
H30   H     H_    0.489962 0.049078 0.289271 0.127404
H31   H     H_    0.677321 0.983371 0.282299 0.097514
H32   H     H_    0.612044 0.863968 0.290279 0.167928
H33   H     H_    0.925527 0.116033 0.199672 0.153082
H34   H     H_    0.742176 0.582548 0.314047 0.175839
H35   H     H_    0.485618 0.586028 0.291796 0.105172
H36   H     H_    0.470077 0.638226 0.163896 0.087212
H37   H     H_    0.212919 0.082621 0.210386 0.115777
H38   H     H_    0.753388 0.810789 0.094320 0.143225
O1    O     O_R   0.748800 0.497470 0.428000 -0.469156
O2    O     O_R   0.417600 0.174890 0.067840 -0.492835
O3    O     O_R   0.375320 0.946260 0.070860 -0.477593
O4    O     O_R   0.476420 0.724060 0.429470 -0.524398
O5    O     O_R   0.160600 0.919630 0.926660 -0.529615
O6    O     O_R   0.933060 0.190520 0.936020 -0.528812
O7    O     O_R   0.908880 0.403460 0.925020 -0.514394
O8    O     O_R   0.179600 0.361450 0.918490 -0.517151
O9    O     O_R   0.391510 0.170860 0.907530 -0.521059
O10   O     O_R   0.351130 0.942530 0.922260 -0.508694
O11   O     O_3   0.166667 0.166667 0.999870 -0.241277
O12   O     O_R   0.300070 0.471040 0.567100 -0.484671
O13   O     O_R   0.264580 0.744340 0.416750 -0.518282
O14   O     O_R   0.309380 0.472470 0.418200 -0.456459
O15   O     O_R   0.501710 0.260430 0.414300 -0.528630
O16   O     O_R   0.728090 0.305600 0.428960 -0.529956
O17   O     O_R   0.738760 0.495930 0.588610 -0.509542
O18   O     O_R   0.467110 0.722640 0.578360 -0.521409
O19   O     O_R   0.254530 0.742800 0.577360 -0.523931
O20   O     O_3   0.886944 0.652047 0.450082 -0.521641
O21   O     O_3   0.098485 0.429464 0.387824 -0.511049
O22   O     O_2   0.814164 0.676744 0.206644 -0.543664
O23   O     O_R   0.491670 0.258900 0.574910 -0.525863
O24   O     O_2   0.955474 0.607161 0.767958 -0.545035
O25   O     O_3   0.572290 0.959143 0.192198 -0.543418
O26   O     O_R   0.718780 0.304180 0.577850 -0.507988
O27   O     O_3   0.500010 0.500010 0.500020 -0.283856
O28   O     O_R   0.186690 0.923650 0.086970 -0.527295
O29   O     O_R   0.957250 0.194250 0.084630 -0.513378
O30   O     O_R   0.934970 0.407490 0.085330 -0.528098
O31   O     O_R   0.203780 0.365190 0.067090 -0.513249

loop_
_geom_bond_atom_site_label_1
_geom_bond_atom_site_label_2
_ccdc_geom_bond_type
C25   C31   A    
C59   O21   S    
Cr5   O31   S    
C23   C45   A    
Cr1   O4    S    
C49   O28   A    
C27   C29   A    
C41   C42   A    
C35   C36   A    
C43   C44   A    
C60   H28   S    
Cr3   O15   S    
C61   O24   D    
C7    C8    A    
C39   C41   A    
C54   C65   A    
Cr1   O18   S    
C40   O12   A    
C5    C63   A    
C26   C27   A    
C37   C38   A    
C57   H18   S    
Cr6   O11   S    
C18   C24   A    
C36   C37   A    
C58   H22   S    
C50   O6    A    
C42   C53   S    
C54   H16   S    
C5    H12   S    
C33   H7    S    
C38   C52   S    
C10   H23   S    
Cr5   O8    S    
C51   O9    A    
C31   C40   S    
C4    O15   A    
C25   H3    S    
C55   H17   S    
Cr3   O23   S    
C1    O13   A    
C7    O21   S    
C51   O8    A    
C32   H6    S    
C19   C20   A    
C44   C46   A    
C16   C17   S    
Cr6   O2    S    
C11   H33   S    
C32   C38   A    
C29   C30   A    
C16   O16   A    
C28   O18   A    
C62   H30   S    
C56   H19   S    
C40   O23   A    
Cr5   O30   S    
C13   C14   A    
C8    C56   A    
C1    O4    A    
C6    O20   S    
C44   H15   S    
Cr2   O12   S    
C60   O22   D    
C27   C51   S    
C64   O25   S    
Cr4   O28   S    
C37   H9    S    
C29   C61   S    
Cr4   O5    S    
C48   O31   A    
C63   H11   S    
C16   O1    A    
C43   H14   S    
Cr3   O27   S    
C39   H10   S    
C3    C8    S    
Cr5   O11   S    
C13   C47   S    
C52   O17   A    
C18   C19   A    
Cr5   O7    S    
C25   C26   A    
C41   H13   S    
Cr1   O17   S    
C4    O14   A    
C58   H24   S    
C18   H35   S    
C20   C49   S    
C3    C9    A    
C30   H5    S    
C30   C31   A    
C28   C46   S    
Cr6   O3    S    
C35   C50   S    
C26   H4    S    
C56   C63   A    
C34   C45   A    
Cr1   O1    S    
C65   H38   S    
C49   O3    A    
Cr1   O27   S    
C12   C57   A    
C39   C46   A    
C9    C34   A    
C59   H26   S    
C22   C24   A    
C61   H29   S    
C42   C43   A    
Cr2   O13   S    
C34   H1    S    
C53   O5    A    
C62   H32   S    
Cr4   O29   S    
C15   C17   A    
C54   C55   A    
Cr4   O6    S    
C23   C48   S    
Cr6   O9    S    
C58   O20   S    
Cr3   O26   S    
C52   O26   A    
C12   C45   S    
C36   H8    S    
Cr2   O14   S    
C53   O10   A    
C6    C7    A    
C14   C60   S    
Cr4   O11   S    
Cr6   O10   S    
C64   C65   A    
C15   H34   S    
C55   C57   A    
Cr2   O27   S    
Cr2   O19   S    
C32   C33   A    
C11   C13   A    
C62   O25   S    
C5    C6    A    
C12   C64   A    
C47   O29   A    
C33   C35   A    
C2    C3    A    
C50   O7    A    
C2    H20   S    
C21   H37   S    
C10   C11   A    
C48   O2    A    
C20   C21   A    
C1    C24   S    
C59   H25   S    
C47   O30   A    
C2    C23   A    
C59   H27   S    
C14   C15   A    
C10   C17   A    
C22   H2    S    
C4    C9    S    
C21   C22   A    
C58   H21   S    
Cr3   O16   S    
C28   O19   A    
C62   H31   S    
C19   H36   S    
