data_mof_unit_16277.cif
_audit_creation_date              2012-12-11T17:01:15-0500
_audit_creation_method            fapswitch 2.2
_symmetry_space_group_name_H-M    P1
_symmetry_Int_Tables_number       1
_space_group_crystal_system       monoclinic
_cell_length_a                    19.428093
_cell_length_b                    7.143384
_cell_length_c                    17.556246
_cell_angle_alpha                 90.0
_cell_angle_beta                  108.478189
_cell_angle_gamma                 90.0
_cell_volume                      2310.88159511

loop_
_atom_site_label
_atom_site_type_symbol
_atom_type_description
_atom_site_fract_x
_atom_site_fract_y
_atom_site_fract_z
_atom_type_partial_charge
O1    O     O_R   0.413720 0.494330 0.415730 -0.533053
O2    O     O_R   0.586280 0.994330 0.584270 -0.533053
O3    O     O_R   0.560210 0.819300 0.430070 -0.546546
O4    O     O_R   0.439790 0.319300 0.569930 -0.546546
C1    C     C_R   0.581217 0.654967 0.414325 0.722729
C2    C     C_R   0.418783 0.154967 0.585675 0.722730
O5    O     O_R   0.412670 0.823730 0.406310 -0.551178
O6    O     O_R   0.587330 0.323730 0.593690 -0.551178
O7    O     O_R   0.437690 0.998790 0.560340 -0.536735
O8    O     O_R   0.562310 0.498790 0.439660 -0.536735
C3    C     C_R   0.386231 0.655218 0.382423 0.698384
C4    C     C_R   0.613769 0.155218 0.617577 0.698383
O9    O     O_3   0.508380 0.662350 0.550560 -0.384204
O10   O     O_3   0.491620 0.162350 0.449440 -0.384203
V1    V     V_3+5 0.498450 0.935370 0.490620 1.376505
V2    V     V_3+5 0.501550 0.435370 0.509380 1.376504
C5    C     C_R   0.722512 0.980284 0.704102 0.086883
C6    C     C_R   0.277487 0.480284 0.295897 0.086884
C7    C     C_R   0.682887 0.146337 0.685580 -0.106150
C8    C     C_R   0.317113 0.646337 0.314420 -0.106150
C9    C     C_R   0.711052 0.301510 0.734561 -0.185329
C10   C     C_R   0.288948 0.801510 0.265439 -0.185330
H1    H     H_    0.679193 0.426305 0.727767 0.133012
H2    H     H_    0.320807 0.926305 0.272233 0.133012
C11   C     C_R   0.777219 0.290467 0.797771 -0.190867
C12   C     C_R   0.222781 0.790467 0.202229 -0.190867
H3    H     H_    0.794265 0.409085 0.837395 0.140361
H4    H     H_    0.205735 0.909085 0.162606 0.140361
C13   C     C_R   0.817935 0.123307 0.813899 -0.107812
C14   C     C_R   0.182065 0.623307 0.186101 -0.107812
C15   C     C_R   0.790195 0.969797 0.763908 0.100876
C16   C     C_R   0.209805 0.469797 0.236092 0.100876
C17   C     C_3   0.774614 0.779190 0.788883 -0.455024
C18   C     C_3   0.225385 0.279190 0.211118 -0.455024
C19   C     C_3   0.698622 0.798389 0.729278 -0.174939
C20   C     C_3   0.301378 0.298389 0.270722 -0.174940
H5    H     H_    0.777492 0.770308 0.853082 0.166070
H6    H     H_    0.222507 0.270307 0.146919 0.166070
H7    H     H_    0.808146 0.673782 0.770284 0.175058
H8    H     H_    0.191853 0.173783 0.229717 0.175058
H9    H     H_    0.686381 0.698690 0.678241 0.129282
H10   H     H_    0.313618 0.198690 0.321759 0.129282
C21   C     C_R   0.325455 0.987473 0.631606 -0.212763
C22   C     C_R   0.674545 0.487473 0.368395 -0.212763
C23   C     C_R   0.370173 0.144509 0.635919 -0.060848
C24   C     C_R   0.629828 0.644509 0.364081 -0.060849
C25   C     C_R   0.367789 0.292041 0.687507 -0.220254
C26   C     C_R   0.632211 0.792042 0.312494 -0.220254
C27   C     C_R   0.321589 0.284931 0.734509 0.122525
C28   C     C_R   0.678412 0.784932 0.265492 0.122526
C29   C     C_R   0.275762 0.128330 0.729168 0.074397
C30   C     C_R   0.724238 0.628330 0.270832 0.074398
C31   C     C_R   0.277566 0.976273 0.677638 0.002319
C32   C     C_R   0.722434 0.476273 0.322362 0.002319
C33   C     C_R   0.319809 0.433927 0.785995 -0.190851
C34   C     C_R   0.680192 0.933927 0.214006 -0.190849
C35   C     C_R   0.271839 0.431110 0.830728 -0.186065
C36   C     C_R   0.728162 0.931110 0.169273 -0.186064
C37   C     C_R   0.225213 0.278472 0.825342 0.110724
C38   C     C_R   0.774787 0.778473 0.174658 0.110724
C39   C     C_R   0.227543 0.125849 0.774884 0.067123
C40   C     C_R   0.772458 0.625849 0.225116 0.067123
C41   C     C_R   0.181383 0.971583 0.769963 0.044039
C42   C     C_R   0.818617 0.471583 0.230037 0.044039
C43   C     C_R   0.183071 0.821623 0.719309 -0.157234
C44   C     C_R   0.816930 0.321623 0.280691 -0.157233
C45   C     C_R   0.230282 0.820928 0.672752 -0.030918
C46   C     C_R   0.769719 0.320928 0.327248 -0.030918
C47   C     C_R   0.176504 0.275711 0.869824 -0.215813
C48   C     C_R   0.823496 0.775711 0.130176 -0.215813
C49   C     C_R   0.130807 0.120788 0.865828 -0.076757
C50   C     C_R   0.869193 0.620788 0.134172 -0.076757
C51   C     C_R   0.133886 0.969114 0.815823 -0.199438
C52   C     C_R   0.866114 0.469114 0.184178 -0.199438
H11   H     H_    0.327463 0.878141 0.590089 0.112160
H12   H     H_    0.672537 0.378140 0.409911 0.112160
H13   H     H_    0.401912 0.413005 0.690771 0.109797
H14   H     H_    0.598089 0.913006 0.309230 0.109797
H15   H     H_    0.354778 0.554489 0.790673 0.113546
H16   H     H_    0.645223 0.054490 0.209328 0.113545
H17   H     H_    0.270924 0.549055 0.869224 0.122225
H18   H     H_    0.729077 0.049055 0.130777 0.122224
H19   H     H_    0.175174 0.392719 0.908678 0.121218
H20   H     H_    0.824826 0.892719 0.091322 0.121218
H21   H     H_    0.098711 0.849217 0.811932 0.133412
H22   H     H_    0.901289 0.349218 0.188068 0.133412
H23   H     H_    0.147426 0.703226 0.716589 0.172483
H24   H     H_    0.852574 0.203227 0.283412 0.172483
O11   O     O_R   0.937800 0.775460 0.060470 -0.536847
O12   O     O_R   0.062200 0.275460 0.939530 -0.536847
O13   O     O_R   0.087350 0.441340 0.093710 -0.538749
O14   O     O_R   0.912650 0.941340 0.906290 -0.538749
C53   C     C_R   0.114605 0.610294 0.116329 0.691815
C54   C     C_R   0.885395 0.110294 0.883671 0.691815
O15   O     O_R   0.939820 0.446010 0.069950 -0.544258
O16   O     O_R   0.060180 0.946010 0.930050 -0.544258
O17   O     O_R   0.913690 0.271230 0.915700 -0.538887
O18   O     O_R   0.086310 0.771230 0.084300 -0.538887
C55   C     C_R   0.918694 0.614170 0.084851 0.702022
C56   C     C_R   0.081306 0.114170 0.915149 0.702022
O19   O     O_3   0.991670 0.603050 0.949510 -0.373335
O20   O     O_3   0.008330 0.103050 0.050490 -0.373335
V3    V     V_3+5 0.001550 0.329940 0.009370 1.401739
V4    V     V_3+5 0.998450 0.829940 0.990630 1.401739
C57   C     C_2   0.228703 0.655215 0.620573 0.407558
H25   H     H_    0.271969 0.627063 0.595795 0.029175
O21   O     O_2   0.178583 0.543448 0.605511 -0.514642
C58   C     C_2   0.771298 0.155216 0.379428 0.407558
H26   H     H_    0.728033 0.127066 0.404208 0.029176
O22   O     O_2   0.821417 0.043447 0.394488 -0.514643
C59   C     C_R   0.639160 0.818825 0.768711 0.129794
C60   C     C_R   0.645357 0.947039 0.831881 -0.125270
C61   C     C_R   0.588095 0.973028 0.862885 -0.139098
C62   C     C_R   0.524010 0.871448 0.831781 -0.099441
C63   C     C_R   0.517766 0.741202 0.770780 -0.119038
C64   C     C_R   0.575242 0.712996 0.740172 -0.116962
H27   H     H_    0.694011 0.029016 0.856832 0.122903
H28   H     H_    0.593271 0.073119 0.910671 0.113625
H29   H     H_    0.479307 0.892953 0.855144 0.109979
H30   H     H_    0.468118 0.662990 0.747060 0.095330
H31   H     H_    0.569635 0.609113 0.694038 0.130235
C65   C     C_R   0.360839 0.318823 0.231289 0.129795
C66   C     C_R   0.354642 0.447037 0.168118 -0.125270
C67   C     C_R   0.411903 0.473021 0.137113 -0.139097
C68   C     C_R   0.475987 0.371439 0.168215 -0.099439
C69   C     C_R   0.482231 0.241195 0.229217 -0.119039
C70   C     C_R   0.424757 0.212993 0.259827 -0.116963
H32   H     H_    0.305988 0.529015 0.143168 0.122903
H33   H     H_    0.406727 0.573112 0.089326 0.113625
H34   H     H_    0.520690 0.392941 0.144850 0.109978
H35   H     H_    0.531879 0.162979 0.252935 0.095330
H36   H     H_    0.430364 0.109111 0.305961 0.130235

loop_
_geom_bond_atom_site_label_1
_geom_bond_atom_site_label_2
_ccdc_geom_bond_type
C44   C46   A    
C41   C43   A    
C69   C70   A    
C2    C23   S    
C20   H10   S    
C59   C60   A    
O1    C3    A    
O2    C4    A    
C2    O7    A    
C62   C63   A    
C19   C59   S    
C66   C67   A    
C25   C27   A    
O5    C3    A    
C57   O21   D    
C17   H7    S    
O11   C55   A    
C18   H8    S    
C7    C9    A    
C14   C53   S    
C36   H18   S    
C44   H24   S    
C13   C54   S    
O15   C55   A    
C35   C37   A    
C32   C46   A    
C49   C56   S    
C36   C38   A    
C63   C64   A    
C58   H26   S    
C38   C40   A    
C26   H14   S    
C65   C70   A    
C47   C49   A    
C70   H36   S    
C40   C42   A    
C17   C19   S    
C68   H34   S    
C21   C31   A    
C22   C24   A    
C27   C29   A    
C29   C39   A    
C28   C30   A    
C15   C17   S    
C59   C64   A    
C48   H20   S    
C18   C20   S    
C62   H29   S    
C30   C32   A    
O5    V1    S    
O6    V2    S    
C21   H11   S    
C19   H9    S    
O12   C56   A    
C60   C61   A    
O15   V3    S    
C43   H23   S    
C23   C25   A    
C11   C13   A    
C24   C26   A    
C3    C8    S    
C37   C39   A    
C64   H31   S    
O4    C2    A    
C49   C51   A    
C45   C57   S    
C41   C51   A    
C54   O17   A    
C43   C45   A    
C27   C33   A    
C17   H5    S    
C29   C31   A    
C42   C44   A    
O4    V2    S    
C20   C65   S    
C47   H19   S    
O13   C53   A    
C33   H15   S    
C38   C48   A    
O6    C4    A    
O14   C54   A    
O1    V2    S    
C52   H22   S    
O20   V4    S    
O2    V1    S    
C21   C23   A    
C51   H21   S    
O17   V3    S    
C37   C47   A    
C50   C52   A    
C8    C10   A    
C12   C14   A    
O19   V4    S    
C9    H1    S    
O11   V4    S    
C68   C69   A    
C5    C15   A    
C10   H2    S    
C6    C16   A    
C25   H13   S    
O3    V1    S    
C61   C62   A    
C1    C24   S    
O16   V4    S    
C9    C11   A    
C18   H6    S    
C39   C41   A    
O13   V3    S    
O3    C1    A    
C48   C50   A    
C58   O22   D    
C11   H3    S    
C5    C19   S    
C57   H25   S    
C12   H4    S    
C34   H16   S    
C33   C35   A    
O7    V1    S    
C1    O8    A    
C13   C15   A    
C30   C40   A    
C14   C16   A    
C66   H32   S    
C60   H27   S    
C69   H35   S    
O18   V4    S    
O16   C56   A    
C4    C7    S    
C26   C28   A    
C5    C7    A    
C34   C36   A    
C67   H33   S    
C6    C8    A    
O20   V3    S    
C31   C45   A    
C35   H17   S    
C28   C34   A    
O12   V3    S    
O14   V4    S    
C61   H28   S    
C22   C32   A    
O19   V3    S    
C63   H30   S    
C10   C12   A    
O9    V2    S    
C42   C52   A    
O10   V1    S    
O8    V2    S    
C46   C58   S    
C22   H12   S    
C65   C66   A    
C6    C20   S    
C53   O18   A    
C16   C18   S    
C67   C68   A    
C50   C55   S    
