data_mof_unit_56791.cif
_audit_creation_date              2012-12-10T17:51:28-0500
_audit_creation_method            fapswitch 2.2
_symmetry_space_group_name_H-M    P1
_symmetry_Int_Tables_number       1
_space_group_crystal_system       triclinic
_cell_length_a                    14.690034
_cell_length_b                    14.722866
_cell_length_c                    17.224415
_cell_angle_alpha                 105.761104
_cell_angle_beta                  73.292379
_cell_angle_gamma                 114.69105
_cell_volume                      3192.27912032

loop_
_atom_site_label
_atom_site_type_symbol
_atom_type_description
_atom_site_fract_x
_atom_site_fract_y
_atom_site_fract_z
_atom_type_partial_charge
C1    C     C_R   0.118596 0.687991 0.513981 0.800379
C2    C     C_R   0.709018 0.178967 0.492331 -0.227274
C3    C     C_R   0.359339 0.922469 0.513641 0.050144
C4    C     C_R   0.640660 0.077531 0.486352 0.050140
C5    C     C_R   0.318513 0.999331 0.529663 0.070318
C6    C     C_R   0.681487 0.000669 0.470331 0.070322
C7    C     C_R   0.466913 0.948701 0.501221 0.006935
C8    C     C_R   0.533087 0.051300 0.498772 0.006941
C9    C     C_R   0.489780 0.124491 0.508433 -0.319699
C10   C     C_R   0.510219 0.875510 0.491560 -0.319703
C11   C     C_R   0.384129 0.100563 0.528339 0.410171
C12   C     C_R   0.881404 0.312009 0.486018 0.800387
C13   C     C_R   0.615871 0.899437 0.471654 0.410196
C14   C     C_R   0.294519 0.327884 0.363559 -0.308673
C15   C     C_R   0.705481 0.672116 0.636440 -0.308674
C16   C     C_R   0.991110 0.505533 0.652961 0.790682
C17   C     C_R   0.008860 0.494418 0.347040 0.790542
C18   C     C_R   0.211279 0.358066 0.384742 0.073673
C19   C     C_R   0.788721 0.641934 0.615258 0.073638
C20   C     C_R   0.286380 0.491342 0.487581 -0.008598
C21   C     C_R   0.713620 0.508658 0.512418 -0.008514
C22   C     C_R   0.373923 0.464801 0.468765 -0.046515
C23   C     C_R   0.185432 0.795623 0.521894 -0.051941
C24   C     C_R   0.626078 0.535200 0.531233 -0.046511
C25   C     C_R   0.375700 0.380449 0.405544 0.173022
C26   C     C_R   0.624301 0.619552 0.594454 0.173008
C27   C     C_R   0.458009 0.517026 0.510919 0.069214
C28   C     C_R   0.541992 0.482975 0.489079 0.069223
C29   C     C_R   0.538959 0.397910 0.425987 -0.242259
C30   C     C_R   0.461043 0.602091 0.574011 -0.242293
C31   C     C_R   0.457691 0.348208 0.385144 -0.150384
C32   C     C_R   0.542310 0.651794 0.614854 -0.150409
C33   C     C_R   0.992221 0.516220 0.739574 -0.028557
C34   C     C_R   0.814568 0.204377 0.478103 -0.051906
C35   C     C_R   0.007578 0.483434 0.260427 -0.028528
C36   C     C_R   0.079955 0.522542 0.761423 -0.188971
C37   C     C_R   0.919536 0.476351 0.238584 -0.188964
C38   C     C_R   0.082243 0.533666 0.843529 -0.126970
C39   C     C_R   0.917021 0.464763 0.156463 -0.126388
C40   C     C_R   0.996396 0.537039 0.904512 0.095862
C41   C     C_R   0.002939 0.461687 0.095463 0.095222
C42   C     C_R   0.909567 0.533113 0.883373 -0.186271
C43   C     C_R   0.090119 0.466458 0.116609 -0.187312
C44   C     C_R   0.907507 0.523060 0.801113 -0.199293
C45   C     C_R   0.211927 0.973346 0.545142 -0.158250
C46   C     C_R   0.092399 0.476938 0.198881 -0.198829
C47   C     C_2   0.995014 0.538727 0.990757 0.295101
C48   C     C_2   0.004109 0.459756 0.009208 0.295157
C49   C     C_3   0.977635 0.288597 0.968414 0.071227
C50   C     C_3   0.982539 0.208530 0.891642 -0.781525
C51   C     C_3   0.022878 0.710024 0.032072 0.070927
C52   C     C_3   0.017258 0.789739 0.108987 -0.781261
C53   C     C_3   0.375798 0.252887 0.604148 0.063687
C54   C     C_3   0.300418 0.307057 0.635945 -0.765441
C55   C     C_3   0.624191 0.747107 0.395850 0.063574
C56   C     C_R   0.788072 0.026654 0.454854 -0.158242
C57   C     C_3   0.699569 0.692934 0.364051 -0.765202
C58   C     C_R   0.145933 0.872353 0.541954 -0.222685
C59   C     C_R   0.854067 0.127647 0.458044 -0.222651
C60   C     C_R   0.290982 0.821034 0.507663 -0.227296
Cu1   Cu    Cu3+1 0.916740 0.524770 0.521640 0.935301
Cu2   Cu    Cu3+1 0.083260 0.475230 0.478360 0.935293
H1    H     H_    0.146969 0.519247 0.715189 0.146239
H2    H     H_    0.148118 0.316920 0.352944 0.122428
H3    H     H_    0.295038 0.263238 0.315044 0.135330
H4    H     H_    0.704962 0.736762 0.684955 0.135348
H5    H     H_    0.598263 0.367022 0.406738 0.125357
H6    H     H_    0.401739 0.632981 0.593259 0.125394
H7    H     H_    0.160790 0.481508 0.214376 0.151636
H8    H     H_    0.839358 0.519095 0.785626 0.151750
H9    H     H_    0.842942 0.535685 0.930382 0.143410
H10   H     H_    0.156831 0.464208 0.069590 0.142832
H11   H     H_    0.848859 0.459971 0.140394 0.140104
H12   H     H_    0.852452 0.479381 0.284834 0.146019
H13   H     H_    0.150188 0.537917 0.859594 0.140262
H14   H     H_    0.681833 0.240485 0.510929 0.148177
H15   H     H_    0.318167 0.759515 0.489063 0.148176
H16   H     H_    0.935680 0.145692 0.446541 0.158231
H17   H     H_    0.064319 0.854309 0.553458 0.158237
H18   H     H_    0.179074 0.030889 0.558931 0.181524
H19   H     H_    0.820925 0.969111 0.441066 0.181514
H20   H     H_    0.895547 0.273654 0.997447 0.133879
H21   H     H_    0.016918 0.281079 0.011381 0.150709
H22   H     H_    0.063485 0.220424 0.861577 0.246797
H23   H     H_    0.535592 0.201131 0.498887 0.144014
H24   H     H_    0.944522 0.131725 0.908547 0.192126
H25   H     H_    0.943080 0.213408 0.847597 0.252686
H26   H     H_    0.985266 0.718594 0.988379 0.150691
H27   H     H_    0.105130 0.724379 0.004088 0.133681
H28   H     H_    0.054890 0.783675 0.153818 0.252889
H29   H     H_    0.056721 0.866760 0.092536 0.192108
H30   H     H_    0.936161 0.778540 0.137926 0.246625
H31   H     H_    0.452421 0.308901 0.582649 0.158897
H32   H     H_    0.378736 0.224045 0.656658 0.130406
H33   H     H_    0.224410 0.254310 0.662477 0.237988
H34   H     H_    0.464407 0.798870 0.501108 0.144018
H35   H     H_    0.328013 0.373309 0.684358 0.199269
H36   H     H_    0.292324 0.333978 0.585000 0.261925
H37   H     H_    0.621245 0.775943 0.343341 0.130414
H38   H     H_    0.547571 0.691096 0.417358 0.158904
H39   H     H_    0.707676 0.666026 0.414997 0.261908
H40   H     H_    0.671962 0.626673 0.315648 0.199373
H41   H     H_    0.775572 0.745674 0.337504 0.237967
H42   H     H_    0.458811 0.283141 0.337200 0.137003
H43   H     H_    0.541191 0.716860 0.662797 0.137010
H44   H     H_    0.722748 0.447286 0.464082 0.122333
H45   H     H_    0.277253 0.552713 0.535918 0.122382
H46   H     H_    0.851881 0.683080 0.647057 0.122415
N1    N     N_R   0.208390 0.438070 0.445820 -0.174494
N2    N     N_R   0.791610 0.561930 0.554180 -0.174492
O1    O     O_R   0.020090 0.662480 0.528530 -0.585058
O2    O     O_3   0.971894 0.612728 0.054205 -0.601072
O3    O     O_3   0.343764 0.173988 0.538033 -0.584899
O4    O     O_3   0.656235 0.826012 0.461959 -0.584898
O5    O     O_R   0.979910 0.337520 0.471470 -0.585062
O6    O     O_R   0.160710 0.620650 0.491980 -0.594403
O7    O     O_R   0.839290 0.379350 0.508020 -0.594418
O8    O     O_R   0.921540 0.523360 0.633990 -0.588018
O9    O     O_R   0.078460 0.476640 0.366010 -0.588009
O10   O     O_R   0.062170 0.481520 0.597440 -0.584351
O11   O     O_R   0.937830 0.518480 0.402560 -0.584299
O12   O     O_3   0.027022 0.385642 0.945738 -0.601207

loop_
_geom_bond_atom_site_label_1
_geom_bond_atom_site_label_2
_ccdc_geom_bond_type
C25   C31   A    
C40   C47   S    
C38   C40   A    
C37   H12   S    
C26   C32   A    
C51   O2    S    
C23   C58   A    
C14   C18   A    
C52   H28   S    
C18   N1    A    
C4    C8    A    
C18   H2    S    
C21   N2    A    
C50   H22   S    
C7    C8    A    
C39   C41   A    
C53   C54   S    
C15   C19   A    
C57   H40   S    
C43   H10   S    
C28   C29   A    
C35   C37   A    
C24   C26   A    
C5    C11   A    
C3    C7    A    
C16   O10   A    
C48   O12   S    
C47   O2    S    
C33   C36   A    
Cu1   O11   S    
C7    C10   A    
C46   H7    S    
C9    H23   S    
C29   H5    S    
C14   H3    S    
C8    C9    A    
C22   C25   A    
C55   H38   S    
C54   H35   S    
C44   H8    S    
C1    O6    A    
C36   H1    S    
Cu2   O10   S    
C13   O4    S    
C20   H45   S    
C3    C60   A    
C2    C34   A    
C40   C42   A    
Cu1   O8    S    
C27   C30   A    
C41   C43   A    
C42   C44   A    
Cu1   N2    S    
C59   H16   S    
C53   O3    S    
C38   H13   S    
C23   C60   A    
C57   H41   S    
C45   C58   A    
Cu1   O7    S    
C51   C52   S    
C24   C28   A    
C56   H19   S    
C4    C6    A    
C60   H15   S    
C17   O9    A    
C15   C26   A    
C15   H4    S    
C53   H31   S    
C20   N1    A    
C49   H20   S    
C2    C4    A    
Cu2   O6    S    
C16   O8    A    
C16   C33   S    
C47   C48   D    
C10   H34   S    
C54   H33   S    
C9    C11   A    
Cu2   O9    S    
C50   H25   S    
C58   H17   S    
C17   O11   A    
C20   C22   A    
C1    C23   S    
C32   H43   S    
C55   C57   S    
C34   C59   A    
C52   H30   S    
C12   C34   S    
Cu1   O1    S    
C2    H14   S    
C19   N2    A    
C53   H32   S    
C33   C44   A    
C21   H44   S    
C6    C56   A    
C3    C5    A    
C10   C13   A    
C51   H26   S    
C55   O4    S    
C57   H39   S    
C56   C59   A    
C22   C27   A    
C31   H42   S    
C12   O5    A    
C36   C38   A    
Cu2   O5    S    
C37   C39   A    
C19   H46   S    
C6    C13   A    
C30   C32   A    
C49   H21   S    
Cu2   N1    S    
C5    C45   A    
C49   O12   S    
C42   H9    S    
C41   C48   S    
C51   H27   S    
C45   H18   S    
C39   H11   S    
C14   C25   A    
Cu1   Cu2   S    
C11   O3    S    
C43   C46   A    
C30   H6    S    
C50   H24   S    
C12   O7    A    
C29   C31   A    
C49   C50   S    
C21   C24   A    
C55   H37   S    
C27   C28   A    
C54   H36   S    
C52   H29   S    
C17   C35   S    
C35   C46   A    
C1    O1    A    
