data_mof_unit_48198.cif
_audit_creation_date              2012-12-10T17:18:57-0500
_audit_creation_method            fapswitch 2.2
_symmetry_space_group_name_H-M    P1
_symmetry_Int_Tables_number       1
_space_group_crystal_system       triclinic
_cell_length_a                    9.66745
_cell_length_b                    10.795321
_cell_length_c                    13.409666
_cell_angle_alpha                 95.227287
_cell_angle_beta                  71.454119
_cell_angle_gamma                 88.059842
_cell_volume                      1318.35284476

loop_
_atom_site_label
_atom_site_type_symbol
_atom_type_description
_atom_site_fract_x
_atom_site_fract_y
_atom_site_fract_z
_atom_type_partial_charge
C1    C     C_R   0.501946 0.736222 0.489245 0.795809
C2    C     C_R   0.459567 0.567270 0.969927 -0.004582
C3    C     C_R   0.472756 0.496234 0.872526 -0.072837
C4    C     C_R   0.555920 0.534030 0.025364 -0.055531
C5    C     C_R   0.692232 0.470695 0.967318 -0.025883
C6    C     C_R   0.710251 0.406214 0.867048 0.073213
C7    C     C_R   0.588844 0.403312 0.830036 0.429991
C8    C     C_R   0.516822 0.550348 0.137464 0.326167
C9    C     C_R   0.772373 0.510861 0.120823 0.319432
C10   C     C_R   0.371213 0.521319 0.818919 -0.190642
C11   C     C_R   0.236369 0.902646 0.491849 0.079837
C12   C     C_R   0.419907 0.501673 0.701117 0.861788
C13   C     C_R   0.101892 0.964519 0.556032 0.398509
C14   C     C_R   0.102438 0.074389 0.618577 -0.162651
C15   C     C_R   0.232611 0.128747 0.614262 0.385011
C16   C     C_R   0.367781 0.068839 0.546741 -0.103403
C17   C     C_R   0.368773 0.944854 0.503710 -0.036877
C18   C     C_R   0.502266 0.870045 0.473142 -0.167295
C19   C     C_R   0.635804 0.928006 0.449010 0.136441
C20   C     C_R   0.635235 0.055276 0.478600 0.398689
C21   C     C_R   0.500898 0.128301 0.519030 -0.268741
C22   C     C_R   0.938965 0.359311 0.328850 0.451837
C23   C     C_R   0.499194 0.263115 0.508145 0.905173
C24   C     C_R   0.052377 0.326725 0.232389 0.057891
C25   C     C_R   0.195425 0.328966 0.232113 -0.000154
C26   C     C_R   0.220721 0.357194 0.328849 0.466199
C27   C     C_R   0.113900 0.431267 0.416394 0.007983
C28   C     C_R   0.964662 0.432374 0.416040 0.011083
C29   C     C_R   0.888861 0.565546 0.576762 -0.036651
C30   C     C_R   0.035318 0.568497 0.576223 0.422285
C31   C     C_R   0.578571 0.510661 0.300565 0.867483
C32   C     C_R   0.803748 0.470613 0.013713 -0.139940
C33   C     C_R   0.624447 0.528173 0.185875 -0.244370
C34   C     C_R   0.243396 0.598881 0.873899 0.330573
C35   C     C_R   0.240121 0.677150 0.962900 -0.122452
C36   C     C_R   0.353806 0.670371 0.005501 0.118314
Cu1   Cu    Cu3+1 0.359340 0.500010 0.500010 1.017408
Cu2   Cu    Cu3+1 0.640660 0.499990 0.499990 0.999676
H1    H     H_    0.999719 0.118493 0.670479 0.171958
H2    H     H_    0.803785 0.620658 0.639320 0.171508
H3    H     H_    0.915326 0.439204 0.968167 0.180658
H4    H     H_    0.151127 0.748164 0.996094 0.174915
N1    N     N_R   0.852480 0.498790 0.499000 -0.202022
N2    N     N_R   0.148360 0.498710 0.498970 -0.218885
O1    O     O_R   0.381190 0.680360 0.500010 -0.609844
O2    O     O_R   0.618760 0.680340 0.500000 -0.590945
O3    O     O_R   0.323240 0.499990 0.650990 -0.583431
O4    O     O_R   0.560820 0.499960 0.650980 -0.551524
O5    O     O_R   0.381240 0.319660 0.500000 -0.490089
O6    O     O_R   0.618810 0.319640 0.499990 -0.499554
O7    O     O_R   0.439180 0.500040 0.349020 -0.481773
O8    O     O_R   0.676760 0.500010 0.349010 -0.544954
O9    O     O_3   0.887852 0.528236 0.158556 -0.726283
H5    H     H_    0.856319 0.593600 0.219375 0.328457
C37   C     C_3   0.238737 0.815847 0.395870 -0.751475
H6    H     H_    0.176587 0.862178 0.351193 0.212576
H7    H     H_    0.351682 0.793161 0.340886 0.249401
H8    H     H_    0.187851 0.727973 0.419065 0.242364
O10   O     O_3   0.967983 0.921478 0.559604 -0.708658
H9    H     H_    0.981888 0.831866 0.533408 0.327672
O11   O     O_3   0.223482 0.234042 0.683195 -0.726083
H10   H     H_    0.317855 0.239649 0.697131 0.326117
O12   O     O_3   0.767560 0.104708 0.470138 -0.701200
H11   H     H_    0.755317 0.156726 0.537631 0.356456
O13   O     O_3   0.810295 0.304894 0.341058 -0.652657
H12   H     H_    0.828958 0.220324 0.301812 0.327725
C38   C     C_3   0.020979 0.273596 0.133453 -0.744066
H13   H     H_    0.059762 0.173615 0.114153 0.208295
H14   H     H_    0.903094 0.281028 0.141839 0.241193
H15   H     H_    0.077234 0.325293 0.065687 0.254443
C39   C     C_3   0.321169 0.284284 0.132371 -0.831859
H16   H     H_    0.316486 0.337499 0.066404 0.238000
H17   H     H_    0.429309 0.298578 0.142427 0.245287
H18   H     H_    0.315676 0.183485 0.109850 0.230969
O14   O     O_3   0.340266 0.296465 0.339970 -0.684675
H19   H     H_    0.357724 0.212097 0.300213 0.307742
C40   C     C_3   0.853934 0.338115 0.801538 -0.824382
H20   H     H_    0.855295 0.305285 0.720432 0.240435
H21   H     H_    0.942779 0.402368 0.790538 0.256396
H22   H     H_    0.877400 0.257931 0.841277 0.231268
O15   O     O_3   0.059064 0.647483 0.654454 -0.713419
H23   H     H_    0.163848 0.660761 0.634152 0.383179
O16   O     O_3   0.373910 0.579578 0.201355 -0.729555
H24   H     H_    0.306734 0.548825 0.163859 0.345895
O17   O     O_3   0.125858 0.609708 0.838084 -0.689736
H25   H     H_    0.116883 0.526828 0.803751 0.354015
C41   C     C_3   0.363905 0.780392 0.080399 -0.804500
H26   H     H_    0.270549 0.785387 0.155029 0.244986
H27   H     H_    0.468497 0.777577 0.097870 0.249387
H28   H     H_    0.358602 0.867795 0.043598 0.214929
O18   O     O_3   0.579201 0.310423 0.754803 -0.764739
H29   H     H_    0.636083 0.234371 0.759495 0.323173
C42   C     C_3   0.778783 0.856770 0.384974 -0.716044
H30   H     H_    0.860090 0.919103 0.340847 0.246947
H31   H     H_    0.826351 0.808441 0.436887 0.250856
H32   H     H_    0.760376 0.787392 0.324927 0.176362

loop_
_geom_bond_atom_site_label_1
_geom_bond_atom_site_label_2
_ccdc_geom_bond_type
C40   H20   S    
C37   H6    S    
C16   C21   A    
C8    O16   S    
C35   C36   A    
C31   O8    A    
C12   O4    A    
O15   H23   S    
O9    H5    S    
C26   C27   A    
C42   H30   S    
Cu1   Cu2   S    
C18   C19   A    
C3    C7    A    
C5    C6    A    
Cu1   O7    S    
C1    O2    A    
C23   O5    A    
Cu2   O8    S    
C15   C16   A    
C34   C35   A    
C35   H4    S    
C1    C18   S    
C24   C38   S    
C14   H1    S    
C27   N2    A    
C19   C20   A    
C16   C17   A    
C32   H3    S    
C31   C33   S    
C25   C39   S    
Cu1   O3    S    
Cu2   O4    S    
C19   C42   S    
C4    C8    A    
C5    C32   A    
O10   H9    S    
C42   H31   S    
C22   C28   A    
C13   C14   A    
C29   N1    A    
C9    C33   A    
C30   N2    A    
C12   O3    A    
C26   O14   S    
C40   H21   S    
C36   C41   S    
C38   H13   S    
C24   C25   A    
O18   H29   S    
C39   H17   S    
C6    C40   S    
C25   C26   A    
O17   H25   S    
C38   H14   S    
C34   O17   S    
C2    C4    A    
O14   H19   S    
C22   O13   S    
C29   C30   A    
Cu1   O5    S    
O16   H24   S    
C7    O18   S    
C17   C18   A    
C15   O11   S    
C10   C34   A    
C10   C12   S    
C13   O10   S    
C42   H32   S    
C37   H7    S    
C22   C24   A    
C9    C32   A    
C9    O9    S    
Cu1   O1    S    
C11   C37   S    
C40   H22   S    
C2    C36   A    
C11   C17   A    
C31   O7    A    
C4    C5    A    
C23   O6    A    
C39   H18   S    
C6    C7    A    
Cu2   O6    S    
C28   N1    A    
C38   H15   S    
C20   O12   S    
C21   C23   S    
C2    C3    A    
C39   H16   S    
C3    C10   A    
C11   C13   A    
C1    O1    A    
C37   H8    S    
Cu1   N2    S    
C29   H2    S    
C8    C33   A    
O11   H10   S    
Cu2   O2    S    
O12   H11   S    
Cu2   N1    S    
C20   C21   A    
C41   H26   S    
O13   H12   S    
C41   H28   S    
C27   C28   A    
C41   H27   S    
C14   C15   A    
C30   O15   S    
