data_mof_unit_7228.cif
_audit_creation_date              2012-12-10T19:03:38-0500
_audit_creation_method            fapswitch 2.2
_symmetry_space_group_name_H-M    P1
_symmetry_Int_Tables_number       1
_space_group_crystal_system       triclinic
_cell_length_a                    15.892112
_cell_length_b                    10.825577
_cell_length_c                    9.544591
_cell_angle_alpha                 89.904058
_cell_angle_beta                  89.990956
_cell_angle_gamma                 90.075755
_cell_volume                      1642.05991477

loop_
_atom_site_label
_atom_site_type_symbol
_atom_type_description
_atom_site_fract_x
_atom_site_fract_y
_atom_site_fract_z
_atom_type_partial_charge
C1    C     C_R   0.501326 0.262350 0.500084 0.802226
C2    C     C_3   0.950458 0.564254 0.632603 -0.385705
C3    C     C_3   0.917082 0.498995 0.498756 0.140810
C4    C     C_3   0.951992 0.571947 0.369393 -0.204591
C5    C     C_3   0.050086 0.569293 0.369824 -0.425093
C6    C     C_1   0.824767 0.499820 0.499445 -0.046639
C7    C     C_1   0.175141 0.499875 0.500498 -0.022877
C8    C     C_1   0.250637 0.499955 0.500175 -0.145965
C9    C     C_R   0.505576 0.063529 0.626014 0.143652
C10   C     C_R   0.509085 0.129305 0.500311 -0.096108
C11   C     C_R   0.523494 0.064778 0.374951 -0.201687
C12   C     C_R   0.340232 0.499982 0.500069 0.822077
C13   C     C_R   0.523125 0.936057 0.374888 -0.207972
C14   C     C_R   0.508599 0.870952 0.500150 -0.097483
C15   C     C_R   0.505330 0.936312 0.626004 0.118210
C16   C     C_3   0.442015 0.930091 0.741650 -0.457163
C17   C     C_3   0.442509 0.070292 0.741752 -0.462724
C18   C     C_R   0.570250 0.534403 0.073430 0.271404
C19   C     C_R   0.434049 0.453114 0.074474 -0.071366
C20   C     C_R   0.434044 0.453101 0.925693 -0.071679
C21   C     C_R   0.570301 0.534156 0.926193 0.275817
C22   C     C_3   0.614652 0.655351 0.919395 -0.493371
C23   C     C_R   0.501139 0.737727 0.499930 0.796438
C24   C     C_3   0.614195 0.656054 0.078587 -0.503618
C25   C     C_R   0.659748 0.500198 0.499932 0.828196
C26   C     C_3   0.048167 0.565488 0.633901 0.137838
C27   C     C_3   0.049174 0.365208 0.495426 -0.356028
C28   C     C_3   0.951490 0.364055 0.496082 0.142504
C29   C     C_1   0.749297 0.500160 0.499808 -0.146802
C30   C     C_3   0.082953 0.499627 0.500971 0.153487
Cu1   Cu    Cu3+1 0.500000 0.499980 0.640670 0.958307
Cu2   Cu    Cu3+1 0.500000 0.500020 0.359330 0.949541
H1    H     H_    0.925374 0.518178 0.728010 0.252820
H2    H     H_    0.069963 0.663263 0.633261 0.128276
H3    H     H_    0.927000 0.661069 0.636016 0.146614
H4    H     H_    0.531154 0.113094 0.276293 0.169627
H5    H     H_    0.530331 0.888376 0.276201 0.157423
H6    H     H_    0.381026 0.889683 0.707391 0.205824
H7    H     H_    0.468515 0.889707 0.839176 0.196888
H8    H     H_    0.381781 0.111556 0.707720 0.200136
H9    H     H_    0.469714 0.110428 0.838876 0.203903
H10   H     H_    0.380121 0.416627 0.129857 0.155201
H11   H     H_    0.380122 0.416579 0.870475 0.160878
H12   H     H_    0.678828 0.646630 0.874170 0.206071
H13   H     H_    0.575440 0.729428 0.872378 0.211610
H14   H     H_    0.678130 0.648543 0.125042 0.197875
H15   H     H_    0.574209 0.730154 0.123182 0.206796
H16   H     H_    0.072142 0.319190 0.398480 0.168039
H17   H     H_    0.074476 0.310927 0.584881 0.233905
H18   H     H_    0.928958 0.316766 0.399912 0.174337
H19   H     H_    0.074407 0.665809 0.369918 0.160635
H20   H     H_    0.075559 0.524955 0.273620 0.234867
H21   H     H_    0.932378 0.670217 0.380676 0.120648
N1    N     N_R   0.500530 0.500930 0.147930 -0.191292
N2    N     N_R   0.500530 0.500890 0.852020 -0.192876
O1    O     O_R   0.500000 0.319640 0.618810 -0.576623
O2    O     O_R   0.500010 0.319680 0.381230 -0.585038
O3    O     O_R   0.379430 0.499990 0.618840 -0.574103
O4    O     O_R   0.379440 0.500030 0.381260 -0.582079
O5    O     O_R   0.499990 0.680320 0.618770 -0.580179
O6    O     O_R   0.500000 0.680360 0.381190 -0.583878
O7    O     O_R   0.620560 0.499970 0.618740 -0.569664
O8    O     O_R   0.620570 0.500010 0.381160 -0.580397
C31   C     C_2   0.915507 0.528798 0.231136 0.395244
H22   H     H_    0.862825 0.578414 0.185684 0.064907
O9    O     O_2   0.942336 0.437117 0.171692 -0.507201
Br1   Br    Br    0.090853 0.493764 0.808218 -0.486189
Br2   Br    Br    0.909117 0.263107 0.651144 -0.486639

loop_
_geom_bond_atom_site_label_1
_geom_bond_atom_site_label_2
_ccdc_geom_bond_type
Cu1   O5    S    
C14   C23   S    
C5    H20   S    
C1    O2    A    
Cu1   O1    S    
C18   C21   A    
C9    C10   A    
C4    C31   S    
C13   H5    S    
Cu1   Cu2   S    
C19   H10   S    
C25   O8    A    
C8    C12   S    
C3    C6    S    
C12   O3    A    
C31   H22   S    
C20   H11   S    
C19   C20   A    
C2    C3    S    
C9    C15   A    
C24   H14   S    
C7    C8    T    
C2    C26   S    
C7    C30   S    
C16   H6    S    
C21   C22   S    
C27   C30   S    
C11   C13   A    
Cu1   O7    S    
C16   C17   S    
Cu2   O2    S    
C20   N2    A    
C18   C24   S    
C26   Br1   S    
Cu1   O3    S    
Cu2   N1    S    
C11   H4    S    
C28   Br2   S    
C1    O1    A    
Cu2   O6    S    
C26   C30   S    
C17   H9    S    
C25   O7    A    
C12   O4    A    
C27   H16   S    
C25   C29   S    
C23   O5    A    
C4    H21   S    
C22   C24   S    
C10   C11   A    
C18   N1    A    
C16   H7    S    
C15   C16   S    
C27   H17   S    
C23   O6    A    
C6    C29   T    
C19   N1    A    
C22   H13   S    
C5    C30   S    
C9    C17   S    
C27   C28   S    
C21   N2    A    
C2    H3    S    
C14   C15   A    
C3    C28   S    
C22   H12   S    
Cu2   O4    S    
Cu1   N2    S    
C13   C14   A    
C24   H15   S    
C28   H18   S    
C26   H2    S    
C5    H19   S    
C1    C10   S    
C3    C4    S    
Cu2   O8    S    
C2    H1    S    
C4    C5    S    
C17   H8    S    
C31   O9    D    
