data_mof_unit_19604.cif
_audit_creation_date              2012-10-26T21:20:08-0400
_audit_creation_method            fapswitch 2.2
_symmetry_space_group_name_H-M    P1
_symmetry_Int_Tables_number       1
_space_group_crystal_system       triclinic
_cell_length_a                    13.103925
_cell_length_b                    10.751831
_cell_length_c                    9.631093
_cell_angle_alpha                 92.479972
_cell_angle_beta                  95.261303
_cell_angle_gamma                 91.975774
_cell_volume                      1348.94528181

loop_
_atom_site_label
_atom_site_type_symbol
_atom_type_description
_atom_site_fract_x
_atom_site_fract_y
_atom_site_fract_z
_atom_type_partial_charge
C1    C     C_R   0.499480 0.262430 0.497899 0.550032
C2    C     C_R   0.699605 0.504178 0.526143 0.538399
C3    C     C_R   0.813293 0.509880 0.542709 -0.004812
C4    C     C_R   0.188291 0.511648 0.456124 -0.003257
C5    C     C_R   0.026110 0.525238 0.313858 -0.119675
C6    C     C_R   0.976586 0.504404 0.684073 -0.116596
C7    C     C_R   0.133888 0.534514 0.324715 -0.013209
C8    C     C_R   0.870280 0.519974 0.676557 -0.008589
C9    C     C_R   0.134431 0.497810 0.573914 -0.150035
C10   C     C_R   0.866142 0.507863 0.421993 -0.148880
C11   C     C_R   0.028063 0.502565 0.563599 0.026857
C12   C     C_R   0.501193 0.737548 0.502229 0.543749
C13   C     C_R   0.973213 0.510758 0.432315 0.026505
C14   C     C_R   0.557395 0.062560 0.406207 -0.141806
C15   C     C_R   0.444871 0.937383 0.595172 -0.150685
C16   C     C_R   0.558794 0.934013 0.409530 -0.140785
C17   C     C_R   0.442946 0.065848 0.591228 -0.146060
C18   C     C_3   0.818944 0.558349 0.806937 -0.232541
C19   C     C_3   0.890532 0.601529 0.935128 -0.334820
C20   C     C_3   0.835062 0.676196 0.040945 -0.472185
C21   C     C_3   0.191702 0.572842 0.201109 -0.233656
C22   C     C_3   0.129223 0.618175 0.073343 -0.340092
C23   C     C_R   0.502906 0.871618 0.504528 0.022458
C24   C     C_3   0.198688 0.670928 0.969131 -0.458052
C25   C     C_3   0.378668 0.306399 0.109788 -0.235030
C26   C     C_3   0.421842 0.176382 0.091076 -0.302495
C27   C     C_3   0.352980 0.076551 0.147187 -0.446421
C28   C     C_3   0.561006 0.729601 0.886644 -0.233175
C29   C     C_3   0.590132 0.838361 0.995034 -0.362358
C30   C     C_3   0.606041 0.961049 0.924609 -0.448621
C31   C     C_R   0.498710 0.128307 0.496151 0.020843
C32   C     C_R   0.448552 0.406771 0.060031 0.105974
C33   C     C_R   0.540723 0.600863 0.940576 0.091472
C34   C     C_R   0.453440 0.405374 0.913112 0.018133
C35   C     C_R   0.549241 0.592006 0.088058 0.017833
C36   C     C_R   0.300942 0.504072 0.473914 0.535656
Cu1   Cu    Cu3+1 0.500000 0.500020 0.640660 0.901778
Cu2   Cu    Cu3+1 0.500000 0.499980 0.359340 0.899330
H1    H     H_    0.824153 0.507722 0.319598 0.124018
H2    H     H_    0.243930 0.753960 0.016390 0.151919
H3    H     H_    0.252031 0.599488 0.936233 0.160326
H4    H     H_    0.151127 0.699191 0.875181 0.141907
H5    H     H_    0.085773 0.536557 0.021427 0.147544
H6    H     H_    0.077407 0.691671 0.105162 0.170561
H7    H     H_    0.247259 0.650231 0.238982 0.180485
H8    H     H_    0.233008 0.491562 0.163544 0.165473
H9    H     H_    0.982651 0.532856 0.214525 0.104958
H10   H     H_    0.020996 0.500173 0.783830 0.099327
H11   H     H_    0.603549 0.110558 0.336078 0.113471
H12   H     H_    0.175515 0.486237 0.675245 0.120117
H13   H     H_    0.399751 0.889479 0.666638 0.108796
H14   H     H_    0.604237 0.883338 0.339214 0.110046
H15   H     H_    0.397539 0.116445 0.661667 0.109585
H16   H     H_    0.343990 0.097027 0.259277 0.165394
H17   H     H_    0.276163 0.072299 0.087556 0.144157
H18   H     H_    0.387573 0.984279 0.136056 0.144697
H19   H     H_    0.427854 0.153056 0.978736 0.136522
H20   H     H_    0.499905 0.175056 0.145791 0.179908
H21   H     H_    0.361316 0.323464 0.217763 0.212009
H22   H     H_    0.303126 0.307760 0.046971 0.087233
H23   H     H_    0.811315 0.764666 0.995052 0.152958
H24   H     H_    0.665508 0.952538 0.849980 0.160972
H25   H     H_    0.533087 0.988102 0.868522 0.158363
H26   H     H_    0.631412 0.035653 0.004956 0.141208
H27   H     H_    0.527766 0.849757 0.064920 0.157144
H28   H     H_    0.661598 0.820780 0.060162 0.146718
H29   H     H_    0.621364 0.724542 0.813690 0.173686
H30   H     H_    0.486504 0.757024 0.835783 0.180394
H31   H     H_    0.413827 0.331817 0.846791 0.114971
H32   H     H_    0.588436 0.662871 0.157527 0.120966
H33   H     H_    0.767500 0.621878 0.070521 0.155286
H34   H     H_    0.887347 0.700180 0.136191 0.138564
H35   H     H_    0.920303 0.517182 0.984184 0.148321
H36   H     H_    0.953364 0.662972 0.903560 0.171537
H37   H     H_    0.771619 0.638746 0.779325 0.159981
H38   H     H_    0.769533 0.479750 0.837107 0.178208
N1    N     N_R   0.500030 0.500030 0.852080 -0.238399
N2    N     N_R   0.499970 0.499970 0.147920 -0.237414
O1    O     O_R   0.499990 0.319660 0.618740 -0.504989
O2    O     O_R   0.500010 0.680340 0.381260 -0.513127
O3    O     O_R   0.499990 0.319630 0.381170 -0.512348
O4    O     O_R   0.500010 0.680370 0.618830 -0.528918
O5    O     O_R   0.349000 0.499990 0.599490 -0.504575
O6    O     O_R   0.651000 0.500010 0.400510 -0.503014
O7    O     O_R   0.348990 0.499960 0.361920 -0.536713
O8    O     O_R   0.651010 0.500040 0.638080 -0.513414

loop_
_geom_bond_atom_site_label_1
_geom_bond_atom_site_label_2
_ccdc_geom_bond_type
C4    C36   S    
C18   H37   S    
C30   H26   S    
C24   H4    S    
C2    O6    A    
C19   C20   S    
C14   C31   A    
C27   H16   S    
C5    H9    S    
C12   C23   S    
C26   C27   S    
C29   C30   S    
C6    H10   S    
C28   C29   S    
C28   H30   S    
C34   N1    A    
C27   H17   S    
C14   H11   S    
C36   O5    A    
C1    O3    A    
C1    C31   S    
C18   C19   S    
C20   H23   S    
C33   C35   A    
C22   H6    S    
C35   H32   S    
Cu1   O1    S    
C20   H33   S    
C25   H22   S    
C15   H13   S    
C5    C13   A    
C25   C32   S    
C15   C23   A    
C30   H25   S    
C24   H3    S    
C4    C7    A    
C21   H7    S    
Cu2   O7    S    
Cu1   O8    S    
C19   H35   S    
C28   H29   S    
C3    C8    A    
C6    C11   A    
C5    C7    A    
C27   H18   S    
C6    C8    A    
Cu2   N2    S    
C25   C26   S    
C7    C21   S    
Cu1   N1    S    
C8    C18   S    
C10   H1    S    
C32   C34   A    
Cu1   Cu2   S    
C26   H20   S    
C22   H5    S    
C12   O4    A    
C9    C11   A    
C34   H31   S    
C29   H27   S    
C28   C33   S    
C16   C23   A    
C30   H24   S    
Cu2   O3    S    
C17   C31   A    
C22   C24   S    
Cu1   O4    S    
C17   H15   S    
C21   H8    S    
C15   C17   A    
C18   H38   S    
Cu2   O6    S    
C19   H36   S    
Cu1   O5    S    
C9    H12   S    
C16   H14   S    
C10   C13   A    
C36   O7    A    
C35   N2    A    
C2    C3    S    
C3    C10   A    
C11   C13   A    
C33   N1    A    
Cu2   O2    S    
C1    O1    A    
C12   O2    A    
C24   H2    S    
C2    O8    A    
C14   C16   A    
C26   H19   S    
C32   N2    A    
C29   H28   S    
C20   H34   S    
C25   H21   S    
C4    C9    A    
C21   C22   S    
