data_mof_unit_27562.cif
_audit_creation_date              2012-12-11T14:28:22-0500
_audit_creation_method            fapswitch 2.2
_symmetry_space_group_name_H-M    P1
_symmetry_Int_Tables_number       1
_space_group_crystal_system       triclinic
_cell_length_a                    10.961377
_cell_length_b                    19.305216
_cell_length_c                    18.790962
_cell_angle_alpha                 89.999866
_cell_angle_beta                  89.999551
_cell_angle_gamma                 89.733378
_cell_volume                      3976.34531181

loop_
_atom_site_label
_atom_site_type_symbol
_atom_type_description
_atom_site_fract_x
_atom_site_fract_y
_atom_site_fract_z
_atom_type_partial_charge
C1    C     C_R   0.318523 0.961830 0.643472 0.541522
C2    C     C_3   0.154289 0.730302 0.037072 -0.116332
C3    C     C_3   0.087935 0.206995 0.967214 0.009255
C4    C     C_3   0.489066 0.290222 0.481279 0.005767
C5    C     C_3   0.489062 0.290222 0.018722 0.005778
C6    C     C_3   0.587937 0.706994 0.532787 0.009255
C7    C     C_3   0.587871 0.706976 0.967208 0.009249
C8    C     C_3   0.121277 0.795347 0.506519 -0.122989
C9    C     C_3   0.121257 0.795356 0.993479 -0.122984
C10   C     C_3   0.175319 0.250182 0.487590 -0.120457
C11   C     C_3   0.175318 0.250201 0.012413 -0.120453
C12   C     C_3   0.621273 0.295351 0.506518 -0.122986
C13   C     C_3   0.121369 0.317922 0.517887 -0.107365
C14   C     C_3   0.621270 0.295344 0.993484 -0.122989
C15   C     C_3   0.675321 0.750200 0.487586 -0.120445
C16   C     C_3   0.675322 0.750152 0.012399 -0.120467
C17   C     C_3   0.089036 0.748471 0.569892 0.038522
C18   C     C_3   0.089044 0.748471 0.930109 0.038539
C19   C     C_3   0.079965 0.252249 0.427696 0.033255
C20   C     C_3   0.079959 0.252255 0.072308 0.033260
C21   C     C_3   0.589039 0.248473 0.569891 0.038522
C22   C     C_3   0.589032 0.248472 0.930108 0.038514
C23   C     C_3   0.579959 0.752254 0.427694 0.033260
C24   C     C_3   0.121345 0.317935 0.982117 -0.107364
C25   C     C_3   0.579976 0.752245 0.072301 0.033244
C26   C     C_3   0.956313 0.744235 0.545984 -0.137823
C27   C     C_3   0.956320 0.744218 0.954015 -0.137831
C28   C     C_3   0.992697 0.207560 0.472293 -0.110414
C29   C     C_3   0.992712 0.207556 0.027707 -0.110409
C30   C     C_3   0.456316 0.244232 0.545983 -0.137825
C31   C     C_3   0.456306 0.244238 0.954015 -0.137823
C32   C     C_3   0.492711 0.707555 0.472295 -0.110410
C33   C     C_3   0.492660 0.707575 0.027712 -0.110429
C34   C     C_3   0.989062 0.678923 0.501168 -0.145164
C35   C     C_3   0.654284 0.230291 0.462929 -0.116336
C36   C     C_3   0.989096 0.678912 0.998835 -0.145161
C37   C     C_3   0.938875 0.275534 0.503260 -0.149721
C38   C     C_3   0.938868 0.275525 0.996741 -0.149719
C39   C     C_3   0.489071 0.178922 0.501166 -0.145163
C40   C     C_3   0.489046 0.178922 0.998829 -0.145170
C41   C     C_3   0.438869 0.775524 0.503262 -0.149727
C42   C     C_3   0.438886 0.775565 0.996749 -0.149690
C43   C     C_3   0.122674 0.683507 0.526585 -0.100716
C44   C     C_3   0.122709 0.683514 0.973421 -0.100693
C45   C     C_3   0.026094 0.319505 0.457460 -0.120371
C46   C     C_3   0.654267 0.230279 0.037069 -0.116314
C47   C     C_3   0.026065 0.319506 0.042543 -0.120369
C48   C     C_3   0.622684 0.183510 0.526582 -0.100711
C49   C     C_3   0.622661 0.183505 0.973413 -0.100718
C50   C     C_3   0.526066 0.819505 0.457458 -0.120370
C51   C     C_3   0.526154 0.819515 0.042540 -0.120360
C52   C     C_3   0.915300 0.851715 0.455055 -0.385441
C53   C     C_3   0.915253 0.851695 0.044937 -0.385409
C54   C     C_3   0.134360 0.149892 0.581751 -0.366576
C55   C     C_3   0.134400 0.149904 0.918255 -0.366587
C56   C     C_3   0.415290 0.351708 0.455051 -0.385417
C57   C     C_3   0.621349 0.817934 0.517882 -0.107362
C58   C     C_3   0.415294 0.351715 0.044944 -0.385430
C59   C     C_3   0.634401 0.649902 0.581746 -0.366587
C60   C     C_3   0.634271 0.649877 0.918236 -0.366555
C61   C     C_3   0.621418 0.817905 0.982104 -0.107355
C62   C     C_3   0.022058 0.725905 0.437892 0.060094
C63   C     C_3   0.022064 0.725904 0.062108 0.060094
C64   C     C_3   0.034027 0.273580 0.562489 0.064786
C65   C     C_R   0.318522 0.961834 0.856526 0.541521
C66   C     C_3   0.034024 0.273582 0.937513 0.064777
C67   C     C_3   0.522061 0.225906 0.437892 0.060096
C68   C     C_3   0.522041 0.225900 0.062108 0.060096
C69   C     C_3   0.534028 0.773582 0.562488 0.064778
C70   C     C_3   0.534025 0.773584 0.937511 0.064803
C71   C     C_R   0.320815 0.012511 0.427454 -0.028003
C72   C     C_R   0.320817 0.012519 0.072542 -0.028002
C73   C     C_R   0.320814 0.981025 0.570016 -0.027687
C74   C     C_R   0.320812 0.981035 0.929980 -0.027691
C75   C     C_R   0.820815 0.512513 0.427455 -0.028001
C76   C     C_R   0.318848 0.036030 0.355406 0.540434
C77   C     C_R   0.820818 0.512512 0.072545 -0.028002
C78   C     C_R   0.820813 0.481028 0.570017 -0.027689
C79   C     C_R   0.820814 0.481025 0.929984 -0.027689
C80   C     C_R   0.546595 0.990987 0.426156 -0.084621
C81   C     C_R   0.546600 0.991002 0.073834 -0.084638
C82   C     C_R   0.542274 0.009705 0.572340 -0.084121
C83   C     C_R   0.542271 0.009709 0.927650 -0.084098
C84   C     C_R   0.046595 0.490989 0.426158 -0.084625
C85   C     C_R   0.046599 0.490990 0.073839 -0.084627
C86   C     C_R   0.042273 0.509705 0.572341 -0.084115
C87   C     C_R   0.318849 0.036033 0.144593 0.540432
C88   C     C_R   0.042273 0.509709 0.927656 -0.084117
C89   C     C_R   0.655458 0.995832 0.463673 -0.131899
C90   C     C_R   0.655461 0.995835 0.036312 -0.131908
C91   C     C_R   0.652473 0.009486 0.536209 -0.147970
C92   C     C_R   0.652473 0.009484 0.963776 -0.147944
C93   C     C_R   0.155458 0.495832 0.463675 -0.131898
C94   C     C_R   0.155460 0.495839 0.036320 -0.131901
C95   C     C_R   0.152473 0.509485 0.536211 -0.147960
C96   C     C_R   0.152473 0.509494 0.963785 -0.147962
C97   C     C_R   0.432243 0.996094 0.535897 -0.010424
C98   C     C_R   0.818523 0.461831 0.643472 0.541522
C99   C     C_R   0.432241 0.996103 0.964096 -0.010422
C100  C     C_R   0.433018 0.997753 0.461722 -0.020430
C101  C     C_R   0.433021 0.997765 0.038271 -0.020424
C102  C     C_R   0.932242 0.496096 0.535898 -0.010424
C103  C     C_R   0.932244 0.496095 0.964100 -0.010426
C104  C     C_R   0.933018 0.497755 0.461723 -0.020428
C105  C     C_R   0.933021 0.497754 0.038276 -0.020436
C106  C     C_R   0.209232 0.980120 0.530947 -0.010558
C107  C     C_R   0.209230 0.980131 0.969050 -0.010556
C108  C     C_R   0.208888 0.013738 0.466913 0.000426
C109  C     C_R   0.818522 0.461830 0.856528 0.541520
C110  C     C_R   0.208890 0.013748 0.033085 0.000429
C111  C     C_R   0.709232 0.480124 0.530948 -0.010556
C112  C     C_R   0.709233 0.480119 0.969055 -0.010562
C113  C     C_R   0.708888 0.513741 0.466914 0.000429
C114  C     C_R   0.708892 0.513740 0.033088 0.000426
C115  C     C_R   0.094797 0.955271 0.556084 -0.082179
C116  C     C_R   0.094794 0.955284 0.943915 -0.082179
C117  C     C_R   0.096993 0.047852 0.447616 -0.079454
C118  C     C_R   0.096994 0.047860 0.052386 -0.079444
C119  C     C_R   0.594797 0.455276 0.556087 -0.082167
C120  C     C_R   0.818848 0.536031 0.355406 0.540434
C121  C     C_R   0.594798 0.455271 0.943921 -0.082180
C122  C     C_R   0.596992 0.547854 0.447616 -0.079453
C123  C     C_R   0.597000 0.547858 0.052385 -0.079446
C124  C     C_R   0.987012 0.985656 0.535691 -0.148142
C125  C     C_R   0.987010 0.985668 0.964312 -0.148128
C126  C     C_R   0.987652 0.033357 0.481734 -0.151895
C127  C     C_R   0.987651 0.033365 0.018271 -0.151874
C128  C     C_R   0.487013 0.485665 0.535698 -0.148122
C129  C     C_R   0.487013 0.485658 0.964316 -0.148152
C130  C     C_R   0.487652 0.533362 0.481738 -0.151885
C131  C     C_R   0.818849 0.536030 0.144594 0.540430
C132  C     C_R   0.487657 0.533363 0.018269 -0.151891
C133  C     C_R   0.136765 0.758796 0.642212 0.536272
C134  C     C_R   0.136767 0.758796 0.857788 0.536285
C135  C     C_R   0.131107 0.242494 0.355642 0.528670
C136  C     C_R   0.131112 0.242494 0.144358 0.528678
C137  C     C_R   0.636766 0.258796 0.642212 0.536275
C138  C     C_R   0.636767 0.258796 0.857789 0.536270
C139  C     C_R   0.631104 0.742496 0.355641 0.528670
C140  C     C_R   0.631110 0.742493 0.144355 0.528657
C141  C     C_R   0.501742 0.786246 0.637240 0.556615
C142  C     C_3   0.154280 0.730285 0.462931 -0.116332
C143  C     C_R   0.501734 0.786249 0.862760 0.556617
C144  C     C_R   0.496298 0.212412 0.362409 0.561809
C145  C     C_R   0.496278 0.212404 0.137592 0.561797
C146  C     C_R   0.001741 0.286247 0.637240 0.556616
C147  C     C_R   0.001740 0.286247 0.862760 0.556611
C148  C     C_R   0.996296 0.712411 0.362409 0.561805
C149  C     C_R   0.996298 0.712411 0.137591 0.561806
C150  C     C_3   0.989070 0.790223 0.481279 0.005770
C151  C     C_3   0.989051 0.790214 0.018717 0.005762
C152  C     C_3   0.087916 0.206986 0.532789 0.009255
Cr1   Cr    Cr6+3 0.488160 0.884660 0.750000 0.990313
Cr2   Cr    Cr6+3 0.333410 0.272740 0.250000 0.995183
Cr3   Cr    Cr6+3 0.833410 0.227260 0.750000 1.003971
Cr4   Cr    Cr6+3 0.833410 0.772740 0.250000 0.995189
Cr5   Cr    Cr6+3 0.488160 0.115340 0.250000 0.993114
Cr6   Cr    Cr6+3 0.988160 0.384660 0.750000 0.990313
Cr7   Cr    Cr6+3 0.988160 0.615340 0.250000 0.993118
Cr8   Cr    Cr6+3 0.173480 0.883120 0.750000 0.983727
Cr9   Cr    Cr6+3 0.173480 0.116880 0.250000 0.986133
Cr10  Cr    Cr6+3 0.673480 0.383120 0.750000 0.983727
Cr11  Cr    Cr6+3 0.673480 0.616880 0.250000 0.986138
Cr12  Cr    Cr6+3 0.333410 0.727260 0.750000 1.003963
H1    H     H_    0.176342 0.842860 0.504544 0.104818
H2    H     H_    0.904371 0.970684 0.937985 0.103027
H3    H     H_    0.903645 0.058059 0.465852 0.101995
H4    H     H_    0.903644 0.058063 0.034158 0.101988
H5    H     H_    0.404375 0.470681 0.562027 0.103030
H6    H     H_    0.404370 0.470674 0.937991 0.103041
H7    H     H_    0.403643 0.558061 0.465855 0.101989
H8    H     H_    0.403653 0.558071 0.034149 0.101996
H9    H     H_    0.877496 0.750784 0.582511 0.117577
H10   H     H_    0.877502 0.750752 0.917485 0.117575
H11   H     H_    0.932607 0.167673 0.449710 0.096898
H12   H     H_    0.176292 0.842880 0.995456 0.104824
H13   H     H_    0.932628 0.167668 0.050294 0.096897
H14   H     H_    0.377500 0.250777 0.582512 0.117577
H15   H     H_    0.377491 0.250791 0.917487 0.117579
H16   H     H_    0.432628 0.667666 0.449712 0.096898
H17   H     H_    0.432559 0.667693 0.050299 0.096895
H18   H     H_    0.930577 0.632697 0.497671 0.116401
H19   H     H_    0.930623 0.632681 0.002329 0.116417
H20   H     H_    0.846253 0.288597 0.518668 0.101331
H21   H     H_    0.846238 0.288565 0.981319 0.101332
H22   H     H_    0.430591 0.132694 0.497669 0.116405
H23   H     H_    0.267678 0.233485 0.473600 0.111620
H24   H     H_    0.430553 0.132699 0.002317 0.116393
H25   H     H_    0.346244 0.788572 0.518681 0.101338
H26   H     H_    0.346263 0.788676 0.981366 0.101301
H27   H     H_    0.183403 0.641942 0.546272 0.138484
H28   H     H_    0.183463 0.641956 0.953740 0.138474
H29   H     H_    0.994860 0.361855 0.422459 0.123608
H30   H     H_    0.994816 0.361855 0.077540 0.123607
H31   H     H_    0.683418 0.141947 0.546268 0.138482
H32   H     H_    0.683391 0.141940 0.953725 0.138487
H33   H     H_    0.494811 0.861852 0.422458 0.123602
H34   H     H_    0.267682 0.233517 0.026407 0.111634
H35   H     H_    0.494965 0.861871 0.077548 0.123612
H36   H     H_    0.234167 0.724302 0.427196 0.130046
H37   H     H_    0.234173 0.724337 0.072811 0.130038
H38   H     H_    0.172997 0.362436 0.539261 0.137190
H39   H     H_    0.172959 0.362455 0.960747 0.137193
H40   H     H_    0.734169 0.224314 0.427193 0.130045
H41   H     H_    0.734156 0.224293 0.072802 0.130052
H42   H     H_    0.672959 0.862455 0.539255 0.137195
H43   H     H_    0.673069 0.862413 0.960729 0.137165
H44   H     H_    0.741209 0.991154 0.435764 0.110062
H45   H     H_    0.676333 0.342865 0.504545 0.104821
H46   H     H_    0.741213 0.991153 0.064218 0.110060
H47   H     H_    0.734168 0.021352 0.565178 0.099050
H48   H     H_    0.734165 0.021346 0.934802 0.099046
H49   H     H_    0.241209 0.491153 0.435766 0.110060
H50   H     H_    0.241212 0.491164 0.064228 0.110063
H51   H     H_    0.234166 0.521351 0.565180 0.099047
H52   H     H_    0.234167 0.521362 0.934814 0.099046
H53   H     H_    0.553253 0.979701 0.370020 0.136301
H54   H     H_    0.553264 0.979719 0.129970 0.136304
H55   H     H_    0.544853 0.023337 0.628035 0.140016
H56   H     H_    0.676338 0.342857 0.995462 0.104821
H57   H     H_    0.544848 0.023342 0.871954 0.140009
H58   H     H_    0.053254 0.479704 0.370021 0.136301
H59   H     H_    0.053258 0.479704 0.129976 0.136302
H60   H     H_    0.044852 0.523338 0.628036 0.140013
H61   H     H_    0.044850 0.523341 0.871960 0.140017
H62   H     H_    0.091328 0.089657 0.410511 0.181036
H63   H     H_    0.091330 0.089662 0.089494 0.181036
H64   H     H_    0.084730 0.912520 0.592014 0.180183
H65   H     H_    0.084720 0.912533 0.907985 0.180171
H66   H     H_    0.591324 0.589656 0.410508 0.181035
H67   H     H_    0.767685 0.733516 0.473591 0.111640
H68   H     H_    0.591342 0.589668 0.089485 0.181037
H69   H     H_    0.584727 0.412524 0.592015 0.180176
H70   H     H_    0.584729 0.412521 0.907991 0.180179
H71   H     H_    0.842938 0.835403 0.418600 0.184583
H72   H     H_    0.869773 0.875987 0.500864 0.110062
H73   H     H_    0.975214 0.888716 0.426668 0.162382
H74   H     H_    0.842826 0.835366 0.081335 0.184547
H75   H     H_    0.975121 0.888672 0.073381 0.162384
H76   H     H_    0.869812 0.875995 0.999120 0.110048
H77   H     H_    0.176124 0.173059 0.629947 0.144904
H78   H     H_    0.767672 0.733425 0.026386 0.111591
H79   H     H_    0.058244 0.115903 0.598233 0.169163
H80   H     H_    0.207059 0.120254 0.554749 0.125976
H81   H     H_    0.176160 0.173073 0.870059 0.144902
H82   H     H_    0.207105 0.120272 0.945260 0.125961
H83   H     H_    0.058294 0.115907 0.901773 0.169168
H84   H     H_    0.342882 0.335387 0.418639 0.184543
H85   H     H_    0.369822 0.376008 0.500859 0.110060
H86   H     H_    0.475174 0.388685 0.426619 0.162384
H87   H     H_    0.342921 0.335405 0.081393 0.184570
H88   H     H_    0.475201 0.388714 0.073337 0.162386
H89   H     H_    0.904371 0.970669 0.562017 0.103041
H90   H     H_    0.369775 0.375988 0.999132 0.110058
H91   H     H_    0.676169 0.673071 0.629940 0.144894
H92   H     H_    0.558293 0.615909 0.598233 0.169168
H93   H     H_    0.707098 0.620267 0.554740 0.125969
H94   H     H_    0.676019 0.673039 0.870032 0.144928
H95   H     H_    0.706980 0.620232 0.945221 0.125990
H96   H     H_    0.558134 0.615896 0.901766 0.169151
O1    O     O_R   0.575450 0.828820 0.667950 -0.523217
O2    O     O_R   0.416860 0.942890 0.825320 -0.524172
O3    O     O_R   0.416860 0.057110 0.325320 -0.528244
O4    O     O_R   0.416860 0.057110 0.174680 -0.528256
O5    O     O_R   0.916860 0.442890 0.674680 -0.524172
O6    O     O_R   0.916860 0.442890 0.825320 -0.524173
O7    O     O_R   0.916860 0.557110 0.325320 -0.528246
O8    O     O_R   0.916860 0.557110 0.174680 -0.528247
O9    O     O_R   0.213790 0.953680 0.668330 -0.535444
O10   O     O_R   0.213790 0.953680 0.831670 -0.535448
O11   O     O_R   0.213790 0.046320 0.331670 -0.531854
O12   O     O_R   0.575450 0.828820 0.832050 -0.523212
O13   O     O_R   0.213790 0.046320 0.168330 -0.531854
O14   O     O_R   0.713790 0.453680 0.668330 -0.535446
O15   O     O_R   0.713790 0.453680 0.831670 -0.535443
O16   O     O_R   0.713790 0.546320 0.331670 -0.531857
O17   O     O_R   0.713790 0.546320 0.168330 -0.531851
O18   O     O_R   0.121360 0.817890 0.672660 -0.527841
O19   O     O_R   0.121360 0.817890 0.827340 -0.527836
O20   O     O_R   0.121360 0.182110 0.327340 -0.526942
O21   O     O_R   0.121360 0.182110 0.172660 -0.526953
O22   O     O_R   0.621360 0.317890 0.672660 -0.527840
O23   O     O_R   0.575450 0.171180 0.332050 -0.513762
O24   O     O_R   0.621360 0.317890 0.827340 -0.527837
O25   O     O_R   0.621360 0.682110 0.327340 -0.526943
O26   O     O_R   0.621360 0.682110 0.172660 -0.526943
O27   O     O_R   0.206850 0.711370 0.665820 -0.531548
O28   O     O_R   0.206850 0.711370 0.834180 -0.531547
O29   O     O_R   0.206850 0.288630 0.334180 -0.544495
O30   O     O_R   0.206850 0.288630 0.165820 -0.544512
O31   O     O_R   0.706850 0.211370 0.665820 -0.531546
O32   O     O_R   0.706850 0.211370 0.834180 -0.531547
O33   O     O_R   0.706850 0.788630 0.334180 -0.544503
O34   O     O_R   0.575450 0.171180 0.167950 -0.513758
O35   O     O_R   0.706850 0.788630 0.165820 -0.544495
O36   O     O_R   0.457710 0.733190 0.672630 -0.503867
O37   O     O_R   0.457710 0.733190 0.827370 -0.503884
O38   O     O_R   0.457710 0.266810 0.327370 -0.503158
O39   O     O_R   0.457710 0.266810 0.172630 -0.503160
O40   O     O_R   0.957710 0.233190 0.672630 -0.503871
O41   O     O_R   0.957710 0.233190 0.827370 -0.503867
O42   O     O_R   0.957710 0.766810 0.327370 -0.503172
O43   O     O_R   0.957710 0.766810 0.172630 -0.503147
O44   O     O_3   0.331690 0.831680 0.750000 -0.293550
O45   O     O_R   0.075450 0.328820 0.667950 -0.523215
O46   O     O_3   0.331690 0.168320 0.250000 -0.296629
O47   O     O_3   0.831690 0.331680 0.750000 -0.293550
O48   O     O_3   0.831690 0.668320 0.250000 -0.296617
O49   O     O_R   0.075450 0.328820 0.832050 -0.523214
O50   O     O_R   0.075450 0.671180 0.332050 -0.513762
O51   O     O_R   0.075450 0.671180 0.167950 -0.513765
O52   O     O_R   0.416860 0.942890 0.674680 -0.524174

loop_
_geom_bond_atom_site_label_1
_geom_bond_atom_site_label_2
_ccdc_geom_bond_type
C46   H41   S    
C6    C32   S    
Cr6   O6    S    
C41   C50   S    
C65   O2    A    
C21   C137  S    
C110  C118  A    
C58   H87   S    
C56   H84   S    
C64   C152  S    
C134  O19   A    
C72   C101  A    
C98   O5    A    
C9    H12   S    
C60   H94   S    
C113  C122  A    
C134  O28   A    
C4    C12   S    
C117  C126  A    
Cr7   O48   S    
Cr5   O23   S    
C21   C48   S    
C119  C128  A    
C80   C89   A    
C120  O7    A    
C29   H13   S    
C71   C108  A    
C4    C56   S    
C7    C33   S    
C14   H56   S    
C140  O35   A    
C53   H76   S    
Cr11  O16   S    
Cr2   O46   S    
C11   C20   S    
C94   H50   S    
C79   C109  S    
C59   H91   S    
C135  O20   A    
C25   C140  S    
Cr8   O18   S    
C126  H3    S    
C54   C152  S    
C26   H9    S    
Cr3   O40   S    
C82   C91   A    
Cr5   O34   S    
C8    C150  S    
C17   C43   S    
C18   C44   S    
C42   H26   S    
C90   C92   A    
C130  H7    S    
C56   H85   S    
C111  C113  A    
C94   C96   A    
C135  O29   A    
Cr9   O13   S    
C22   C49   S    
C81   C90   A    
Cr5   O3    S    
Cr3   O47   S    
C137  O22   A    
C17   C133  S    
C118  H63   S    
C107  C110  A    
C36   C44   S    
C37   C45   S    
C52   H72   S    
C41   C69   S    
C21   C30   S    
C16   C25   S    
C9    C151  S    
C97   C100  A    
C62   C150  S    
Cr12  O27   S    
C64   C146  S    
Cr9   O46   S    
C50   C57   S    
C141  O1    A    
C124  H89   S    
Cr9   O20   S    
C145  O39   A    
C28   H11   S    
C146  O40   A    
C8    C17   S    
C96   H52   S    
C41   H25   S    
C106  C115  A    
C60   H96   S    
C44   H28   S    
C13   C45   S    
Cr1   O44   S    
C58   H90   S    
C84   C93   A    
C20   C47   S    
C3    C11   S    
C86   C95   A    
C83   H57   S    
C121  H70   S    
C125  C127  A    
C32   H16   S    
C43   C142  S    
C132  H8    S    
C69   C141  S    
C16   H78   S    
C6    C69   S    
C147  O41   A    
C123  C132  A    
C112  C114  A    
C81   C101  A    
C13   H38   S    
C70   C143  S    
C5    C58   S    
C33   C42   S    
C12   H45   S    
Cr12  O44   S    
C1    O9    A    
C40   C49   S    
C76   O11   A    
C42   C70   S    
C111  C119  A    
C77   C131  S    
C3    C29   S    
C98   O14   A    
C74   C107  A    
C3    C55   S    
C119  H69   S    
C148  O42   A    
C123  H68   S    
C146  O45   A    
C2    C44   S    
C149  O43   A    
C29   C38   S    
C32   C41   S    
C78   C111  A    
C75   C113  A    
C89   C91   A    
Cr1   O1    S    
Cr11  O26   S    
C128  H5    S    
C93   C95   A    
C62   C148  S    
C79   C103  A    
Cr10  O47   S    
C62   C142  S    
C27   H10   S    
C120  O16   A    
C117  H62   S    
C129  H6    S    
C90   H46   S    
C91   H47   S    
C80   H53   S    
C141  O36   A    
Cr11  O17   S    
Cr7   O8    S    
C57   H42   S    
C65   C74   S    
C46   C68   S    
C65   O10   A    
C35   C67   S    
Cr3   O41   S    
C144  O23   A    
C99   C101  A    
C30   H14   S    
C103  C105  A    
C36   H19   S    
C20   C136  S    
C12   C35   S    
C19   C28   S    
Cr12  O37   S    
C114  C123  A    
C1    O52   A    
C116  C125  A    
C48   H31   S    
C84   C104  A    
C92   H48   S    
C118  C127  A    
C86   C102  A    
C72   C87   S    
C2    C63   S    
C124  C126  A    
Cr4   O35   S    
C15   H67   S    
C108  C117  A    
C75   C120  S    
C19   C45   S    
C40   H24   S    
Cr2   O29   S    
C54   H79   S    
C14   C22   S    
C11   H34   S    
C112  C121  A    
C136  O30   A    
Cr10  O14   S    
C106  C108  A    
C28   C37   S    
C30   C39   S    
C18   C134  S    
C107  C116  A    
C8    H1    S    
C9    C18   S    
Cr2   O38   S    
C52   C150  S    
C16   C61   S    
C138  O24   A    
C53   C151  S    
C87   O13   A    
C140  O26   A    
C2    C9    S    
C25   C33   S    
C61   C70   S    
C88   C96   A    
C24   H39   S    
Cr3   O32   S    
C78   C102  A    
Cr4   O42   S    
C53   H75   S    
C7    C70   S    
C14   C46   S    
C46   C49   S    
Cr8   O9    S    
C79   C112  A    
C145  O34   A    
Cr7   O50   S    
C71   C76   S    
Cr9   O21   S    
C35   H40   S    
C67   C144  S    
C19   C135  S    
C34   C62   S    
C31   C40   S    
Cr11  O48   S    
C138  O32   A    
C10   C152  S    
C39   H22   S    
C127  H4    S    
C55   H82   S    
C56   H86   S    
C24   C66   S    
C129  C132  A    
Cr6   O5    S    
C83   C99   A    
C2    H37   S    
C5    C68   S    
C35   C48   S    
C6    C59   S    
C50   H33   S    
C45   H29   S    
Cr12  O28   S    
C93   H49   S    
C54   H77   S    
C26   C150  S    
C23   C50   S    
C131  O8    A    
C133  O18   A    
C31   H15   S    
C10   C19   S    
C147  O49   A    
C136  O21   A    
Cr8   O44   S    
C63   C151  S    
C5    C14   S    
C61   H43   S    
Cr4   O33   S    
C7    C16   S    
Cr5   O46   S    
C33   H17   S    
C75   C104  A    
Cr6   O49   S    
C3    C66   S    
C77   C114  A    
C7    C60   S    
Cr12  O36   S    
C37   C64   S    
C143  O37   A    
C27   C151  S    
C115  C124  A    
C59   H92   S    
C142  H36   S    
C121  C129  A    
C128  C130  A    
C74   C99   A    
C49   H32   S    
Cr10  O24   S    
C27   C36   S    
C71   C100  A    
C22   C138  S    
C1    C73   S    
C23   C32   S    
C77   C105  A    
C115  H64   S    
C13   C64   S    
C131  O17   A    
Cr5   O4    S    
C40   C68   S    
C59   H93   S    
C8    C142  S    
C68   C145  S    
C52   H71   S    
C39   C48   S    
Cr11  O25   S    
C116  H65   S    
C95   H51   S    
C47   H30   S    
C58   H88   S    
C51   C61   S    
Cr9   O11   S    
C73   C97   A    
C83   C92   A    
Cr4   O48   S    
C17   C26   S    
C60   H95   S    
C23   C139  S    
C89   H44   S    
Cr7   O7    S    
C11   C24   S    
C139  O25   A    
C137  O31   A    
C63   C149  S    
Cr7   O51   S    
C6    C15   S    
C26   C34   S    
C38   C66   S    
C133  O27   A    
C78   C98   S    
Cr6   O47   S    
Cr4   O43   S    
C36   C63   S    
Cr1   O52   S    
C42   C51   S    
C85   C94   A    
C15   C23   S    
C43   H27   S    
C55   H83   S    
C80   C100  A    
C15   C57   S    
Cr8   O19   S    
C86   H60   S    
C85   C105  A    
C20   C29   S    
Cr10  O22   S    
C122  H66   S    
C72   C110  A    
C22   C31   S    
C82   H55   S    
C143  O12   A    
C139  O33   A    
C37   H20   S    
C12   C21   S    
Cr2   O30   S    
C54   H80   S    
C25   C51   S    
C85   H59   S    
Cr10  O15   S    
C88   H61   S    
C10   H23   S    
C66   C147  S    
C102  C104  A    
Cr1   O2    S    
C38   C47   S    
C109  O15   A    
C51   H35   S    
C52   H73   S    
C76   O3    A    
Cr2   O39   S    
C28   C152  S    
C88   C103  A    
C148  O50   A    
C149  O51   A    
Cr3   O31   S    
C24   C47   S    
C39   C67   S    
C18   C27   S    
C109  O6    A    
C10   C13   S    
C53   H74   S    
C4    C67   S    
C38   H21   S    
Cr8   O10   S    
C125  H2    S    
C73   C106  A    
C84   H58   S    
C81   H54   S    
C82   C97   A    
Cr6   O45   S    
C34   H18   S    
Cr1   O12   S    
C144  O38   A    
C55   H81   S    
C57   C69   S    
C34   C43   S    
C87   O4    A    
C122  C130  A    
C4    C30   S    
C5    C31   S    
