data_mof_unit_66514.cif
_audit_creation_date              2012-12-10T19:11:08-0500
_audit_creation_method            fapswitch 2.2
_symmetry_space_group_name_H-M    P1
_symmetry_Int_Tables_number       1
_space_group_crystal_system       triclinic
_cell_length_a                    37.122224
_cell_length_b                    30.297938
_cell_length_c                    21.611601
_cell_angle_alpha                 90.0
_cell_angle_beta                  54.585049
_cell_angle_gamma                 89.999955
_cell_volume                      19809.7568017

loop_
_atom_site_label
_atom_site_type_symbol
_atom_type_description
_atom_site_fract_x
_atom_site_fract_y
_atom_site_fract_z
_atom_type_partial_charge
C1    C     C_R   0.086261 0.500002 0.413724 0.864429
C2    C     C_R   0.913739 0.500002 0.586276 0.864425
C3    C     C_R   0.586261 0.000002 0.413724 0.864432
C4    C     C_R   0.413739 0.000002 0.586276 0.864425
C5    C     C_R   0.999553 0.498534 0.813833 -0.223930
C6    C     C_R   0.000447 0.498534 0.186167 -0.223932
C7    C     C_R   0.499552 0.998534 0.813833 -0.223929
C8    C     C_R   0.500448 0.998534 0.186167 -0.223932
C9    C     C_R   0.030272 0.472549 0.750340 0.041923
C10   C     C_R   0.969727 0.472550 0.249660 0.041922
C11   C     C_R   0.530271 0.972548 0.750342 0.041921
C12   C     C_R   0.469728 0.972548 0.249659 0.041922
C13   C     C_R   0.029589 0.473890 0.687060 -0.152815
C14   C     C_R   0.970410 0.473891 0.312940 -0.152815
C15   C     C_R   0.529588 0.973889 0.687062 -0.152817
C16   C     C_R   0.470411 0.973890 0.312939 -0.152817
C17   C     C_R   0.998580 0.499997 0.687391 -0.185268
C18   C     C_R   0.001420 0.499997 0.312609 -0.185267
C19   C     C_R   0.498580 0.999997 0.687392 -0.185269
C20   C     C_R   0.501420 0.999997 0.312608 -0.185269
C21   C     C_R   0.967184 0.525042 0.751126 -0.108338
C22   C     C_R   0.032817 0.525042 0.248874 -0.108337
C23   C     C_R   0.467184 0.025044 0.751125 -0.108336
C24   C     C_R   0.532816 0.025042 0.248874 -0.108335
C25   C     C_R   0.107629 0.448981 0.699083 0.578702
C26   C     C_R   0.892371 0.448982 0.300918 0.578700
C27   C     C_R   0.607625 0.948975 0.699089 0.578705
C28   C     C_R   0.392373 0.948977 0.300914 0.578702
C29   C     C_R   0.137053 0.419867 0.698661 0.615531
C30   C     C_R   0.862946 0.419868 0.301340 0.615533
C31   C     C_R   0.637048 0.919859 0.698667 0.615529
C32   C     C_R   0.362950 0.919861 0.301335 0.615531
C33   C     C_R   0.120966 0.383753 0.748066 -0.271108
C34   C     C_R   0.879033 0.383754 0.251935 -0.271109
C35   C     C_R   0.620958 0.883745 0.748073 -0.271096
C36   C     C_R   0.379039 0.883748 0.251930 -0.271099
C37   C     C_R   0.075473 0.376599 0.797910 -0.196051
C38   C     C_R   0.924526 0.376600 0.202091 -0.196049
C39   C     C_R   0.575465 0.876594 0.797915 -0.196053
C40   C     C_R   0.424532 0.876596 0.202087 -0.196050
C41   C     C_R   0.045940 0.405712 0.798887 -0.236270
C42   C     C_R   0.954059 0.405713 0.201113 -0.236270
C43   C     C_R   0.545934 0.905709 0.798892 -0.236281
C44   C     C_R   0.454064 0.905711 0.201109 -0.236279
C45   C     C_R   0.999291 0.500005 0.620713 0.924476
C46   C     C_R   0.000708 0.500005 0.379287 0.924476
C47   C     C_R   0.499291 0.000005 0.620713 0.924476
C48   C     C_R   0.500709 0.000005 0.379287 0.924476
C49   C     C_R   0.061783 0.442177 0.749694 -0.083852
C50   C     C_R   0.938216 0.442178 0.250307 -0.083850
C51   C     C_R   0.561779 0.942174 0.749698 -0.083853
C52   C     C_R   0.438220 0.942175 0.250303 -0.083850
C53   C     C_R   0.203178 0.462214 0.279525 -0.095054
C54   C     C_R   0.796822 0.462215 0.720481 -0.095040
C55   C     C_R   0.703178 0.962213 0.279525 -0.095060
C56   C     C_R   0.296822 0.962215 0.720480 -0.095050
C57   C     C_R   0.157362 0.461930 0.325707 -0.146995
C58   C     C_R   0.842638 0.461932 0.674299 -0.146992
C59   C     C_R   0.657362 0.961930 0.325707 -0.146999
C60   C     C_R   0.342638 0.961931 0.674298 -0.146993
C61   C     C_R   0.134214 0.500101 0.365858 -0.040810
C62   C     C_R   0.865786 0.500101 0.634143 -0.040809
C63   C     C_R   0.634214 0.000101 0.365857 -0.040811
C64   C     C_R   0.365786 0.000101 0.634143 -0.040807
C65   C     C_R   0.157179 0.538500 0.359652 -0.176855
C66   C     C_R   0.842821 0.538499 0.640342 -0.176847
C67   C     C_R   0.657179 0.038501 0.359651 -0.176858
C68   C     C_R   0.342821 0.038499 0.640343 -0.176843
C69   C     C_R   0.202979 0.538614 0.313992 -0.024914
C70   C     C_R   0.797021 0.538613 0.686002 -0.024918
C71   C     C_R   0.702979 0.038615 0.313990 -0.024918
C72   C     C_R   0.297021 0.038614 0.686004 -0.024909
C73   C     C_R   0.225933 0.500467 0.274050 0.183892
C74   C     C_R   0.774067 0.500467 0.725950 0.183891
C75   C     C_R   0.725933 0.000467 0.274050 0.183892
C76   C     C_R   0.274067 0.000467 0.725950 0.183891
C77   C     C_R   0.296966 0.510399 0.257722 0.659887
C78   C     C_R   0.703034 0.510392 0.742275 0.659890
C79   C     C_R   0.796966 0.010399 0.257722 0.659889
C80   C     C_R   0.203034 0.010393 0.742276 0.659890
C81   C     C_R   0.342783 0.510074 0.211747 -0.247275
C82   C     C_R   0.657217 0.510067 0.788250 -0.247275
C83   C     C_R   0.842783 0.010074 0.211747 -0.247279
C84   C     C_R   0.157217 0.010068 0.788251 -0.247277
C85   C     C_R   0.365635 0.500290 0.134243 -0.131633
C86   C     C_R   0.634365 0.500290 0.865756 -0.131634
C87   C     C_R   0.865635 0.000290 0.134243 -0.131631
C88   C     C_R   0.134365 0.000290 0.865757 -0.131633
C89   C     C_R   0.903719 0.616371 0.734544 -0.226279
C90   C     C_R   0.096284 0.616368 0.265456 -0.226279
C91   C     C_R   0.403721 0.116374 0.734542 -0.226282
C92   C     C_R   0.596283 0.116367 0.265461 -0.226283
C93   C     C_R   0.342311 0.490656 0.103063 -0.160286
C94   C     C_R   0.657689 0.490663 0.896939 -0.160288
C95   C     C_R   0.842311 0.990657 0.103063 -0.160285
C96   C     C_R   0.157689 0.990662 0.896939 -0.160288
C97   C     C_R   0.296487 0.490572 0.149165 -0.209169
C98   C     C_R   0.703513 0.490579 0.850838 -0.209174
C99   C     C_R   0.796487 0.990572 0.149164 -0.209169
C100  C     C_R   0.203513 0.990578 0.850837 -0.209172
C101  C     C_R   0.273826 0.500569 0.226353 -0.073648
C102  C     C_R   0.726174 0.500569 0.773647 -0.073652
C103  C     C_R   0.773826 0.000569 0.226352 -0.073647
C104  C     C_R   0.226174 0.000569 0.773647 -0.073651
C105  C     C_R   1.000000 0.413755 0.000000 0.937338
C106  C     C_R   0.500000 0.913755 0.000000 0.937335
C107  C     C_R   0.999910 0.499387 0.879846 0.931160
C108  C     C_R   0.000089 0.499387 0.120154 0.931160
C109  C     C_R   0.499910 0.999387 0.879846 0.931158
C110  C     C_R   0.500089 0.999387 0.120154 0.931158
C111  C     C_R   1.000000 0.586284 0.000000 0.935821
C112  C     C_R   0.500000 0.086284 0.000000 0.935822
C113  C     C_R   0.500000 0.413650 0.000000 0.973332
C114  C     C_R   1.000000 0.913650 0.000000 0.973325
C115  C     C_R   0.413659 0.500059 0.086255 0.901277
C116  C     C_R   0.586341 0.500059 0.913745 0.901282
C117  C     C_R   0.913659 0.000059 0.086255 0.901276
C118  C     C_R   0.086341 0.000059 0.913745 0.901280
C119  C     C_R   0.500000 0.586317 1.000000 0.857320
C120  C     C_R   1.000000 0.086318 0.000000 0.857318
C121  C     C_R   0.030519 0.296843 0.005987 -0.211115
C122  C     C_R   0.969483 0.296843 0.994011 -0.211116
C123  C     C_R   0.530524 0.796843 0.005973 -0.211129
C124  C     C_R   0.469477 0.796843 0.994027 -0.211129
C125  C     C_R   0.937727 0.593518 0.730617 -0.051851
C126  C     C_R   0.062275 0.593515 0.269383 -0.051852
C127  C     C_R   0.437729 0.093520 0.730616 -0.051849
C128  C     C_R   0.562274 0.093515 0.269388 -0.051853
C129  C     C_R   0.030808 0.342588 0.005981 0.323489
C130  C     C_R   0.969193 0.342588 0.994018 0.323487
C131  C     C_R   0.530812 0.842588 0.005970 0.323496
C132  C     C_R   0.469188 0.842588 0.994031 0.323495
C133  C     C_R   0.000000 0.365843 0.000000 -0.248231
C134  C     C_R   0.500000 0.865843 0.000000 -0.248238
C135  C     C_R   0.000001 0.273998 0.999999 -0.044487
C136  C     C_R   0.500000 0.773998 1.000000 -0.044473
C137  C     C_R   0.500731 0.703118 0.055468 -0.157126
C138  C     C_R   0.499270 0.703118 0.944531 -0.157128
C139  C     C_R   0.000705 0.203119 0.055496 -0.157124
C140  C     C_R   0.999298 0.203119 0.944501 -0.157124
C141  C     C_R   0.500703 0.657389 0.055530 -0.178138
C142  C     C_R   0.499297 0.657389 0.944469 -0.178137
C143  C     C_R   0.000676 0.157389 0.055559 -0.178136
C144  C     C_R   0.999325 0.157389 0.944440 -0.178136
C145  C     C_R   0.500000 0.634302 1.000000 -0.038171
C146  C     C_R   0.000000 0.134302 1.000000 -0.038171
C147  C     C_R   0.500000 0.726047 1.000000 0.157862
C148  C     C_R   0.000002 0.226047 0.999998 0.157852
C149  C     C_R   0.040235 0.703135 0.955901 0.380442
C150  C     C_R   0.959765 0.703135 0.044098 0.380442
C151  C     C_R   0.540235 0.203135 0.955898 0.380442
C152  C     C_R   0.459765 0.203135 0.044102 0.380442
C153  C     C_R   0.040048 0.657356 0.956175 -0.204524
C154  C     C_R   0.959952 0.657356 0.043825 -0.204524
C155  C     C_R   0.540048 0.157356 0.956172 -0.204523
C156  C     C_R   0.459952 0.157356 0.043828 -0.204523
C157  C     C_R   1.000000 0.634305 0.000000 -0.174288
C158  C     C_R   0.500000 0.134305 0.000000 -0.174288
C159  C     C_R   0.931506 0.549473 0.754841 0.090903
C160  C     C_R   0.068496 0.549471 0.245158 0.090898
C161  C     C_R   0.431507 0.049475 0.754840 0.090907
C162  C     C_R   0.568495 0.049471 0.245158 0.090892
C163  C     C_R   1.000000 0.726074 0.000000 -0.056615
C164  C     C_R   0.500000 0.226074 0.000000 -0.056613
C165  C     C_R   0.485953 0.296534 0.961376 -0.149393
C166  C     C_R   0.514047 0.296534 0.038625 -0.149392
C167  C     C_R   0.985956 0.796534 0.961370 -0.149393
C168  C     C_R   0.014044 0.796534 0.038630 -0.149393
C169  C     C_R   0.485839 0.342283 0.961281 0.586168
C170  C     C_R   0.514161 0.342283 0.038719 0.586168
C171  C     C_R   0.985842 0.842283 0.961275 0.586169
C172  C     C_R   0.014158 0.842283 0.038725 0.586171
C173  C     C_R   0.500000 0.365548 0.000000 -0.348770
C174  C     C_R   1.000000 0.865548 0.000000 -0.348777
C175  C     C_R   0.500000 0.273861 0.000000 -0.003014
C176  C     C_R   1.000000 0.773860 0.000000 -0.003011
C177  C     C_R   0.890840 0.528731 0.783931 -0.230059
C178  C     C_R   0.109161 0.528729 0.216065 -0.230053
C179  C     C_R   0.390842 0.028734 0.783929 -0.230062
C180  C     C_R   0.609161 0.028731 0.216061 -0.230048
C181  C     C_R   0.856713 0.551865 0.788720 0.682575
C182  C     C_R   0.143289 0.551862 0.211276 0.682578
C183  C     C_R   0.356715 0.051869 0.788717 0.682576
C184  C     C_R   0.643289 0.051863 0.211272 0.682582
C185  C     C_R   0.863242 0.595576 0.763597 -0.197215
C186  C     C_R   0.136760 0.595572 0.236400 -0.197221
C187  C     C_R   0.363245 0.095580 0.763594 -0.197215
C188  C     C_R   0.636760 0.095572 0.236401 -0.197224
C189  C     C_R   0.968096 0.524428 0.814252 0.604563
C190  C     C_R   0.031905 0.524427 0.185747 0.604564
C191  C     C_R   0.468097 0.024430 0.814251 0.604561
C192  C     C_R   0.531904 0.024428 0.185748 0.604563
H1    H     H_    0.836922 0.613384 0.766829 0.166502
H2    H     H_    0.163082 0.613379 0.233168 0.166501
H3    H     H_    0.336924 0.113388 0.766826 0.166502
H4    H     H_    0.663081 0.113379 0.233170 0.166502
H5    H     H_    0.143740 0.361208 0.747599 0.206339
H6    H     H_    0.856259 0.361210 0.252402 0.206340
H7    H     H_    0.643731 0.861199 0.747606 0.206340
H8    H     H_    0.356266 0.861202 0.252396 0.206341
H9    H     H_    0.063122 0.348421 0.835645 0.190595
H10   H     H_    0.936876 0.348422 0.164355 0.190595
H11   H     H_    0.563113 0.848415 0.835651 0.190596
H12   H     H_    0.436884 0.848417 0.164351 0.190596
H13   H     H_    0.010771 0.399776 0.837543 0.204076
H14   H     H_    0.989227 0.399776 0.162457 0.204074
H15   H     H_    0.510765 0.899774 0.837547 0.204071
H16   H     H_    0.489233 0.899775 0.162454 0.204068
H17   H     H_    0.220918 0.432620 0.248613 0.145158
H18   H     H_    0.779082 0.432623 0.751398 0.145157
H19   H     H_    0.720918 0.932620 0.248614 0.145159
H20   H     H_    0.279082 0.932622 0.751395 0.145158
H21   H     H_    0.140110 0.432104 0.329460 0.160867
H22   H     H_    0.859890 0.432106 0.670550 0.160863
H23   H     H_    0.640111 0.932103 0.329461 0.160868
H24   H     H_    0.359890 0.932106 0.670548 0.160864
H25   H     H_    0.139799 0.568288 0.390220 0.162237
H26   H     H_    0.860201 0.568286 0.609770 0.162236
H27   H     H_    0.639799 0.068289 0.390218 0.162237
H28   H     H_    0.360201 0.068286 0.609772 0.162233
H29   H     H_    0.220545 0.568419 0.309268 0.150711
H30   H     H_    0.779455 0.568417 0.690722 0.150708
H31   H     H_    0.720545 0.068420 0.309265 0.150710
H32   H     H_    0.279454 0.068417 0.690724 0.150707
H33   H     H_    0.360302 0.517648 0.236712 0.196066
H34   H     H_    0.639698 0.517635 0.763282 0.196070
H35   H     H_    0.860302 0.017647 0.236713 0.196065
H36   H     H_    0.139698 0.017637 0.763284 0.196068
H37   H     H_    0.359417 0.482869 0.043383 0.190562
H38   H     H_    0.640583 0.482882 0.956621 0.190562
H39   H     H_    0.859418 0.982869 0.043383 0.190561
H40   H     H_    0.140583 0.982880 0.956620 0.190561
H41   H     H_    0.908678 0.650250 0.715337 0.173988
H42   H     H_    0.091325 0.650246 0.284664 0.173988
H43   H     H_    0.408681 0.150253 0.715335 0.173988
H44   H     H_    0.591324 0.150244 0.284674 0.173988
H45   H     H_    0.278651 0.483067 0.124726 0.203194
H46   H     H_    0.721349 0.483080 0.875278 0.203199
H47   H     H_    0.778651 0.983067 0.124725 0.203195
H48   H     H_    0.221349 0.983078 0.875277 0.203195
H49   H     H_    0.054311 0.279026 0.010261 0.188551
H50   H     H_    0.945691 0.279025 0.989737 0.188551
H51   H     H_    0.554321 0.779027 0.010235 0.188545
H52   H     H_    0.445679 0.779027 0.989765 0.188545
H53   H     H_    0.500873 0.720615 0.099050 0.147758
H54   H     H_    0.499128 0.720615 0.900949 0.147757
H55   H     H_    0.000826 0.220617 0.099098 0.147762
H56   H     H_    0.999177 0.220617 0.900899 0.147762
H57   H     H_    0.501174 0.640206 0.099001 0.170184
H58   H     H_    0.498826 0.640206 0.900999 0.170184
H59   H     H_    0.001124 0.140207 0.099054 0.170183
H60   H     H_    0.998877 0.140207 0.900946 0.170183
H61   H     H_    0.071217 0.639918 0.921810 0.215269
H62   H     H_    0.928783 0.639918 0.078189 0.215269
H63   H     H_    0.571216 0.139918 0.921805 0.215269
H64   H     H_    0.428783 0.139918 0.078195 0.215269
H65   H     H_    0.474999 0.278685 0.931619 0.195597
H66   H     H_    0.525001 0.278685 0.068381 0.195597
H67   H     H_    0.975005 0.778685 0.931609 0.195596
H68   H     H_    0.024995 0.778685 0.068391 0.195596
H69   H     H_    0.968898 0.609940 0.708381 0.154496
H70   H     H_    0.031104 0.609939 0.291621 0.154496
H71   H     H_    0.468900 0.109942 0.708380 0.154495
H72   H     H_    0.531102 0.109937 0.291630 0.154497
H73   H     H_    0.885597 0.494808 0.803170 0.169477
H74   H     H_    0.114404 0.494806 0.196825 0.169479
H75   H     H_    0.385598 0.994811 0.803168 0.169475
H76   H     H_    0.614405 0.994809 0.196816 0.169481
H77   H     H_    0.053025 0.454221 0.637539 0.176944
H78   H     H_    0.946974 0.454222 0.362462 0.176945
H79   H     H_    0.553023 0.954218 0.637541 0.176945
H80   H     H_    0.446976 0.954220 0.362460 0.176946
O1    O     O_R   0.065470 0.536950 0.434540 -0.624297
O2    O     O_R   0.934530 0.536950 0.565460 -0.624297
O3    O     O_R   0.565470 0.036950 0.434540 -0.624297
O4    O     O_R   0.434530 0.036950 0.565460 -0.624297
O5    O     O_R   0.434520 0.500000 0.117190 -0.622744
O6    O     O_R   0.565480 0.500000 0.882810 -0.622747
O7    O     O_R   0.934520 1.000000 0.117190 -0.622746
O8    O     O_R   0.065480 1.000000 0.882810 -0.622748
O9    O     O_R   0.434520 0.500010 0.013750 -0.617025
O10   O     O_R   0.565480 0.500010 0.986250 -0.617026
O11   O     O_R   0.934520 0.000010 0.013750 -0.617023
O12   O     O_R   0.065480 0.000010 0.986250 -0.617024
O13   O     O_R   0.500000 0.565470 0.051720 -0.628179
O14   O     O_R   0.500000 0.565470 0.948280 -0.628179
O15   O     O_R   1.000000 0.065470 0.051720 -0.628178
O16   O     O_R   0.000000 0.065470 0.948280 -0.628178
O17   O     O_R   0.065450 0.463030 0.434550 -0.621769
O18   O     O_R   0.934550 0.463030 0.565450 -0.621767
O19   O     O_R   0.565450 0.963030 0.434550 -0.621769
O20   O     O_R   0.434550 0.963030 0.565450 -0.621767
O21   O     O_R   1.000000 0.536950 0.591620 -0.618033
O22   O     O_R   0.000000 0.536950 0.408380 -0.618035
O23   O     O_R   0.500000 0.036950 0.591620 -0.618033
O24   O     O_R   0.500000 0.036950 0.408380 -0.618037
O25   O     O_R   0.999990 0.463030 0.591630 -0.619904
O26   O     O_R   0.000010 0.463030 0.408370 -0.619903
O27   O     O_R   0.499990 0.963030 0.591630 -0.619905
O28   O     O_R   0.500010 0.963030 0.408370 -0.619903
O29   O     O_R   0.963040 0.434500 0.036950 -0.580369
O30   O     O_R   0.036960 0.434500 0.963050 -0.580369
O31   O     O_R   0.463040 0.934500 0.036950 -0.580365
O32   O     O_R   0.536960 0.934500 0.963050 -0.580365
O33   O     O_R   0.963030 0.499970 0.945350 -0.549334
O34   O     O_R   0.036970 0.499970 0.054650 -0.549333
O35   O     O_R   0.463030 0.999970 0.945350 -0.549339
O36   O     O_R   0.536970 0.999970 0.054650 -0.549338
O37   O     O_R   0.036950 0.499990 0.871430 -0.627635
O38   O     O_R   0.963050 0.499990 0.128570 -0.627636
O39   O     O_R   0.536950 0.999990 0.871430 -0.627633
O40   O     O_R   0.463050 0.999990 0.128570 -0.627634
O41   O     O_R   0.963030 0.565430 0.036970 -0.612835
O42   O     O_R   0.036970 0.565430 0.963030 -0.612835
O43   O     O_R   0.463030 0.065430 0.036970 -0.612834
O44   O     O_R   0.536970 0.065430 0.963030 -0.612834
O45   O     O_R   0.499980 0.434540 0.051730 -0.559193
O46   O     O_R   0.500020 0.434540 0.948270 -0.559194
O47   O     O_R   0.999980 0.934540 0.051730 -0.559191
O48   O     O_R   0.000020 0.934540 0.948270 -0.559191
Zn1   Zn    Zn3+2 1.000000 0.549340 0.500000 0.977175
Zn2   Zn    Zn3+2 0.500000 0.049340 0.500000 0.977173
Zn3   Zn    Zn3+2 1.000000 0.450640 0.500000 0.993764
Zn4   Zn    Zn3+2 0.500000 0.950640 0.500000 0.993763
Zn5   Zn    Zn3+2 0.950630 0.499960 0.049360 1.103989
Zn6   Zn    Zn3+2 0.049370 0.499960 0.950640 1.103991
Zn7   Zn    Zn3+2 0.450630 0.999960 0.049360 1.103994
Zn8   Zn    Zn3+2 0.549370 0.999960 0.950640 1.103996
Zn9   Zn    Zn3+2 0.499990 0.500000 0.069080 1.047245
Zn10  Zn    Zn3+2 0.500010 0.500000 0.930920 1.047244
Zn11  Zn    Zn3+2 0.999990 1.000000 0.069080 1.047246
Zn12  Zn    Zn3+2 0.000010 0.000000 0.930920 1.047246
F1    F     F_    0.275221 0.519407 0.332867 -0.635703
F2    F     F_    0.724780 0.519393 0.667128 -0.635699
F3    F     F_    0.775220 0.019407 0.332867 -0.635703
F4    F     F_    0.224779 0.019395 0.667129 -0.635701
Cl1   Cl    Cl    0.069303 0.368985 0.016565 -0.592530
Cl2   Cl    Cl    0.930697 0.368984 0.983436 -0.592530
Cl3   Cl    Cl    0.569312 0.868984 0.016542 -0.592516
Cl4   Cl    Cl    0.430688 0.868984 0.983459 -0.592517
Cl5   Cl    Cl    0.091312 0.730747 0.898563 -0.548045
Cl6   Cl    Cl    0.908688 0.730747 0.101437 -0.548046
Cl7   Cl    Cl    0.591311 0.230747 0.898556 -0.548045
Cl8   Cl    Cl    0.408689 0.230747 0.101444 -0.548048
F5    F     F_    0.471162 0.363550 0.924544 -0.617868
F6    F     F_    0.528838 0.363550 0.075456 -0.617867
F7    F     F_    0.971168 0.863550 0.924533 -0.617864
F8    F     F_    0.028832 0.863550 0.075467 -0.617863
F9    F     F_    0.817240 0.531941 0.817969 -0.674910
F10   F     F_    0.182762 0.531937 0.182025 -0.674906
F11   F     F_    0.317242 0.031945 0.817966 -0.674909
F12   F     F_    0.682763 0.031938 0.182017 -0.674903
F13   F     F_    0.938638 0.549474 0.875703 -0.634696
F14   F     F_    0.061363 0.549473 0.124296 -0.634695
F15   F     F_    0.438640 0.049476 0.875702 -0.634697
F16   F     F_    0.561361 0.049474 0.124297 -0.634695
F17   F     F_    0.123684 0.484012 0.651025 -0.606032
F18   F     F_    0.876315 0.484013 0.348976 -0.606032
F19   F     F_    0.623683 0.984006 0.651029 -0.606030
F20   F     F_    0.376316 0.984008 0.348973 -0.606031
F21   F     F_    0.181252 0.426604 0.650244 -0.587678
F22   F     F_    0.818747 0.426605 0.349757 -0.587676
F23   F     F_    0.681247 0.926594 0.650251 -0.587678
F24   F     F_    0.318751 0.926596 0.349752 -0.587676

loop_
_geom_bond_atom_site_label_1
_geom_bond_atom_site_label_2
_ccdc_geom_bond_type
C120  O15   A    
C99   C103  A    
C120  C146  S    
C55   C59   A    
C141  H57   S    
C77   C101  A    
C139  H55   S    
C89   C125  A    
C150  C163  A    
C143  H59   S    
C79   F3    S    
C68   H28   S    
C26   C50   A    
C59   H23   S    
C111  O41   A    
O13   Zn9   S    
C72   H32   S    
C29   C33   A    
C100  C104  A    
O10   Zn9   S    
C9    C13   A    
C54   C74   A    
C11   C15   A    
C152  C156  A    
C172  C174  A    
C70   C74   A    
C151  C155  A    
C124  H52   S    
C40   C44   A    
O39   Zn8   S    
C141  C145  A    
C73   C101  S    
C108  O34   A    
C155  C158  A    
C75   C103  S    
C113  O46   A    
C21   C159  S    
C25   F17   S    
C167  H67   S    
O37   Zn6   S    
C41   C49   A    
C165  C169  A    
C27   C31   A    
C46   O26   A    
C28   C32   A    
C71   H31   S    
C62   C66   A    
C167  C171  A    
C90   C186  A    
O45   Zn9   S    
C98   C102  A    
C92   H44   S    
C17   C21   A    
C19   C23   A    
C6    C10   A    
C138  H54   S    
C177  H73   S    
C2    O2    A    
C78   C82   A    
C16   C20   A    
C109  O39   A    
C125  C159  A    
C90   C126  A    
C1    O17   A    
C105  O29   A    
C121  C135  A    
C160  C178  A    
C178  C182  A    
C112  C158  S    
C119  O14   A    
C129  C133  A    
C58   H22   S    
C126  C160  A    
O11   Zn12  S    
C105  C133  S    
C5    C107  S    
C153  H61   S    
C155  H63   S    
C84   C88   A    
O18   Zn3   S    
C57   C61   A    
C97   H45   S    
C59   C63   A    
C60   C64   A    
C156  C158  A    
C5    C189  A    
C65   H25   S    
C66   C70   A    
C8    C192  A    
C116  O6    A    
C80   F4    S    
C165  H65   S    
C95   C99   A    
C111  C157  S    
C61   C65   A    
C114  C174  S    
C132  C134  A    
C38   H10   S    
O29   Zn5   S    
O44   Zn8   S    
C114  O47   A    
O41   Zn5   S    
C48   O28   A    
C180  C184  A    
C26   C30   A    
C123  H51   S    
C35   H7    S    
O25   Zn3   S    
C121  H49   S    
C82   H34   S    
C64   C68   A    
O4    Zn2   S    
C17   C45   S    
C13   H77   S    
C19   C47   S    
C91   H43   S    
C124  C132  A    
C164  C175  S    
C89   H41   S    
C106  O32   A    
C149  C153  A    
C85   C93   A    
C40   H12   S    
C87   C95   A    
C169  F5    S    
C77   F1    S    
C161  C179  A    
C47   O23   A    
C162  C180  A    
C48   O24   A    
C55   C75   A    
C44   C52   A    
C112  O43   A    
O33   Zn5   S    
C79   C103  A    
C180  H76   S    
C27   C51   A    
C139  C148  A    
C30   C34   A    
C12   C16   A    
C9    C49   S    
C10   C14   A    
C5    C9    A    
C8    C110  S    
C137  H53   S    
C34   H6    S    
C21   C189  A    
C108  O38   A    
C8    C12   A    
C24   C192  A    
O31   Zn7   S    
C42   C50   A    
C57   H21   S    
C166  C170  A    
C149  Cl5   S    
O28   Zn4   S    
C22   C190  A    
C88   C118  S    
C93   C97   A    
C94   H38   S    
C168  C176  A    
C91   C187  A    
C18   C22   A    
C89   C185  A    
C186  H2    S    
C170  F6    S    
C178  H74   S    
C3    O3    A    
C109  O35   A    
O1    Zn1   S    
C110  O36   A    
C2    O18   A    
C67   H27   S    
C60   H24   S    
C30   F22   S    
C22   C160  S    
O19   Zn4   S    
C107  O37   A    
C177  C181  A    
C96   C100  A    
C100  H48   S    
C37   C41   A    
C130  Cl2   S    
C168  H68   S    
C54   H18   S    
C151  C164  A    
C125  H69   S    
C192  F16   S    
C169  C173  A    
C46   O22   A    
C69   H29   S    
C81   C85   A    
O43   Zn7   S    
C58   C62   A    
C143  C146  A    
C83   C87   A    
C88   C96   A    
C39   H11   S    
C78   C102  A    
C113  O45   A    
C28   F20   S    
C116  O10   A    
C80   C84   A    
C131  C134  A    
C115  O9    A    
O2    Zn1   S    
C15   C19   A    
O17   Zn3   S    
C166  C175  A    
C80   C104  A    
C142  H58   S    
C166  H66   S    
C95   H39   S    
C87   C117  S    
O14   Zn10  S    
C94   C98   A    
O5    Zn9   S    
C120  O16   A    
O9    Zn10  S    
C182  C186  A    
C27   F19   S    
C12   C52   S    
O27   Zn4   S    
O21   Zn1   S    
C69   C73   A    
C74   C102  S    
C99   H47   S    
C140  C144  A    
C140  H56   S    
C26   F18   S    
C25   C29   A    
C142  C145  A    
C7    C191  A    
O35   Zn7   S    
O32   Zn8   S    
C18   C46   S    
C16   H80   S    
C171  C174  A    
C53   C73   A    
C124  C136  A    
C129  Cl1   S    
C85   C115  S    
C154  C157  A    
C144  C146  A    
C32   F24   S    
O7    Zn11  S    
C53   C57   A    
O42   Zn6   S    
C111  O42   A    
C190  F14   S    
C43   H15   S    
C33   C37   A    
C56   C60   A    
C45   O25   A    
C35   C39   A    
C76   C104  S    
C4    O20   A    
O36   Zn8   S    
C183  C187  A    
O22   Zn1   S    
C77   C81   A    
C119  O13   A    
C92   C188  A    
C20   C48   S    
C138  C142  A    
C31   C35   A    
C130  C133  A    
C114  O48   A    
O6    Zn10  S    
C181  F9    S    
C10   C50   S    
C32   C36   A    
C183  F11   S    
C154  H62   S    
C137  C141  A    
C123  C131  A    
C137  C147  A    
O8    Zn12  S    
C36   H8    S    
C121  C129  A    
C1    C61   S    
O16   Zn12  S    
C191  F15   S    
C14   H78   S    
C38   C42   A    
C98   H46   S    
C3    C63   S    
C119  C145  S    
C4    C64   S    
O34   Zn6   S    
C66   H26   S    
C82   C86   A    
C79   C83   A    
C152  Cl8   S    
C43   C51   A    
O47   Zn11  S    
C65   C69   A    
C70   H30   S    
C127  H71   S    
C42   H14   S    
C67   C71   A    
C105  O30   A    
C128  H72   S    
C153  C157  A    
O20   Zn4   S    
C25   C49   A    
C122  C135  A    
C13   C17   A    
C168  C172  A    
C53   H17   S    
C184  F12   S    
C37   H9    S    
O12   Zn11  S    
C170  C173  A    
C179  H75   S    
C112  O44   A    
C118  O8    A    
C56   C76   A    
C14   C18   A    
C47   O27   A    
C3    O19   A    
C72   C76   A    
C140  C148  A    
C23   C191  A    
C122  H50   S    
C83   H35   S    
C107  O33   A    
C7    C11   A    
C33   H5    S    
C126  H70   S    
C81   H33   S    
C56   H20   S    
C150  Cl6   S    
C182  F10   S    
C44   H16   S    
C90   H42   S    
O3    Zn2   S    
C86   C116  S    
C86   C94   A    
C31   F23   S    
C20   C24   A    
C91   C127  A    
C78   F2    S    
C149  C163  A    
C1    O1    A    
C68   C72   A    
C115  O5    A    
C144  H60   S    
C127  C161  A    
O24   Zn2   S    
C184  C188  A    
C139  C143  A    
C159  C177  A    
C15   H79   S    
C163  C176  S    
C92   C128  A    
C128  C162  A    
C179  C183  A    
O48   Zn12  S    
C63   C67   A    
O30   Zn6   S    
C110  O40   A    
C4    O4    A    
C41   H13   S    
C36   C40   A    
C181  C185  A    
C39   C43   A    
C7    C109  S    
C117  O11   A    
C106  O31   A    
C118  O12   A    
O15   Zn11  S    
C172  F8    S    
C106  C134  S    
C138  C147  A    
O40   Zn7   S    
C6    C190  A    
C151  Cl7   S    
C152  C164  A    
O26   Zn3   S    
O23   Zn2   S    
C84   H36   S    
C113  C173  S    
C54   C58   A    
C93   H37   S    
C187  H3    S    
C34   C38   A    
C45   O21   A    
C171  F7    S    
C185  H1    S    
C165  C175  A    
C132  Cl4   S    
C123  C136  A    
C117  O7    A    
C71   C75   A    
C28   C52   A    
C29   F21   S    
O38   Zn5   S    
C96   H40   S    
C131  Cl3   S    
C189  F13   S    
C136  C147  S    
C11   C51   S    
C55   H19   S    
C2    C62   S    
C188  H4    S    
C135  C148  S    
C150  C154  A    
C6    C108  S    
O46   Zn10  S    
C24   C162  S    
C122  C130  A    
C97   C101  A    
C156  H64   S    
C167  C176  A    
C23   C161  S    
