data_mof_unit_34039.cif
_audit_creation_date              2013-03-05T15:45:20-0500
_audit_creation_method            fapswitch 2.2
_symmetry_space_group_name_H-M    P1
_symmetry_Int_Tables_number       1
_space_group_crystal_system       triclinic
_cell_length_a                    10.784967
_cell_length_b                    11.071972
_cell_length_c                    9.848465
_cell_angle_alpha                 109.805997
_cell_angle_beta                  97.317557
_cell_angle_gamma                 92.412652
_cell_volume                      1092.84606472

loop_
_atom_site_label
_atom_site_type_symbol
_atom_site_description
_atom_site_fract_x
_atom_site_fract_y
_atom_site_fract_z
_atom_type_partial_charge
O1    O     O_R   0.511700 0.332340 0.577400 -0.523396
O2    O     O_R   0.488300 0.667660 0.422600 -0.485958
O3    O     O_R   0.474680 0.295500 0.332650 -0.598561
O4    O     O_R   0.525320 0.704500 0.667350 -0.568731
C1    C     C_R   0.489624 0.256025 0.442440 0.837700
C2    C     C_R   0.508998 0.745250 0.557399 0.897944
O5    O     O_R   0.338170 0.518410 0.622370 -0.564326
O6    O     O_R   0.661830 0.481590 0.377630 -0.548711
O7    O     O_R   0.301150 0.481570 0.377630 -0.560481
O8    O     O_R   0.698850 0.518430 0.622370 -0.590750
C3    C     C_R   0.260934 0.492336 0.500473 0.805094
C4    C     C_R   0.733600 0.477779 0.494524 0.817524
Cu1   Cu    Cu3+1 0.521920 0.521810 0.644910 1.063967
Cu2   Cu    Cu3+1 0.478080 0.478190 0.355090 1.092514
H1    H     H_    0.055451 0.168958 0.026338 0.201410
H2    H     H_    0.940454 0.473559 0.972388 0.215504
C5    C     C_R   0.138247 0.564724 0.773878 -0.138194
C6    C     C_R   0.834064 0.302010 0.233443 -0.128791
C7    C     C_R   0.093022 0.554064 0.897714 0.362409
C8    C     C_R   0.883917 0.225309 0.111732 0.364115
C9    C     C_R   0.975461 0.489002 0.880779 -0.180807
C10   C     C_R   0.014098 0.230145 0.117046 -0.199284
C11   C     C_R   0.900456 0.446023 0.745599 -0.106060
C12   C     C_R   0.093301 0.307352 0.242407 -0.165123
C13   C     C_R   0.943592 0.463055 0.623118 0.065605
C14   C     C_R   0.045230 0.387835 0.366211 0.103059
C15   C     C_R   0.070835 0.500927 0.631790 0.013985
C16   C     C_R   0.912853 0.381914 0.360964 0.047848
C17   C     C_R   0.863733 0.440488 0.490632 -0.135030
C18   C     C_R   0.124071 0.466450 0.499113 -0.119324
H3    H     H_    0.225579 0.622402 0.792227 0.202548
H4    H     H_    0.734100 0.289169 0.232104 0.191140
H5    H     H_    0.809998 0.395593 0.736707 0.223003
H6    H     H_    0.191439 0.293020 0.242490 0.176012
C19   C     C_2   0.465124 0.121111 0.414803 -0.294063
C20   C     C_2   0.526030 0.883207 0.583270 -0.334796
C21   C     C_2   0.535382 0.061026 0.489279 0.304648
C22   C     C_2   0.490311 0.929965 0.476155 0.242348
H7    H     H_    0.579249 0.944659 0.686538 0.226672
H8    H     H_    0.377962 0.075536 0.344149 0.167135
N1    N     N_2   0.445130 0.445420 0.137360 -0.302578
N2    N     N_2   0.554870 0.554580 0.862640 -0.326912
C23   C     C_2   0.522181 0.499291 0.077560 0.401138
C24   C     C_2   0.501286 0.476729 0.917244 0.359559
H9    H     H_    0.607144 0.636606 0.934077 0.237958
H10   H     H_    0.364775 0.392657 0.072948 0.225305
N3    N     N_R   0.169479 0.602464 0.038467 0.142178
O9    O     O_R   0.125759 0.597732 0.154000 -0.298019
O10   O     O_R   0.286947 0.640890 0.049897 -0.323345
N4    N     N_R   0.803044 0.135164 0.988039 0.153444
O11   O     O_R   0.850180 0.057101 0.879662 -0.308715
O12   O     O_R   0.682172 0.124641 0.986713 -0.305241
N5    N     N_R   0.404834 0.854488 0.347610 0.154898
O13   O     O_R   0.427039 0.851683 0.219808 -0.280102
O14   O     O_R   0.295944 0.808023 0.360700 -0.275337
N6    N     N_R   0.657550 0.117942 0.567396 0.126343
O15   O     O_R   0.676636 0.161862 0.709115 -0.275742
O16   O     O_R   0.742998 0.144824 0.497288 -0.366974
N7    N     N_R   0.427069 0.361051 0.823956 0.126542
O17   O     O_R   0.461556 0.250928 0.827631 -0.319030
O18   O     O_R   0.310767 0.366628 0.774664 -0.370186
N8    N     N_R   0.634605 0.574782 0.162317 0.125605
O19   O     O_R   0.742202 0.532230 0.132928 -0.385617
O20   O     O_R   0.631256 0.697090 0.232162 -0.294975

loop_
_geom_bond_atom_site_label_1
_geom_bond_atom_site_label_2
_geom_bond_distance
_ccdc_geom_bond_type
C8    N4    1.439786 S    
C11   H5    1.081861 S    
N4    O12   1.301908 A    
N1    H10   1.030011 S    
H2    C9    1.082420 S    
N5    O13   1.301331 A    
C21   C22   1.468393 S    
O3    Cu2   1.957144 S    
C4    C17   1.481034 S    
C13   C15   1.401351 A    
N1    C23   1.309253 D    
C6    C8    1.399949 A    
N3    O9    1.301800 A    
O6    C4    1.317165 A    
N2    H9    1.029792 S    
C23   C24   1.497782 S    
N8    O19   1.300589 A    
N5    O14   1.301180 A    
N4    O11   1.301825 A    
O2    Cu2   1.967653 S    
C6    C16   1.412060 A    
N7    O17   1.300359 A    
N3    O10   1.297901 A    
Cu1   Cu2   2.703063 S    
C15   C18   1.433280 A    
O5    C3    1.307116 A    
O7    C3    1.306244 A    
O2    C2    1.298367 A    
C22   N5    1.439374 S    
N2    C24   1.310527 D    
Cu2   N1    2.030708 S    
O1    C1    1.295630 A    
O8    C4    1.295649 A    
C20   C22   1.346339 D    
C16   C17   1.404296 A    
C5    C7    1.408366 A    
C2    C20   1.460314 S    
C14   C18   1.440806 A    
C7    N3    1.434179 S    
C9    C11   1.384608 A    
C13   C17   1.407610 A    
C5    H3    1.074894 S    
C10   C12   1.392603 A    
N7    O18   1.297883 A    
C6    H4    1.079308 S    
C8    C10   1.396374 A    
C24   N7    1.433222 S    
C19   H8    1.085346 S    
C5    C15   1.418961 A    
C1    C19   1.431135 S    
O5    Cu1   1.963152 S    
C11   C13   1.413074 A    
O1    Cu1   1.967654 S    
N6    O15   1.298188 A    
C23   N8    1.431633 S    
O4    C2    1.302432 A    
O4    Cu1   1.957144 S    
O7    Cu2   1.949393 S    
Cu1   N2    2.030707 S    
N8    O20   1.299033 A    
O6    Cu2   1.963153 S    
C19   C21   1.336507 D    
C7    C9    1.393593 A    
C21   N6    1.438175 S    
C14   C16   1.419956 A    
C20   H7    1.084528 S    
H1    C10   1.082918 S    
C12   H6    1.076763 S    
C12   C14   1.418849 A    
C3    C18   1.489240 S    
N6    O16   1.301091 A    
O3    C1    1.291481 A    
O8    Cu1   1.949392 S    
