data_mof_unit_65227.cif
_audit_creation_date              2012-12-10T20:06:26-0500
_audit_creation_method            fapswitch 2.2
_symmetry_space_group_name_H-M    P1
_symmetry_Int_Tables_number       1
_space_group_crystal_system       triclinic
_cell_length_a                    22.445199
_cell_length_b                    25.916278
_cell_length_c                    22.465832
_cell_angle_alpha                 90.212296
_cell_angle_beta                  90.000679
_cell_angle_gamma                 90.019798
_cell_volume                      13068.1945058

loop_
_atom_site_label
_atom_site_type_symbol
_atom_type_description
_atom_site_fract_x
_atom_site_fract_y
_atom_site_fract_z
_atom_type_partial_charge
C1    C     C_R   0.502431 0.391308 0.752368 0.896181
C2    C     C_R   0.001619 0.391387 0.749101 0.918861
C3    C     C_3   0.517738 0.967901 0.680884 0.215572
C4    C     C_3   0.510563 0.528515 0.179028 0.171868
C5    C     C_3   0.512130 0.531598 0.820614 0.147508
C6    C     C_3   0.506135 0.470803 0.821708 0.223404
C7    C     C_3   0.517730 0.467900 0.180882 0.215570
C8    C     C_3   0.010571 0.028515 0.179029 0.171870
C9    C     C_3   0.012137 0.031598 0.820612 0.147507
C10   C     C_3   0.006141 0.970803 0.821707 0.223414
C11   C     C_3   0.017738 0.967901 0.180884 0.215573
C12   C     C_3   0.010571 0.528515 0.679029 0.171877
C13   C     C_R   0.002759 0.608685 0.747350 0.906188
C14   C     C_3   0.012137 0.531598 0.320612 0.147507
C15   C     C_3   0.006141 0.470803 0.321707 0.223414
C16   C     C_3   0.017738 0.467901 0.680884 0.215570
C17   C     C_3   0.558976 0.030604 0.784721 0.011287
C18   C     C_3   0.558743 0.029046 0.214543 0.039485
C19   C     C_3   0.561851 0.969313 0.220273 0.002178
C20   C     C_3   0.555844 0.970851 0.790012 0.049734
C21   C     C_3   0.558981 0.530605 0.284713 0.011276
C22   C     C_3   0.558748 0.529047 0.714551 0.039478
C23   C     C_3   0.561856 0.469313 0.720280 0.002171
C24   C     C_R   0.001882 0.608608 0.251321 0.898398
C25   C     C_3   0.555849 0.470851 0.290005 0.049735
C26   C     C_3   0.058976 0.030604 0.284721 0.011288
C27   C     C_3   0.058743 0.029046 0.714543 0.039485
C28   C     C_3   0.061852 0.969313 0.720274 0.002178
C29   C     C_3   0.055844 0.970852 0.290012 0.049736
C30   C     C_3   0.058976 0.530605 0.784721 0.011287
C31   C     C_3   0.058743 0.529046 0.214543 0.039485
C32   C     C_3   0.061851 0.469313 0.220273 0.002178
C33   C     C_3   0.055844 0.470851 0.790011 0.049733
C34   C     C_3   0.447992 0.030048 0.772057 -0.533089
C35   C     C_R   0.002430 0.891308 0.752368 0.896185
C36   C     C_3   0.447584 0.029268 0.228646 -0.541528
C37   C     C_3   0.449999 0.969999 0.224352 -0.540214
C38   C     C_3   0.445879 0.970757 0.767607 -0.553544
C39   C     C_3   0.447996 0.530049 0.272063 -0.533082
C40   C     C_3   0.447588 0.529268 0.728641 -0.541529
C41   C     C_3   0.450003 0.469999 0.724347 -0.540210
C42   C     C_3   0.445882 0.470757 0.267613 -0.553551
C43   C     C_3   0.947992 0.030048 0.272057 -0.533087
C44   C     C_3   0.947584 0.029268 0.728646 -0.541528
C45   C     C_3   0.949999 0.969999 0.724352 -0.540214
C46   C     C_R   0.001619 0.891387 0.249101 0.918860
C47   C     C_3   0.945879 0.970757 0.267607 -0.553545
C48   C     C_3   0.947992 0.530049 0.772057 -0.533089
C49   C     C_3   0.947584 0.529268 0.228646 -0.541530
C50   C     C_3   0.949999 0.469999 0.224352 -0.540214
C51   C     C_3   0.945879 0.470757 0.767607 -0.553546
C52   C     C_R   0.002759 0.108685 0.247350 0.906184
C53   C     C_R   0.001881 0.108608 0.751321 0.898399
C54   C     C_3   0.506769 0.051117 0.744553 -0.097873
C55   C     C_3   0.506769 0.051153 0.254507 -0.084858
C56   C     C_3   0.506625 0.948777 0.255880 -0.107301
C57   C     C_R   0.501619 0.391387 0.249101 0.918863
C58   C     C_3   0.506860 0.948752 0.746337 -0.104408
C59   C     C_3   0.506769 0.551117 0.244552 -0.097869
C60   C     C_3   0.506769 0.551153 0.754508 -0.084857
C61   C     C_3   0.506625 0.448777 0.755881 -0.107294
C62   C     C_3   0.506860 0.448752 0.246336 -0.104406
C63   C     C_3   0.006769 0.051117 0.244553 -0.097872
C64   C     C_3   0.006769 0.051153 0.754507 -0.084858
C65   C     C_3   0.006625 0.948777 0.755880 -0.107301
C66   C     C_3   0.006860 0.948752 0.246337 -0.104409
C67   C     C_3   0.006769 0.551117 0.744553 -0.097874
C68   C     C_R   0.502760 0.608685 0.247349 0.906178
C69   C     C_3   0.006769 0.551153 0.254507 -0.084857
C70   C     C_3   0.006625 0.448777 0.255880 -0.107300
C71   C     C_3   0.006860 0.448752 0.746337 -0.104407
C72   C     C_1   0.500030 0.250123 0.973326 -0.126682
C73   C     C_1   0.500129 0.250046 0.026673 -0.130929
C74   C     C_1   0.500006 0.749898 0.026673 -0.137361
C75   C     C_1   0.500117 0.749962 0.973329 -0.128097
C76   C     C_1   0.500030 0.750123 0.473326 -0.126682
C77   C     C_1   0.500129 0.750046 0.526673 -0.130928
C78   C     C_1   0.500006 0.249898 0.526674 -0.137367
C79   C     C_R   0.501882 0.608608 0.751322 0.898399
C80   C     C_1   0.500117 0.249962 0.473329 -0.128099
C81   C     C_1   0.000030 0.250123 0.473326 -0.126682
C82   C     C_1   0.000129 0.250046 0.526673 -0.130928
C83   C     C_1   0.000006 0.749898 0.526674 -0.137370
C84   C     C_1   0.000117 0.749962 0.473329 -0.128099
C85   C     C_1   0.000030 0.750123 0.973326 -0.126681
C86   C     C_1   0.000129 0.750046 0.026673 -0.130928
C87   C     C_1   0.000006 0.249898 0.026673 -0.137365
C88   C     C_1   0.000117 0.249962 0.973329 -0.128099
C89   C     C_R   0.499953 0.249980 0.589994 0.875253
C90   C     C_R   0.502430 0.891308 0.252368 0.896185
C91   C     C_R   0.500083 0.249987 0.410005 0.866170
C92   C     C_R   0.499994 0.750059 0.410001 0.873320
C93   C     C_R   0.500085 0.750015 0.590000 0.855969
C94   C     C_R   0.499953 0.749980 0.089994 0.875261
C95   C     C_R   0.500083 0.749987 0.910005 0.866175
C96   C     C_R   0.499994 0.250059 0.910001 0.873319
C97   C     C_R   0.500085 0.250015 0.090000 0.855967
C98   C     C_R   0.999953 0.249980 0.089994 0.875256
C99   C     C_R   0.000083 0.249987 0.910005 0.866170
C100  C     C_R   0.999994 0.750059 0.910001 0.873318
C101  C     C_R   0.501619 0.891387 0.749101 0.918860
C102  C     C_R   0.000085 0.750015 0.090000 0.855966
C103  C     C_R   0.999953 0.749980 0.589994 0.875249
C104  C     C_R   0.000083 0.749987 0.410005 0.866169
C105  C     C_R   0.999994 0.250059 0.410001 0.873319
C106  C     C_R   0.000085 0.250015 0.590000 0.855967
C107  C     C_R   0.659972 0.250003 0.749997 0.882268
C108  C     C_R   0.660020 0.250015 0.249990 0.884938
C109  C     C_R   0.659972 0.750003 0.249997 0.882266
C110  C     C_R   0.660020 0.750015 0.749990 0.884933
C111  C     C_R   0.159972 0.250003 0.249997 0.882269
C112  C     C_R   0.502759 0.108685 0.747350 0.906186
C113  C     C_R   0.160020 0.250015 0.749990 0.884935
C114  C     C_R   0.159972 0.750003 0.749997 0.882270
C115  C     C_R   0.160020 0.750015 0.249990 0.884936
C116  C     C_R   0.339979 0.250000 0.749993 0.830139
C117  C     C_R   0.340029 0.249997 0.250004 0.828936
C118  C     C_R   0.339979 0.750000 0.249993 0.830139
C119  C     C_R   0.340029 0.749998 0.750004 0.828935
C120  C     C_R   0.839979 0.250000 0.249993 0.830139
C121  C     C_R   0.840029 0.249997 0.750004 0.828936
C122  C     C_R   0.839979 0.750000 0.749993 0.830138
C123  C     C_R   0.501881 0.108608 0.251321 0.898399
C124  C     C_R   0.840029 0.749998 0.250004 0.828936
C125  C     C_1   0.276668 0.250007 0.749983 -0.116339
C126  C     C_1   0.276682 0.249996 0.250005 -0.116408
C127  C     C_1   0.276668 0.750007 0.249983 -0.116339
C128  C     C_1   0.276682 0.749996 0.750005 -0.116408
C129  C     C_1   0.776668 0.250007 0.249983 -0.116340
C130  C     C_1   0.776682 0.249996 0.750005 -0.116409
C131  C     C_1   0.776668 0.750007 0.749983 -0.116340
C132  C     C_1   0.776682 0.749996 0.250005 -0.116409
C133  C     C_1   0.223319 0.250019 0.749988 -0.123456
C134  C     C_R   0.002430 0.391308 0.252368 0.896185
C135  C     C_1   0.223310 0.250003 0.249997 -0.119893
C136  C     C_1   0.223319 0.750019 0.249988 -0.123457
C137  C     C_1   0.223310 0.750003 0.749997 -0.119893
C138  C     C_1   0.723319 0.250019 0.249988 -0.123455
C139  C     C_1   0.723310 0.250003 0.749997 -0.119894
C140  C     C_1   0.723319 0.750019 0.749988 -0.123459
C141  C     C_1   0.723310 0.750003 0.249997 -0.119894
C142  C     C_3   0.510571 0.028515 0.679029 0.171873
C143  C     C_3   0.512137 0.031598 0.320612 0.147507
C144  C     C_3   0.506141 0.970803 0.321707 0.223414
H1    H     H_    0.464968 0.034628 0.660713 0.088839
H2    H     H_    0.972186 0.046538 0.844528 0.082447
H3    H     H_    0.959620 0.963838 0.837079 0.108033
H4    H     H_    0.980617 0.952048 0.153421 0.098052
H5    H     H_    0.964968 0.534628 0.660713 0.088841
H6    H     H_    0.972187 0.546538 0.344528 0.082447
H7    H     H_    0.959621 0.463838 0.337079 0.108032
H8    H     H_    0.980616 0.452048 0.653421 0.098052
H9    H     H_    0.444445 0.041951 0.819613 0.202656
H10   H     H_    0.438903 0.045381 0.183579 0.203087
H11   H     H_    0.449890 0.958162 0.176640 0.203594
H12   H     H_    0.472187 0.046538 0.344528 0.082447
H13   H     H_    0.433737 0.954660 0.811879 0.204213
H14   H     H_    0.444455 0.541951 0.319620 0.202656
H15   H     H_    0.438912 0.545381 0.683572 0.203087
H16   H     H_    0.449899 0.458161 0.676635 0.203595
H17   H     H_    0.433744 0.454660 0.311886 0.204213
H18   H     H_    0.944445 0.041951 0.319613 0.202656
H19   H     H_    0.938903 0.045381 0.683578 0.203088
H20   H     H_    0.949890 0.958162 0.676639 0.203594
H21   H     H_    0.933737 0.954660 0.311879 0.204213
H22   H     H_    0.944445 0.541951 0.819613 0.202656
H23   H     H_    0.459621 0.963838 0.337079 0.108033
H24   H     H_    0.938903 0.545381 0.183579 0.203087
H25   H     H_    0.949890 0.458162 0.176640 0.203593
H26   H     H_    0.933737 0.454660 0.811879 0.204213
H27   H     H_    0.408393 0.046352 0.748935 0.223550
H28   H     H_    0.409311 0.040851 0.257264 0.221274
H29   H     H_    0.408850 0.953659 0.244595 0.220943
H30   H     H_    0.409931 0.959211 0.736090 0.222683
H31   H     H_    0.408394 0.546353 0.248946 0.223546
H32   H     H_    0.409311 0.540851 0.757254 0.221271
H33   H     H_    0.408852 0.453659 0.744586 0.220939
H34   H     H_    0.480617 0.952048 0.653421 0.098053
H35   H     H_    0.409930 0.459212 0.236100 0.222681
H36   H     H_    0.908393 0.046352 0.248935 0.223550
H37   H     H_    0.909311 0.040851 0.757264 0.221274
H38   H     H_    0.908850 0.953659 0.744595 0.220943
H39   H     H_    0.909932 0.959211 0.236090 0.222684
H40   H     H_    0.908393 0.546353 0.748935 0.223549
H41   H     H_    0.909311 0.540851 0.257264 0.221273
H42   H     H_    0.908850 0.453659 0.244595 0.220942
H43   H     H_    0.909931 0.459211 0.736090 0.222683
H44   H     H_    0.551385 0.045783 0.830581 0.124167
H45   H     H_    0.464958 0.534627 0.160717 0.088841
H46   H     H_    0.545022 0.036834 0.167739 0.118552
H47   H     H_    0.558787 0.953869 0.174016 0.130889
H48   H     H_    0.538972 0.962703 0.835692 0.113379
H49   H     H_    0.551396 0.545784 0.330573 0.124175
H50   H     H_    0.545034 0.536835 0.667745 0.118557
H51   H     H_    0.558796 0.453870 0.674022 0.130894
H52   H     H_    0.538983 0.462704 0.335688 0.113384
H53   H     H_    0.051385 0.045783 0.330581 0.124167
H54   H     H_    0.045023 0.036834 0.667739 0.118552
H55   H     H_    0.058787 0.953869 0.674016 0.130890
H56   H     H_    0.472176 0.546538 0.844525 0.082448
H57   H     H_    0.038972 0.962703 0.335692 0.113379
H58   H     H_    0.051385 0.545783 0.830580 0.124167
H59   H     H_    0.045022 0.536834 0.167739 0.118552
H60   H     H_    0.058787 0.453869 0.174016 0.130889
H61   H     H_    0.038972 0.462703 0.835692 0.113380
H62   H     H_    0.498674 0.126467 0.593917 0.367470
H63   H     H_    0.525820 0.067301 0.445664 0.363189
H64   H     H_    0.525056 0.922669 0.472446 0.407340
H65   H     H_    0.626582 0.865329 0.642077 0.372155
H66   H     H_    0.498653 0.626464 0.093913 0.367471
H67   H     H_    0.459613 0.463837 0.837076 0.108031
H68   H     H_    0.525794 0.567303 0.945667 0.363184
H69   H     H_    0.525023 0.422662 0.972445 0.407328
H70   H     H_    0.626569 0.365327 0.142062 0.372156
H71   H     H_    0.998669 0.126465 0.093917 0.367467
H72   H     H_    0.025819 0.067301 0.945664 0.363189
H73   H     H_    0.025056 0.922669 0.972446 0.407340
H74   H     H_    0.126582 0.865329 0.142077 0.372156
H75   H     H_    0.998678 0.626469 0.593915 0.367471
H76   H     H_    0.025820 0.567301 0.445664 0.363188
H77   H     H_    0.025053 0.422667 0.472445 0.407336
H78   H     H_    0.480606 0.452047 0.153423 0.098054
H79   H     H_    0.126579 0.365327 0.642074 0.372155
H80   H     H_    0.964968 0.034628 0.160713 0.088837
I1    I     I_    0.646114 0.064197 0.766616 -0.130145
I2    I     I_    0.144767 0.068668 0.711709 -0.159417
I3    I     I_    0.146459 0.936525 0.748460 -0.137405
I4    I     I_    0.142145 0.931935 0.298115 -0.162881
I5    I     I_    0.146114 0.564197 0.766616 -0.130146
I6    I     I_    0.144767 0.568668 0.211709 -0.159417
I7    I     I_    0.146459 0.436525 0.248460 -0.137405
I8    I     I_    0.142145 0.431934 0.798115 -0.162882
I9    I     I_    0.644767 0.068668 0.211709 -0.159417
I10   I     I_    0.646459 0.936525 0.248460 -0.137404
I11   I     I_    0.642145 0.931935 0.798116 -0.162884
I12   I     I_    0.646116 0.564197 0.266594 -0.130156
I13   I     I_    0.644772 0.568669 0.711731 -0.159421
I14   I     I_    0.646459 0.436524 0.748475 -0.137420
I15   I     I_    0.642150 0.431934 0.298099 -0.162891
I16   I     I_    0.146114 0.064198 0.266617 -0.130147
O1    O     O_3   0.500000 0.250000 0.750000 -0.506043
O2    O     O_R   0.465380 0.366870 0.215380 -0.638197
O3    O     O_R   0.034610 0.633130 0.215390 -0.627267
O4    O     O_R   0.034610 0.866870 0.715390 -0.647909
O5    O     O_R   0.034610 0.866870 0.284610 -0.619065
O6    O     O_R   0.034610 0.133130 0.284610 -0.642402
O7    O     O_R   0.034610 0.133130 0.715390 -0.627267
O8    O     O_2   0.619473 0.060795 0.632517 -0.152734
O9    O     O_2   0.539687 0.040014 0.563204 -0.228447
O10   O     O_3   0.534026 0.125599 0.620282 -0.557258
O11   O     O_2   0.632599 0.039959 0.343981 -0.164596
O12   O     O_2   0.573856 0.118287 0.353940 -0.338699
O13   O     O_R   0.465380 0.633130 0.215380 -0.629610
O14   O     O_3   0.563496 0.049510 0.435313 -0.380531
O15   O     O_2   0.541352 0.878506 0.371673 -0.339709
O16   O     O_2   0.611404 0.948965 0.383331 -0.152244
O17   O     O_3   0.514417 0.951172 0.445206 -0.492739
O18   O     O_2   0.578029 0.944123 0.579337 -0.212610
O19   O     O_2   0.639706 0.966599 0.665184 -0.199502
O20   O     O_3   0.589597 0.876919 0.662110 -0.594447
O21   O     O_2   0.619459 0.560794 0.132499 -0.152727
O22   O     O_2   0.539663 0.540010 0.063199 -0.228440
O23   O     O_3   0.534008 0.625597 0.120272 -0.557244
O24   O     O_R   0.465380 0.633130 0.784620 -0.638613
O25   O     O_2   0.632589 0.539960 0.844000 -0.164591
O26   O     O_2   0.573843 0.618288 0.853949 -0.338697
O27   O     O_3   0.563472 0.549512 0.935322 -0.380515
O28   O     O_2   0.541344 0.378506 0.871677 -0.339713
O29   O     O_2   0.611392 0.448966 0.883344 -0.152225
O30   O     O_3   0.514397 0.451171 0.945208 -0.492725
O31   O     O_2   0.578010 0.444120 0.079328 -0.212595
O32   O     O_2   0.639697 0.466599 0.165168 -0.199496
O33   O     O_3   0.589588 0.376919 0.162102 -0.594449
O34   O     O_2   0.119473 0.060797 0.132518 -0.152738
O35   O     O_R   0.465380 0.866870 0.284620 -0.613235
O36   O     O_2   0.039688 0.040013 0.063204 -0.228440
O37   O     O_3   0.034022 0.125599 0.120279 -0.557253
O38   O     O_2   0.132599 0.039959 0.843981 -0.164596
O39   O     O_2   0.073856 0.118287 0.853940 -0.338699
O40   O     O_3   0.063496 0.049510 0.935313 -0.380531
O41   O     O_2   0.041352 0.878506 0.871673 -0.339709
O42   O     O_2   0.111404 0.948965 0.883331 -0.152244
O43   O     O_3   0.014416 0.951171 0.945206 -0.492740
O44   O     O_2   0.078029 0.944122 0.079337 -0.212616
O45   O     O_2   0.139706 0.966600 0.165184 -0.199497
O46   O     O_R   0.465380 0.866870 0.715380 -0.638200
O47   O     O_3   0.089599 0.876920 0.162112 -0.594447
O48   O     O_2   0.119474 0.560793 0.632516 -0.152732
O49   O     O_2   0.039686 0.540015 0.563204 -0.228451
O50   O     O_3   0.034027 0.625600 0.620282 -0.557261
O51   O     O_2   0.132599 0.539959 0.343981 -0.164596
O52   O     O_2   0.073856 0.618287 0.353939 -0.338700
O53   O     O_3   0.063496 0.549510 0.435313 -0.380530
O54   O     O_2   0.041352 0.378506 0.371673 -0.339712
O55   O     O_2   0.111404 0.448965 0.383331 -0.152240
O56   O     O_3   0.014417 0.451172 0.445206 -0.492736
O57   O     O_R   0.465380 0.133130 0.715380 -0.629616
O58   O     O_2   0.078028 0.444123 0.579336 -0.212606
O59   O     O_2   0.139706 0.466598 0.665184 -0.199500
O60   O     O_3   0.089595 0.376919 0.662109 -0.594448
O61   O     O_R   0.465380 0.133130 0.284620 -0.638619
O62   O     O_R   0.965380 0.366870 0.284620 -0.613236
O63   O     O_R   0.965380 0.366870 0.715380 -0.638200
O64   O     O_R   0.965380 0.633130 0.715380 -0.629613
O65   O     O_3   0.500000 0.250000 0.250000 -0.506537
O66   O     O_R   0.965380 0.633130 0.284620 -0.638620
O67   O     O_R   0.965380 0.866870 0.784620 -0.613235
O68   O     O_R   0.965380 0.866870 0.215380 -0.638202
O69   O     O_R   0.965380 0.133130 0.215380 -0.629616
O70   O     O_R   0.965380 0.133130 0.784620 -0.638619
O71   O     O_R   0.534610 0.280640 0.617980 -0.634214
O72   O     O_R   0.534610 0.280640 0.382020 -0.637088
O73   O     O_R   0.534610 0.719360 0.382020 -0.643962
O74   O     O_R   0.534610 0.719360 0.617980 -0.642134
O75   O     O_R   0.534610 0.780640 0.117980 -0.634218
O76   O     O_3   0.500000 0.750000 0.250000 -0.506044
O77   O     O_R   0.534610 0.780640 0.882020 -0.637088
O78   O     O_R   0.534610 0.219360 0.882020 -0.643963
O79   O     O_R   0.534610 0.219360 0.117980 -0.642134
O80   O     O_R   0.034610 0.280640 0.117980 -0.634215
O81   O     O_R   0.034610 0.280640 0.882020 -0.637087
O82   O     O_R   0.034610 0.719360 0.882020 -0.643963
O83   O     O_R   0.034610 0.719360 0.117980 -0.642133
O84   O     O_R   0.034610 0.780640 0.617980 -0.634213
O85   O     O_R   0.034610 0.780640 0.382020 -0.637087
O86   O     O_R   0.034610 0.219360 0.382020 -0.643962
O87   O     O_3   0.500000 0.750000 0.750000 -0.506536
O88   O     O_R   0.034610 0.219360 0.617980 -0.642133
O89   O     O_R   0.632030 0.280640 0.715400 -0.620643
O90   O     O_R   0.632030 0.280640 0.284600 -0.610588
O91   O     O_R   0.632030 0.719360 0.284600 -0.620678
O92   O     O_R   0.632030 0.719360 0.715400 -0.618622
O93   O     O_R   0.632030 0.780640 0.215400 -0.620641
O94   O     O_R   0.632030 0.780640 0.784600 -0.610586
O95   O     O_R   0.632030 0.219360 0.784600 -0.620675
O96   O     O_R   0.632030 0.219360 0.215400 -0.618619
O97   O     O_R   0.132030 0.280640 0.215400 -0.620641
O98   O     O_3   0.000000 0.250000 0.250000 -0.506043
O99   O     O_R   0.132030 0.280640 0.784600 -0.610587
O100  O     O_R   0.132030 0.719360 0.784600 -0.620675
O101  O     O_R   0.132030 0.719360 0.215400 -0.618619
O102  O     O_R   0.132030 0.780640 0.715400 -0.620641
O103  O     O_R   0.132030 0.780640 0.284600 -0.610586
O104  O     O_R   0.132030 0.219360 0.284600 -0.620675
O105  O     O_R   0.132030 0.219360 0.715400 -0.618619
O106  O     O_R   0.367970 0.280650 0.784620 -0.638267
O107  O     O_R   0.367970 0.280650 0.215380 -0.638347
O108  O     O_R   0.367970 0.719350 0.215380 -0.639960
O109  O     O_3   0.000000 0.250000 0.750000 -0.506537
O110  O     O_R   0.367970 0.719350 0.784620 -0.639666
O111  O     O_R   0.367970 0.780650 0.284620 -0.638267
O112  O     O_R   0.367970 0.780650 0.715380 -0.638347
O113  O     O_R   0.367970 0.219350 0.715380 -0.639959
O114  O     O_R   0.367970 0.219350 0.284620 -0.639665
O115  O     O_R   0.867970 0.280650 0.284620 -0.638268
O116  O     O_R   0.867970 0.280650 0.715380 -0.638347
O117  O     O_R   0.867970 0.719350 0.715380 -0.639960
O118  O     O_R   0.867970 0.719350 0.284620 -0.639666
O119  O     O_R   0.867970 0.780650 0.784620 -0.638267
O120  O     O_3   0.000000 0.750000 0.750000 -0.506043
O121  O     O_R   0.867970 0.780650 0.215380 -0.638346
O122  O     O_R   0.867970 0.219350 0.215380 -0.639960
O123  O     O_R   0.867970 0.219350 0.784620 -0.639665
O124  O     O_R   0.465380 0.219370 0.617980 -0.635892
O125  O     O_R   0.465380 0.219370 0.382020 -0.625773
O126  O     O_R   0.465380 0.780630 0.382020 -0.603913
O127  O     O_R   0.465380 0.780630 0.617980 -0.618161
O128  O     O_R   0.465380 0.719370 0.117980 -0.635887
O129  O     O_R   0.465380 0.719370 0.882020 -0.625770
O130  O     O_R   0.465380 0.280630 0.882020 -0.603914
O131  O     O_3   0.000000 0.750000 0.250000 -0.506537
O132  O     O_R   0.465380 0.280630 0.117980 -0.618160
O133  O     O_R   0.965380 0.219370 0.117980 -0.635889
O134  O     O_R   0.965380 0.219370 0.882020 -0.625774
O135  O     O_R   0.965380 0.780630 0.882020 -0.603914
O136  O     O_R   0.965380 0.780630 0.117980 -0.618163
O137  O     O_R   0.965380 0.719370 0.617980 -0.635892
O138  O     O_R   0.965380 0.719370 0.382020 -0.625774
O139  O     O_R   0.965380 0.280630 0.382020 -0.603915
O140  O     O_R   0.965380 0.280630 0.617980 -0.618162
O141  O     O_R   0.534610 0.366870 0.715390 -0.647912
O142  O     O_R   0.465380 0.366870 0.784620 -0.613233
O143  O     O_R   0.534610 0.366870 0.284610 -0.619073
O144  O     O_R   0.534610 0.633130 0.284610 -0.642409
O145  O     O_R   0.534610 0.633130 0.715390 -0.627275
O146  O     O_R   0.534610 0.866870 0.215390 -0.647909
O147  O     O_R   0.534610 0.866870 0.784610 -0.619066
O148  O     O_R   0.534610 0.133130 0.784610 -0.642401
O149  O     O_R   0.534610 0.133130 0.215390 -0.627267
O150  O     O_R   0.034610 0.366870 0.215390 -0.647909
O151  O     O_R   0.034610 0.366870 0.784610 -0.619066
O152  O     O_R   0.034610 0.633130 0.784610 -0.642402
S1    S     S_3+6 0.553471 0.063174 0.623023 0.099210
S2    S     S_3+6 0.073056 0.060791 0.862395 0.115862
S3    S     S_3+6 0.046455 0.935866 0.879796 0.094642
S4    S     S_3+6 0.083600 0.939992 0.145746 0.096819
S5    S     S_3+6 0.053471 0.563174 0.623023 0.099210
S6    S     S_3+6 0.073056 0.560791 0.362395 0.115862
S7    S     S_3+6 0.046455 0.435866 0.379796 0.094643
S8    S     S_3+6 0.083599 0.439991 0.645745 0.096820
S9    S     S_3+6 0.573056 0.060791 0.362395 0.115862
S10   S     S_3+6 0.546455 0.935866 0.379796 0.094642
S11   S     S_3+6 0.583599 0.939991 0.645746 0.096819
S12   S     S_3+6 0.553455 0.563172 0.123014 0.099214
S13   S     S_3+6 0.573043 0.560792 0.862405 0.115868
S14   S     S_3+6 0.546444 0.435867 0.879801 0.094652
S15   S     S_3+6 0.583588 0.439991 0.145737 0.096825
S16   S     S_3+6 0.053470 0.063174 0.123022 0.099210
Zn1   Zn    Zn3+2 0.450550 0.206230 0.700550 1.005918
Zn2   Zn    Zn3+2 0.950550 0.206230 0.799450 1.013637
Zn3   Zn    Zn3+2 0.950550 0.793770 0.799450 1.036400
Zn4   Zn    Zn3+2 0.950550 0.793770 0.200550 1.015919
Zn5   Zn    Zn3+2 0.950550 0.706230 0.700550 1.005917
Zn6   Zn    Zn3+2 0.950550 0.706230 0.299450 1.013636
Zn7   Zn    Zn3+2 0.950550 0.293770 0.299450 1.036398
Zn8   Zn    Zn3+2 0.950550 0.293770 0.700550 1.015919
Zn9   Zn    Zn3+2 0.549450 0.293780 0.700550 1.037510
Zn10  Zn    Zn3+2 0.549450 0.293780 0.299450 1.051422
Zn11  Zn    Zn3+2 0.549450 0.706220 0.299450 1.038101
Zn12  Zn    Zn3+2 0.450550 0.206230 0.299450 1.013638
Zn13  Zn    Zn3+2 0.549450 0.706220 0.700550 1.042495
Zn14  Zn    Zn3+2 0.549450 0.793780 0.200550 1.037512
Zn15  Zn    Zn3+2 0.549450 0.793780 0.799450 1.051425
Zn16  Zn    Zn3+2 0.549450 0.206220 0.799450 1.038109
Zn17  Zn    Zn3+2 0.549450 0.206220 0.200550 1.042501
Zn18  Zn    Zn3+2 0.049450 0.293780 0.200550 1.037514
Zn19  Zn    Zn3+2 0.049450 0.293780 0.799450 1.051425
Zn20  Zn    Zn3+2 0.049450 0.706220 0.799450 1.038110
Zn21  Zn    Zn3+2 0.049450 0.706220 0.200550 1.042501
Zn22  Zn    Zn3+2 0.049450 0.793780 0.700550 1.037515
Zn23  Zn    Zn3+2 0.450550 0.793770 0.299450 1.036400
Zn24  Zn    Zn3+2 0.049450 0.793780 0.299450 1.051426
Zn25  Zn    Zn3+2 0.049450 0.206220 0.299450 1.038110
Zn26  Zn    Zn3+2 0.049450 0.206220 0.700550 1.042501
Zn27  Zn    Zn3+2 0.450550 0.793770 0.700550 1.015921
Zn28  Zn    Zn3+2 0.450550 0.706230 0.200550 1.005918
Zn29  Zn    Zn3+2 0.450550 0.706230 0.799450 1.013641
Zn30  Zn    Zn3+2 0.450550 0.293770 0.799450 1.036399
Zn31  Zn    Zn3+2 0.450550 0.293770 0.200550 1.015922
Zn32  Zn    Zn3+2 0.950550 0.206230 0.200550 1.005917

loop_
_geom_bond_atom_site_label_1
_geom_bond_atom_site_label_2
_ccdc_geom_bond_type
O98   Zn18  S    
C60   C79   S    
C9    C64   S    
C41   C61   S    
C11   S4    S    
C15   H7    S    
O133  Zn32  S    
C43   C63   S    
C44   C64   S    
C93   O127  A    
C15   S7    S    
C101  O147  A    
O82   Zn20  S    
C123  O61   A    
C52   O69   A    
C21   C59   S    
C100  O82   A    
C22   C60   S    
C5    C6    S    
C47   H21   S    
C53   C64   S    
H73   O43   S    
C115  C136  S    
C143  C144  S    
O136  Zn4   S    
C102  O136  A    
C94   O75   A    
C9    S2    S    
C114  C137  S    
O87   Zn27  S    
C26   H53   S    
O149  Zn17  S    
C131  C140  T    
C37   C56   S    
O27   S13   S    
C119  O110  A    
O109  Zn19  S    
C12   C16   S    
C57   O143  A    
O46   Zn27  S    
C111  O97   A    
O95   Zn16  S    
C33   I8    S    
C117  C126  S    
C114  O102  A    
O1    Zn30  S    
C119  C128  S    
O13   Zn28  S    
O117  Zn5   S    
C113  C133  S    
C122  O119  A    
C27   H54   S    
C51   C71   S    
C124  O121  A    
C89   O71   A    
C45   H38   S    
C5    H56   S    
O63   Zn8   S    
C78   C89   S    
C30   H58   S    
C55   C123  S    
C43   H36   S    
C42   H17   S    
C75   C95   S    
C127  C136  T    
C47   H39   S    
O53   S6    S    
O69   Zn32  S    
C96   O78   A    
C48   H40   S    
O125  Zn12  S    
O76   Zn14  S    
O1    Zn1   S    
O77   Zn15  S    
C6    S14   S    
O109  Zn8   S    
C53   O7    A    
C7    C62   S    
C57   O2    A    
O22   S12   D    
O146  Zn14  S    
C54   C112  S    
O92   Zn13  S    
O3    Zn21  S    
C58   C101  S    
O65   Zn10  S    
C123  O149  A    
O119  Zn3   S    
C1    O141  A    
C34   C54   S    
O58   S8    D    
C14   C69   S    
C95   O77   A    
O15   S10   D    
C2    C71   S    
C79   O145  A    
O23   S12   S    
C34   H9    S    
H74   O47   S    
C18   H46   S    
O8    S1    D    
O41   S3    D    
C3    H34   S    
O141  Zn9   S    
C38   H13   S    
C72   C73   T    
C52   C63   S    
O114  Zn12  S    
H75   O50   S    
O76   Zn28  S    
C50   C70   S    
C36   C55   S    
O130  Zn30  S    
O83   Zn21  S    
C50   H25   S    
C25   C62   S    
C48   C67   S    
H62   O10   S    
C88   C99   S    
O79   Zn17  S    
C27   C64   S    
C33   C71   S    
O2    Zn31  S    
C72   C96   S    
O121  Zn4   S    
C106  O88   A    
C10   S3    S    
C70   C134  S    
O76   Zn23  S    
C22   C23   S    
C108  O90   A    
C118  O111  A    
C43   C47   S    
C44   H37   S    
C27   I2    S    
C34   H27   S    
C19   H47   S    
C19   C56   S    
C40   C60   S    
O7    Zn26  S    
C40   H15   S    
O44   S4    D    
C121  C130  S    
C96   O130  A    
C17   C20   S    
O31   S15   D    
O104  Zn25  S    
C85   C86   T    
C112  O148  A    
C97   O132  A    
O103  Zn24  S    
C33   H61   S    
C83   C103  S    
C7    S15   S    
C6    C61   S    
C41   H33   S    
C36   C37   S    
O61   Zn12  S    
C78   C80   T    
C11   H4    S    
C38   H30   S    
C21   I12   S    
C25   I15   S    
C17   H44   S    
O132  Zn31  S    
O72   Zn10  S    
C9    H2    S    
C97   O79   A    
C124  C132  S    
C98   O80   A    
O37   S16   S    
C77   C93   S    
O65   Zn12  S    
O89   Zn9   S    
C17   I1    S    
C68   O13   A    
O124  Zn1   S    
C31   C32   S    
O99   Zn19  S    
O101  Zn21  S    
C44   H19   S    
C9    C10   S    
C42   C62   S    
C30   C67   S    
C22   I13   S    
O21   S12   D    
O80   Zn18  S    
C120  O115  A    
O17   S10   S    
C95   O129  A    
C4    C7    S    
O5    Zn24  S    
C81   C105  S    
C36   H28   S    
C28   H55   S    
C55   C143  S    
C103  O84   A    
C144  H23   S    
C120  C129  S    
C90   O146  A    
O28   S14   D    
C49   H24   S    
C39   H31   S    
C40   H32   S    
C23   I14   S    
O84   Zn22  S    
O120  Zn22  S    
C6    H67   S    
O40   S2    S    
O93   Zn14  S    
O144  Zn11  S    
O10   S1    S    
C26   C63   S    
C41   H16   S    
O116  Zn8   S    
C83   C84   T    
O4    Zn22  S    
O60   S8    S    
O16   S10   D    
O138  Zn6   S    
C25   H52   S    
O75   Zn14  S    
C18   C55   S    
C144  S10   S    
C16   S8    S    
C116  C125  S    
C39   H14   S    
C45   C65   S    
C84   C104  S    
O142  Zn30  S    
C118  C127  S    
O1    Zn9   S    
C50   H42   S    
C19   I10   S    
C46   O68   A    
C122  C131  S    
C109  O91   A    
C113  O99   A    
C132  C141  T    
C122  O117  A    
C15   C70   S    
C21   C25   S    
C92   O73   A    
C119  O112  A    
O135  Zn3   S    
H64   O17   S    
C5    C60   S    
C124  O118  A    
O148  Zn16  S    
O70   Zn2   S    
O109  Zn26  S    
O68   Zn4   S    
C68   O144  A    
O1    Zn16  S    
C110  O94   A    
O139  Zn7   S    
C17   C54   S    
C105  O86   A    
C82   C106  S    
C107  C139  S    
C43   H18   S    
C26   I16   S    
C31   C69   S    
C49   H41   S    
C49   C50   S    
O9    S1    D    
C14   C15   S    
C49   C69   S    
C29   I4    S    
C21   H49   S    
C20   C58   S    
O106  Zn30  S    
C86   C102  S    
O78   Zn16  S    
C87   C88   T    
O6    Zn25  S    
C79   O24   A    
O115  Zn7   S    
O54   S7    D    
O87   Zn29  S    
C107  O95   A    
O88   Zn26  S    
C36   H10   S    
C91   O72   A    
C16   C71   S    
O25   S13   D    
O94   Zn15  S    
C30   I5    S    
H63   O14   S    
C46   C66   S    
C35   O67   A    
C13   O152  A    
C35   C65   S    
C103  O137  A    
O98   Zn32  S    
H66   O23   S    
O76   Zn11  S    
C98   O133  A    
C18   C19   S    
C143  S9    S    
O74   Zn13  S    
O52   S6    D    
O108  Zn28  S    
C38   C58   S    
O129  Zn29  S    
H69   O30   S    
C13   O64   A    
C2    O63   A    
C104  O85   A    
O120  Zn5   S    
C47   C66   S    
C8    H80   S    
C11   C66   S    
O128  Zn28  S    
C87   C98   S    
C91   O125  A    
C32   C70   S    
C115  O103  A    
O87   Zn15  S    
C99   O134  A    
O127  Zn27  S    
C142  H1    S    
O59   S8    D    
O33   S15   S    
C121  O116  A    
O34   S16   D    
C130  C139  T    
C28   I3    S    
C39   C42   S    
O57   Zn1   S    
C29   H57   S    
O131  Zn6   S    
C116  O106  A    
O71   Zn9   S    
C110  O92   A    
O42   S3    D    
C114  O100  A    
O90   Zn10  S    
O126  Zn23  S    
O102  Zn22  S    
C32   H60   S    
C3    S11   S    
O12   S9    D    
C99   O81   A    
O73   Zn11  S    
C42   H35   S    
C20   I11   S    
C39   C59   S    
C14   H6    S    
C16   H8    S    
O105  Zn26  S    
C113  O105  A    
C54   C142  S    
C126  C135  T    
C4    S12   S    
C5    S13   S    
C44   C45   S    
C105  O139  A    
H79   O60   S    
O45   S4    D    
O109  Zn2   S    
C12   H5    S    
C45   H20   S    
C51   H26   S    
C1    C61   S    
C20   H48   S    
C108  O96   A    
C102  O83   A    
C80   C91   S    
C28   C65   S    
O131  Zn21  S    
C108  C138  S    
C111  C135  S    
O111  Zn23  S    
C101  O46   A    
O32   S15   D    
O120  Zn3   S    
C24   O66   A    
C51   H43   S    
C56   C144  S    
C3    C58   S    
C23   C61   S    
C48   H22   S    
C1    O142  A    
C115  O101  A    
O150  Zn18  S    
O56   S7    S    
C74   C94   S    
C121  O123  A    
O47   S4    S    
O11   S9    D    
O24   Zn29  S    
C109  O93   A    
H70   O33   S    
O50   S5    S    
O19   S11   D    
O107  Zn31  S    
O131  Zn4   S    
C37   H11   S    
O39   S2    D    
O118  Zn6   S    
C81   C82   T    
C18   I9    S    
C57   C62   S    
C100  O135  A    
O66   Zn6   S    
C73   C97   S    
O67   Zn3   S    
O131  Zn24  S    
O81   Zn19  S    
O14   S9    S    
O29   S14   D    
C117  O107  A    
O26   S13   D    
C31   I6    S    
O140  Zn8   S    
C111  O104  A    
C4    C59   S    
C24   O3    A    
O91   Zn11  S    
O65   Zn31  S    
H76   O53   S    
C48   C51   S    
C129  C138  T    
O152  Zn20  S    
H77   O56   S    
O134  Zn2   S    
C90   O35   A    
O110  Zn29  S    
O113  Zn1   S    
C31   H59   S    
C2    O151  A    
C142  S1    S    
C10   H3    S    
O120  Zn20  S    
C56   C90   S    
C32   I7    S    
O147  Zn15  S    
C35   O4    A    
H72   O40   S    
C92   O126  A    
C3    C142  S    
O96   Zn17  S    
O123  Zn2   S    
C89   O124  A    
C94   O128  A    
C24   C69   S    
C12   C67   S    
C74   C75   T    
C76   C77   T    
H68   O27   S    
C134  O150  A    
C106  O140  A    
C7    H78   S    
H65   O20   S    
O51   S6    D    
O49   S5    D    
O18   S11   D    
C53   O70   A    
O20   S11   S    
O43   S3    S    
O36   S16   D    
C128  C137  T    
C14   S6    S    
C59   C68   S    
C116  O113  A    
C93   O74   A    
O30   S14   S    
O97   Zn18  S    
O122  Zn32  S    
O48   S5    D    
C76   C92   S    
C40   C41   S    
O85   Zn24  S    
O143  Zn10  S    
O151  Zn19  S    
C117  O114  A    
C104  O138  A    
C23   H51   S    
C12   S5    S    
C13   C67   S    
C10   C65   S    
C125  C133  T    
C30   C33   S    
C8    S16   S    
C34   C38   S    
C4    H45   S    
C46   O5    A    
O55   S7    D    
O100  Zn20  S    
C52   O6    A    
C109  C141  S    
O86   Zn25  S    
O64   Zn5   S    
O38   S2    D    
O87   Zn13  S    
C112  O57   A    
O145  Zn13  S    
O137  Zn5   S    
C110  C140  S    
C85   C100  S    
O65   Zn17  S    
O98   Zn7   S    
C143  H12   S    
C8    C11   S    
O62   Zn7   S    
O98   Zn25  S    
C107  O89   A    
O112  Zn27  S    
C118  O108  A    
O35   Zn23  S    
C8    C63   S    
C37   H29   S    
C29   C66   S    
C26   C29   S    
H71   O37   S    
C27   C28   S    
C22   H50   S    
C134  O62   A    
C120  O122  A    
