data_mof_unit_22595.cif
_audit_creation_date              2012-12-11T14:06:49-0500
_audit_creation_method            fapswitch 2.2
_symmetry_space_group_name_H-M    P1
_symmetry_Int_Tables_number       1
_space_group_crystal_system       triclinic
_cell_length_a                    6.913948
_cell_length_b                    17.38442
_cell_length_c                    24.043881
_cell_angle_alpha                 104.25696
_cell_angle_beta                  90.156099
_cell_angle_gamma                 89.995447
_cell_volume                      2800.93509966

loop_
_atom_site_label
_atom_site_type_symbol
_atom_type_description
_atom_site_fract_x
_atom_site_fract_y
_atom_site_fract_z
_atom_type_partial_charge
O1    O     O_R   0.494290 0.391990 0.999150 -0.533025
O2    O     O_R   0.827170 0.534410 0.082350 -0.543258
O3    O     O_R   0.994360 0.608010 0.000850 -0.562099
C1    C     C_R   0.658485 0.549565 0.105822 0.805160
O4    O     O_R   0.824210 0.388010 0.004470 -0.517740
O5    O     O_R   0.991370 0.460560 0.922410 -0.547861
C2    C     C_R   0.655255 0.354179 0.998806 0.828150
O6    O     O_R   0.497270 0.539440 0.077590 -0.529006
O7    O     O_3   0.659770 0.523970 0.973170 -0.392047
V1    V     V_3+5 0.935840 0.495550 0.004980 1.547867
O8    O     O_R   0.320910 0.465590 0.917650 -0.534300
C3    C     C_R   0.152205 0.449016 0.894042 0.745434
O9    O     O_R   0.323870 0.611990 0.995530 -0.536875
C4    C     C_R   0.153758 0.645069 0.999452 0.758827
V2    V     V_3+5 0.435470 0.504450 0.995020 1.564310
O10   O     O_3   0.161670 0.476030 0.026830 -0.364241
C5    C     C_2   0.141417 0.731448 0.004995 -0.272558
C6    C     C_2   0.973658 0.768357 0.994209 -0.224397
C7    C     C_R   0.949978 0.279681 0.626149 0.634334
N1    N     N_R   0.090366 0.334392 0.647717 -0.553973
C8    C     C_R   0.209377 0.363161 0.612005 0.656566
C9    C     C_R   0.200549 0.331931 0.551435 -0.084188
C10   C     C_R   0.050386 0.277196 0.528889 0.005716
C11   C     C_R   0.923565 0.251967 0.566555 -0.016149
C12   C     C_R   0.331176 0.354316 0.512362 -0.048050
C13   C     C_R   0.304695 0.324777 0.453142 -0.191443
C14   C     C_R   0.155479 0.271407 0.430920 -0.055355
C15   C     C_R   0.026312 0.247547 0.468655 0.001874
C16   C     C_R   0.873364 0.194258 0.446153 -0.106067
C17   C     C_R   0.737072 0.174907 0.484989 -0.054660
C18   C     C_R   0.768981 0.201476 0.544305 -0.061613
C19   C     C_R   0.135071 0.240354 0.371368 0.621349
N2    N     N_R   0.993801 0.185991 0.350064 -0.544678
C20   C     C_R   0.867237 0.161149 0.385803 0.628889
O11   O     O_2   0.835184 0.252583 0.662450 -0.516206
O12   O     O_2   0.332320 0.422515 0.635358 -0.485088
H1    H     H_    0.406274 0.342080 0.424127 0.208869
O13   O     O_2   0.257152 0.263572 0.334932 -0.487287
O14   O     O_2   0.740510 0.103080 0.362782 -0.515999
H2    H     H_    0.666139 0.185487 0.573502 0.220429
C21   C     C_R   0.072186 0.080470 0.264951 -0.025361
H3    H     H_    0.146102 0.050821 0.293599 0.176731
C22   C     C_R   0.069252 0.046215 0.205564 -0.093704
C23   C     C_R   0.971632 0.085816 0.168773 -0.191386
C24   C     C_R   0.877259 0.159342 0.192493 -0.104539
C25   C     C_R   0.882959 0.193238 0.252688 -0.058483
C26   C     C_R   0.980714 0.152807 0.288744 0.270116
C27   C     C_R   0.982163 0.420689 0.740255 -0.046800
C28   C     C_R   0.997253 0.446224 0.800193 -0.117836
H4    H     H_    0.897417 0.490510 0.823639 0.178953
C29   C     C_R   0.142077 0.417516 0.830534 -0.139657
C30   C     C_R   0.274576 0.360148 0.800138 -0.087250
C31   C     C_R   0.257568 0.331101 0.739456 -0.050165
C32   C     C_R   0.111664 0.362749 0.709433 0.281626
C33   C     C_R   0.395838 0.846267 0.613729 0.614620
N3    N     N_R   0.522269 0.820847 0.649182 -0.561720
C34   C     C_R   0.662734 0.765989 0.627527 0.641603
C35   C     C_R   0.677224 0.732117 0.567314 -0.085390
C36   C     C_R   0.546954 0.759180 0.530414 0.007938
C37   C     C_R   0.405133 0.815875 0.554023 -0.017085
C38   C     C_R   0.818307 0.674095 0.542133 -0.050306
C39   C     C_R   0.832187 0.648482 0.482255 -0.176987
C40   C     C_R   0.703952 0.675351 0.445917 -0.015280
C41   C     C_R   0.558590 0.730111 0.469773 -0.011210
C42   C     C_R   0.425613 0.755965 0.433056 -0.089091
C43   C     C_R   0.276543 0.809737 0.458394 -0.016528
C44   C     C_R   0.272155 0.840326 0.517877 -0.149237
C45   C     C_R   0.717976 0.647854 0.385872 0.655307
N4    N     N_R   0.594376 0.675224 0.350569 -0.571326
C46   C     C_R   0.451175 0.728433 0.372635 0.598019
O15   O     O_2   0.260785 0.900984 0.636405 -0.512450
O16   O     O_2   0.789370 0.746206 0.664307 -0.482481
H5    H     H_    0.941914 0.605101 0.463939 0.189154
O17   O     O_2   0.856267 0.594830 0.362850 -0.500699
O18   O     O_2   0.338420 0.755812 0.335946 -0.479988
H6    H     H_    0.158417 0.881759 0.536194 0.197531
C47   C     C_R   0.697378 0.692218 0.254506 -0.050300
C48   C     C_R   0.722607 0.658361 0.194606 -0.064841
C49   C     C_R   0.648657 0.581347 0.169072 -0.195751
C50   C     C_R   0.559871 0.536638 0.204104 -0.068711
C51   C     C_R   0.545877 0.569416 0.263379 -0.090027
H7    H     H_    0.482108 0.535207 0.290726 0.171145
C52   C     C_R   0.613182 0.645799 0.288920 0.268045
C53   C     C_R   0.359456 0.822001 0.741281 -0.044521
C54   C     C_R   0.336081 0.854651 0.801366 -0.066935
C55   C     C_R   0.467561 0.913216 0.831076 -0.132759
C56   C     C_R   0.615759 0.939336 0.800510 -0.175070
H8    H     H_    0.714893 0.984400 0.823577 0.157717
C57   C     C_R   0.633899 0.911296 0.740829 0.020939
C58   C     C_R   0.504468 0.852226 0.710734 0.223637
C59   C     C_2   0.646421 0.266453 0.989433 -0.175087
C60   C     C_2   0.478243 0.230278 0.998634 -0.337410
H9    H     H_    0.350244 0.266070 0.012251 0.203225
O19   O     O_R   0.618210 0.960470 0.922400 -0.530882
O20   O     O_R   0.291310 0.111960 0.995450 -0.516289
O21   O     O_R   0.124210 0.039530 0.077580 -0.539170
C61   C     C_R   0.462011 0.144554 0.996997 0.761898
O22   O     O_R   0.288310 0.965490 0.917650 -0.552497
O23   O     O_R   0.121180 0.892010 0.999220 -0.573569
C62   C     C_R   0.456710 0.947622 0.894238 0.681044
O24   O     O_R   0.621230 0.107990 0.000760 -0.543565
O25   O     O_3   0.455770 0.976060 0.026840 -0.381718
V3    V     V_3+5 0.179680 0.004440 0.995020 1.495532
O26   O     O_R   0.791670 0.888040 0.004570 -0.529415
C63   C     C_R   0.961658 0.854879 0.000315 0.749113
O27   O     O_R   0.794680 0.034510 0.082370 -0.534096
C64   C     C_R   0.963435 0.050400 0.105827 0.728943
V4    V     V_3+5 0.680070 0.995560 0.005010 1.519800
O28   O     O_3   0.953840 0.023940 0.973160 -0.371283
C65   C     C_2   0.321908 0.775819 0.025710 0.407620
H10   H     H_    0.394846 0.809869 0.999829 0.092522
O29   O     O_2   0.393834 0.772013 0.071366 -0.504621
C66   C     C_2   0.794354 0.272209 0.277977 0.877366
O30   O     O_2   0.705116 0.283653 0.323112 -0.533439
O31   O     O_R   0.814946 0.333872 0.250461 -0.637103
H11   H     H_    0.748305 0.384491 0.271768 0.321683
C67   C     C_2   0.830311 0.455151 0.709813 0.562125
H12   H     H_    0.825445 0.440717 0.663341 0.098349
O32   O     O_2   0.708384 0.500438 0.736295 -0.478488
C68   C     C_2   0.425448 0.328204 0.832341 0.713439
O33   O     O_2   0.378396 0.293843 0.868899 -0.562969
O34   O     O_R   0.620903 0.338605 0.821337 -0.658505
H13   H     H_    0.709941 0.315127 0.846413 0.287557
C69   C     C_2   0.386237 0.264894 0.708744 0.491034
H14   H     H_    0.499911 0.242390 0.731449 0.097584
O35   O     O_2   0.365746 0.232763 0.657918 -0.508129
C70   C     C_2   0.951076 0.635302 0.575312 0.825577
O36   O     O_2   0.886852 0.602028 0.610605 -0.504000
O37   O     O_R   0.148979 0.632039 0.563073 -0.670093
H15   H     H_    0.224918 0.602425 0.587364 0.321268
C71   C     C_2   0.113741 0.832332 0.425853 0.852221
O38   O     O_2   0.016781 0.780826 0.394306 -0.555415
O39   O     O_R   0.063695 0.912260 0.434070 -0.634273
H16   H     H_    0.947229 0.920047 0.410324 0.316742
C72   C     C_2   0.747795 0.776644 0.281795 0.587684
H17   H     H_    0.754053 0.797441 0.327992 0.074515
O40   O     O_2   0.772727 0.825349 0.253597 -0.487965
C73   C     C_2   0.793679 0.724106 0.972423 0.419231
H18   H     H_    0.722170 0.687390 0.996566 0.122758
O41   O     O_2   0.719385 0.731424 0.927883 -0.528176
C74   C     C_2   0.830774 0.702137 0.158729 0.840884
O42   O     O_2   0.756417 0.714398 0.115543 -0.556933
O43   O     O_R   0.018586 0.728848 0.174425 -0.617811
H19   H     H_    0.077305 0.757895 0.146794 0.327984
C75   C     C_2   0.485390 0.454429 0.181091 0.778071
O44   O     O_2   0.549993 0.412191 0.136697 -0.572110
O45   O     O_R   0.343487 0.424400 0.211415 -0.635853
H20   H     H_    0.304838 0.367926 0.191893 0.329690
C76   C     C_2   0.242510 0.752957 0.709729 0.589026
H21   H     H_    0.207132 0.746114 0.664882 0.054522
O46   O     O_2   0.192127 0.700895 0.732641 -0.469454
C77   C     C_2   0.176856 0.827712 0.833509 0.543276
H22   H     H_    0.203233 0.818829 0.876002 0.010125
O47   O     O_2   0.013388 0.817954 0.813649 -0.486003
C78   C     C_2   0.790494 0.945084 0.711529 0.846786
O48   O     O_2   0.783107 0.940000 0.659939 -0.525780
O49   O     O_R   0.946526 0.984333 0.743533 -0.660834
H23   H     H_    0.042577 0.005641 0.719256 0.337302
C79   C     C_2   0.818128 0.219716 0.962694 0.453771
H24   H     H_    0.799730 0.161603 0.933653 0.052199
O50   O     O_2   0.981752 0.246270 0.971686 -0.518213
C80   C     C_2   0.504073 0.404739 0.530140 0.852414
O51   O     O_2   0.621254 0.388098 0.563483 -0.551840
O52   O     O_R   0.538807 0.468577 0.505749 -0.649756
H25   H     H_    0.663688 0.497376 0.519976 0.310023
C81   C     C_2   0.551783 0.133115 0.466073 0.482696
H26   H     H_    0.479889 0.139302 0.427309 0.094180
O53   O     O_2   0.473186 0.093336 0.494898 -0.493518
C82   C     C_2   0.162668 0.967564 0.182992 0.508555
H27   H     H_    0.149013 0.936436 0.138173 0.021773
O54   O     O_2   0.255732 0.935924 0.214477 -0.475760
C83   C     C_2   0.768937 0.199871 0.154355 0.828487
O55   O     O_2   0.847488 0.213051 0.112125 -0.546000
O56   O     O_R   0.576674 0.222474 0.166761 -0.647397
H28   H     H_    0.517417 0.248127 0.137169 0.306002

loop_
_geom_bond_atom_site_label_1
_geom_bond_atom_site_label_2
_ccdc_geom_bond_type
O23   V3    S    
C56   H8    S    
O49   H23   S    
C78   O49   S    
C82   O54   D    
C82   H27   S    
O45   H20   S    
O26   V4    S    
C1    O6    A    
C5    C65   S    
C75   O44   D    
C22   C82   S    
C72   H17   S    
C8    O12   S    
C31   C32   A    
C18   H2    S    
C27   C32   A    
O19   V4    S    
C13   C14   A    
C16   C17   A    
C15   C16   A    
O43   H19   S    
C66   O30   D    
N4    C46   A    
C76   O46   D    
O5    C3    A    
C17   C18   A    
C57   C78   S    
O27   C64   A    
C47   C52   A    
C45   O17   S    
O22   V3    S    
V4    O28   S    
C5    C6    D    
C21   H3    S    
C6    C73   S    
O56   H28   S    
C60   H9    S    
C75   O45   S    
C65   H10   S    
O8    V2    S    
C7    N1    A    
C37   C44   A    
O20   V3    S    
C45   N4    A    
C28   C29   A    
C9    C12   A    
C10   C11   A    
C79   O50   D    
C39   H5    S    
O25   V4    S    
O1    V2    S    
C19   O13   S    
C55   C62   S    
O7    V1    S    
C59   C79   S    
C47   C48   A    
C33   C37   A    
C53   C76   S    
C35   C38   A    
N3    C58   S    
C43   C44   A    
C36   C37   A    
C8    C9    A    
C81   O53   D    
C21   C22   A    
C4    C5    S    
O25   V3    S    
C74   O42   D    
C53   C58   A    
O26   C63   A    
C51   C52   A    
C68   O34   S    
C60   C61   S    
C51   H7    S    
C80   O52   S    
C9    C10   A    
O23   C63   A    
C20   O14   S    
C53   C54   A    
C17   C81   S    
C1    C49   S    
N1    C32   S    
C48   C74   S    
C57   C58   A    
C59   C60   D    
O4    C2    A    
C55   C56   A    
C11   C18   A    
C35   C36   A    
C54   C55   A    
C16   C20   A    
C29   C30   A    
C74   O43   S    
O2    C1    A    
C22   C23   A    
C70   O37   S    
C39   C40   A    
N4    C52   S    
C61   O24   A    
C79   H24   S    
O19   C62   A    
C12   C80   S    
C2    C59   S    
C33   N3    A    
N2    C20   A    
C21   C26   A    
C34   C35   A    
C38   C70   S    
C12   C13   A    
C10   C15   A    
N1    C8    A    
O3    C4    A    
C73   O41   D    
C30   C68   S    
C50   C75   S    
O21   C64   A    
C77   O47   D    
C71   O38   D    
C42   C43   A    
O6    V2    S    
O22   C62   A    
O9    V2    S    
O39   H16   S    
N2    C26   S    
C49   C50   A    
C24   C25   A    
N3    C34   A    
C70   O36   D    
O2    V1    S    
C24   C83   S    
C14   C15   A    
C3    C29   S    
C83   O55   D    
C69   O35   D    
C80   O51   D    
C23   C64   S    
C72   O40   D    
C25   C26   A    
O52   H25   S    
C25   C66   S    
C14   C19   A    
O1    C2    A    
C23   C24   A    
C50   C51   A    
C71   O39   S    
C31   C69   S    
O5    V1    S    
O8    C3    A    
O20   C61   A    
C13   H1    S    
C27   C67   S    
C40   C45   A    
C67   H12   S    
V3    O28   S    
C41   C42   A    
C67   O32   D    
C7    C11   A    
O37   H15   S    
C6    C63   S    
O4    V1    S    
O3    V1    S    
C7    O11   S    
C76   H21   S    
C19   N2    A    
C48   C49   A    
O31   H11   S    
C81   H26   S    
O27   V4    S    
O24   V4    S    
C27   C28   A    
C43   C71   S    
C83   O56   S    
C34   O16   S    
O7    V2    S    
C38   C39   A    
C65   O29   D    
C54   C77   S    
C73   H18   S    
C40   C41   A    
C36   C41   A    
C77   H22   S    
C46   O18   S    
C28   H4    S    
O21   V3    S    
C78   O48   D    
O34   H13   S    
C56   C57   A    
C68   O33   D    
V1    O10   S    
C44   H6    S    
C47   C72   S    
C42   C46   A    
O9    C4    A    
C33   O15   S    
V2    O10   S    
C30   C31   A    
C69   H14   S    
C66   O31   S    
