data_mof_unit_18629.cif
_audit_creation_date              2012-10-26T20:51:09-0400
_audit_creation_method            fapswitch 2.2
_symmetry_space_group_name_H-M    P1
_symmetry_Int_Tables_number       1
_space_group_crystal_system       triclinic
_cell_length_a                    13.048462
_cell_length_b                    10.837535
_cell_length_c                    9.537633
_cell_angle_alpha                 90.553615
_cell_angle_beta                  95.299407
_cell_angle_gamma                 90.953718
_cell_volume                      1342.7108331

loop_
_atom_site_label
_atom_site_type_symbol
_atom_type_description
_atom_site_fract_x
_atom_site_fract_y
_atom_site_fract_z
_atom_type_partial_charge
C1    C     C_R   0.497422 0.262364 0.499034 0.530844
C2    C     C_R   0.476992 0.934151 0.369396 -0.160777
C3    C     C_R   0.488166 0.871007 0.498143 0.009260
C4    C     C_R   0.300834 0.493329 0.474821 0.546569
C5    C     C_R   0.484062 0.938180 0.623010 0.028519
C6    C     C_3   0.554710 0.937336 0.755289 -0.276965
C7    C     C_3   0.551811 0.076929 0.755282 -0.267883
C8    C     C_R   0.530619 0.603087 0.079053 0.122018
C9    C     C_R   0.457907 0.404358 0.068048 -0.015281
C10   C     C_R   0.457168 0.404807 0.919103 0.005371
C11   C     C_R   0.534224 0.601236 0.932161 0.206344
C12   C     C_R   0.025825 0.456370 0.563845 0.050086
C13   C     C_3   0.640253 0.657667 0.947135 0.080669
C14   C     C_3   0.631802 0.668184 0.104321 -0.234174
C15   C     C_R   0.498375 0.737846 0.500084 0.550431
C16   C     C_R   0.699082 0.492518 0.524635 0.560220
C17   C     C_R   0.810786 0.474149 0.535344 -0.002297
C18   C     C_R   0.188544 0.480505 0.461074 0.000171
C19   C     C_R   0.028854 0.497188 0.313358 -0.144424
C20   C     C_R   0.135226 0.501605 0.329450 -0.191652
C21   C     C_R   0.133363 0.450903 0.577987 0.229533
C22   C     C_3   0.782665 0.360046 0.231220 0.034272
C23   C     C_R   0.973238 0.475714 0.429747 0.022687
C24   C     C_3   0.843599 0.319666 0.109557 -0.270524
C25   C     C_3   0.793825 0.206700 0.032361 -0.479445
C26   C     C_R   0.865688 0.474330 0.413921 0.253510
C27   C     C_R   0.863539 0.453247 0.667465 -0.213684
C28   C     C_R   0.969722 0.441627 0.681286 -0.135228
C29   C     C_R   0.482690 0.065276 0.622086 0.021294
C30   C     C_R   0.486345 0.129316 0.496525 0.007807
C31   C     C_R   0.476241 0.062874 0.368581 -0.165221
Cu1   Cu    Cu3+1 0.499990 0.499980 0.640670 0.989206
Cu2   Cu    Cu3+1 0.500010 0.500020 0.359330 0.931724
H1    H     H_    0.631907 0.901847 0.737258 0.129424
H2    H     H_    0.990563 0.515195 0.210170 0.160510
H3    H     H_    0.007742 0.425259 0.785100 0.173421
H4    H     H_    0.175719 0.523178 0.238338 0.151120
H5    H     H_    0.473038 0.109736 0.268518 0.123291
H6    H     H_    0.473870 0.884966 0.269655 0.132226
H7    H     H_    0.517350 0.896047 0.844338 0.125451
H8    H     H_    0.700183 0.365506 0.191092 0.190833
H9    H     H_    0.787558 0.287748 0.314295 0.106769
H10   H     H_    0.847430 0.396222 0.033492 0.194710
H11   H     H_    0.923331 0.297114 0.151197 0.152004
H12   H     H_    0.511737 0.115794 0.843194 0.124678
H13   H     H_    0.789563 0.128327 0.105927 0.144309
H14   H     H_    0.840493 0.179020 0.946011 0.148466
H15   H     H_    0.715009 0.228321 0.985873 0.156631
H16   H     H_    0.781855 0.617132 0.932333 0.313894
H17   H     H_    0.234234 0.354366 0.685701 0.327077
H18   H     H_    0.627351 0.121416 0.739944 0.140160
H19   H     H_    0.425423 0.325926 0.118621 0.111769
H20   H     H_    0.423477 0.327081 0.858524 0.110034
H21   H     H_    0.647263 0.747078 0.894064 0.096167
H22   H     H_    0.689498 0.615235 0.169258 0.230767
H23   H     H_    0.623304 0.764878 0.140846 0.073365
H24   H     H_    0.822726 0.444455 0.760492 0.180125
N1    N     N_R   0.500660 0.500930 0.148010 -0.239654
N2    N     N_R   0.500660 0.500890 0.852110 -0.201601
O1    O     O_R   0.500000 0.319640 0.618810 -0.519046
O2    O     O_3   0.714671 0.572619 0.916082 -0.692488
O3    O     O_3   0.182001 0.415934 0.705687 -0.709429
O4    O     O_R   0.500010 0.319680 0.381230 -0.530369
O5    O     O_R   0.348990 0.499960 0.599490 -0.479523
O6    O     O_R   0.349000 0.500000 0.361910 -0.508778
O7    O     O_R   0.499990 0.680320 0.618770 -0.500051
O8    O     O_R   0.500000 0.680360 0.381190 -0.509018
O9    O     O_R   0.651000 0.500000 0.638090 -0.457096
O10   O     O_R   0.651010 0.500040 0.400510 -0.483700
O11   O     O_3   0.815726 0.479792 0.279617 -0.589426

loop_
_geom_bond_atom_site_label_1
_geom_bond_atom_site_label_2
_ccdc_geom_bond_type
H17   O3    S    
C19   C23   A    
Cu2   N1    S    
C16   O9    A    
C7    H18   S    
C18   C21   A    
C9    C10   A    
C25   H14   S    
C14   H23   S    
C19   C20   A    
C12   C23   A    
C31   H5    S    
Cu2   O10   S    
Cu1   O9    S    
C4    C18   S    
Cu1   Cu2   S    
C2    C3    A    
C15   O8    A    
C4    O5    A    
Cu2   O8    S    
C22   H9    S    
C13   C14   S    
C15   O7    A    
C20   H4    S    
C11   C13   S    
C25   H15   S    
C28   H3    S    
C21   O3    S    
C6    C7    S    
C9    H19   S    
C12   C21   A    
C12   C28   A    
C8    C11   A    
C11   N2    A    
C5    C6    S    
C7    H12   S    
C1    C30   S    
C24   H11   S    
C14   H22   S    
C5    C29   A    
C30   C31   A    
C26   O11   S    
C22   C24   S    
Cu2   O4    S    
C23   C26   A    
C22   H8    S    
H16   O2    S    
C17   C26   A    
C29   C30   A    
C7    C29   S    
C17   C27   A    
C1    O4    A    
C6    H7    S    
C13   O2    S    
C24   C25   S    
Cu1   O5    S    
C18   C20   A    
Cu1   O7    S    
C13   H21   S    
C27   H24   S    
C1    O1    A    
C6    H1    S    
C27   C28   A    
C24   H10   S    
C10   H20   S    
Cu1   O1    S    
C4    O6    A    
C9    N1    A    
C3    C15   S    
C19   H2    S    
C8    C14   S    
Cu1   N2    S    
C8    N1    A    
C2    H6    S    
C10   N2    A    
C25   H13   S    
C22   O11   S    
C16   O10   A    
Cu2   O6    S    
C16   C17   S    
C2    C31   A    
C3    C5    A    
