data_mof_unit_46389.cif
_audit_creation_date              2013-03-05T16:10:28-0500
_audit_creation_method            fapswitch 2.2
_symmetry_space_group_name_H-M    P1
_symmetry_Int_Tables_number       1
_space_group_crystal_system       triclinic
_cell_length_a                    10.689923
_cell_length_b                    9.844812
_cell_length_c                    14.849449
_cell_angle_alpha                 89.921695
_cell_angle_beta                  90.195216
_cell_angle_gamma                 89.892413
_cell_volume                      1562.74690461

loop_
_atom_site_label
_atom_site_type_symbol
_atom_site_description
_atom_site_fract_x
_atom_site_fract_y
_atom_site_fract_z
_atom_type_partial_charge
O1    O     O_R   0.316770 0.614620 0.499990 -0.625738
O2    O     O_R   0.683230 0.385380 0.500010 -0.625990
O3    O     O_R   0.683230 0.614620 0.500010 -0.628956
O4    O     O_R   0.316770 0.385380 0.499990 -0.628086
C1    C     C_R   0.259935 0.500080 0.499992 0.862055
C2    C     C_R   0.740062 0.499906 0.499820 0.863866
O5    O     O_R   0.499980 0.614680 0.367850 -0.614644
O6    O     O_R   0.500020 0.385320 0.632150 -0.619731
O7    O     O_R   0.500020 0.614680 0.632150 -0.611720
O8    O     O_R   0.499980 0.385320 0.367850 -0.613272
C3    C     C_R   0.500863 0.500301 0.326964 0.899535
C4    C     C_R   0.497349 0.500038 0.673280 0.901595
Zn1   Zn    Zn3+2 0.500000 0.653120 0.500000 0.958213
Zn2   Zn    Zn3+2 0.500000 0.346880 0.500000 0.952997
C5    C     C_R   0.590061 0.569502 0.812705 -0.235304
C6    C     C_R   0.387336 0.484405 0.188137 -0.245424
C7    C     C_R   0.492561 0.503330 0.769468 -0.086425
C8    C     C_R   0.500934 0.503824 0.231172 -0.077898
C9    C     C_R   0.386775 0.457060 0.816016 0.137490
C10   C     C_R   0.608787 0.544274 0.185210 0.135800
C11   C     C_R   0.374968 0.492495 0.907715 0.085672
C12   C     C_R   0.597557 0.578735 0.093304 0.080273
C13   C     C_R   0.483014 0.540694 0.953552 -0.051553
C14   C     C_R   0.485878 0.541046 0.047462 -0.055225
C15   C     C_R   0.589883 0.583395 0.905486 0.036370
C16   C     C_R   0.378706 0.498344 0.095449 0.042737
C17   C     C_R   0.260808 0.482061 0.955808 0.084693
C18   C     C_R   0.692418 0.648479 0.045108 0.111797
C19   C     C_R   0.264441 0.476339 0.050208 0.262168
C20   C     C_R   0.691873 0.643304 0.950681 0.261771
H1    H     H_    0.667763 0.605079 0.772577 0.192882
H2    H     H_    0.307097 0.456407 0.228332 0.188967
C21   C     C_R   0.064411 0.383254 0.527596 -0.189393
C22   C     C_R   0.935572 0.616542 0.471647 -0.179000
C23   C     C_R   0.936277 0.383053 0.527328 -0.173386
C24   C     C_R   0.063726 0.616737 0.471899 -0.164808
H3    H     H_    0.113790 0.293069 0.550143 0.160487
H4    H     H_    0.886168 0.706726 0.449134 0.155912
H5    H     H_    0.887453 0.292742 0.549685 0.154577
H6    H     H_    0.112580 0.707031 0.449546 0.153269
C25   C     C_R   0.872476 0.499766 0.499492 -0.010935
C26   C     C_R   0.127517 0.500107 0.499907 -0.013444
C27   C     C_R   0.580232 0.071666 0.554270 -0.066551
C28   C     C_R   0.419731 0.928333 0.445760 -0.064331
C29   C     C_R   0.419726 0.072208 0.445766 -0.062311
C30   C     C_R   0.580230 0.927789 0.554273 -0.059828
H7    H     H_    0.644386 0.125953 0.597657 0.134096
H8    H     H_    0.355550 0.874044 0.402393 0.132359
H9    H     H_    0.355546 0.126926 0.402396 0.139374
H10   H     H_    0.644364 0.873066 0.597682 0.143413
N1    N     N_R   0.500000 0.857200 0.500000 -0.085959
N2    N     N_R   0.500000 0.142800 0.500000 -0.085898
C31   C     C_3   0.297817 0.359382 0.769536 -0.881842
H11   H     H_    0.351446 0.276246 0.737201 0.260350
H12   H     H_    0.235071 0.306624 0.817168 0.255483
H13   H     H_    0.242074 0.413422 0.717337 0.230496
C32   C     C_3   0.734285 0.529294 0.232550 -0.860418
H14   H     H_    0.736423 0.433536 0.272217 0.238882
H15   H     H_    0.812815 0.520370 0.184444 0.283958
H16   H     H_    0.749968 0.615312 0.279500 0.233021
C33   C     C_3   0.134852 0.498452 0.910012 -0.754308
H17   H     H_    0.143180 0.535117 0.839713 0.245847
H18   H     H_    0.082178 0.401404 0.911800 0.259595
H19   H     H_    0.079497 0.577518 0.945320 0.287344
C34   C     C_3   0.783415 0.743930 0.091047 -0.792267
H20   H     H_    0.754580 0.769398 0.160548 0.235431
H21   H     H_    0.879167 0.700000 0.090941 0.276696
H22   H     H_    0.785191 0.842917 0.055130 0.266562
Br1   Br    Br    0.111329 0.441062 0.115900 -0.569905
Br2   Br    Br    0.831503 0.719635 0.884767 -0.571484

loop_
_geom_bond_atom_site_label_1
_geom_bond_atom_site_label_2
_geom_bond_distance
_ccdc_geom_bond_type
C4    C7    1.429842 S    
C33   H19   1.110155 S    
C23   H5    1.084077 S    
C13   C14   1.394742 A    
C3    C8    1.422838 S    
C5    H1    1.082399 S    
C34   H21   1.110461 S    
C17   C19   1.403236 A    
C30   H10   1.081864 S    
O3    C2    1.281386 A    
C24   C26   1.396490 A    
O3    Zn1   1.994349 S    
C29   H9    1.081812 S    
O6    C4    1.284993 A    
C34   H22   1.110493 S    
C9    C31   1.518616 S    
C18   C20   1.403180 A    
C18   C34   1.515025 S    
C11   C17   1.419880 A    
O4    Zn2   1.994351 S    
C12   C18   1.420629 A    
C31   H11   1.109172 S    
O5    C3    1.280055 A    
C14   C16   1.415483 A    
C32   H14   1.111080 S    
O2    C2    1.281762 A    
C22   C25   1.396821 A    
C16   C19   1.409282 A    
O1    C1    1.281889 A    
C21   C26   1.396807 A    
C28   N1    1.366340 A    
C1    C26   1.415523 S    
C21   C23   1.369731 A    
C10   C12   1.410499 A    
C21   H3    1.084091 S    
C22   C24   1.369954 A    
C31   H12   1.106114 S    
C11   C13   1.421298 A    
C6    C16   1.385739 A    
C33   H17   1.108003 S    
O2    Zn2   1.995747 S    
C27   C30   1.416444 A    
C12   C14   1.422375 A    
C27   N2    1.366364 A    
C5    C15   1.384702 A    
C32   H15   1.107586 S    
O7    C4    1.282967 A    
C23   C25   1.396460 A    
C24   H6    1.084075 S    
C13   C15   1.413448 A    
O1    Zn1   1.995749 S    
C28   C29   1.416422 A    
C8    C10   1.400012 A    
C6    C8    1.384018 A    
C34   H20   1.107062 S    
O8    C3    1.283839 A    
C31   H13   1.110624 S    
C15   C20   1.409059 A    
C5    C7    1.386391 A    
C19   Br1   1.939916 S    
O7    Zn1   1.998001 S    
C6    H2    1.082537 S    
C7    C9    1.403744 A    
C32   H16   1.110239 S    
O6    Zn2   1.999017 S    
O5    Zn1   1.999019 S    
C17   C33   1.514631 S    
C29   N2    1.366380 A    
C20   Br2   1.939799 S    
C10   C32   1.519297 S    
Zn1   N1    2.009129 S    
C27   H7    1.081828 S    
C30   N1    1.366406 A    
C33   H18   1.110249 S    
Zn2   N2    2.009129 S    
C28   H8    1.081847 S    
O8    Zn2   1.998003 S    
O4    C1    1.281273 A    
C9    C11   1.412125 A    
C2    C25   1.415512 S    
C22   H4    1.084055 S    
