data_mof_unit_60068.cif
_audit_creation_date              2012-12-11T17:27:19-0500
_audit_creation_method            fapswitch 2.2
_symmetry_space_group_name_H-M    P1
_symmetry_Int_Tables_number       1
_space_group_crystal_system       triclinic
_cell_length_a                    6.954577
_cell_length_b                    21.21603
_cell_length_c                    22.929119
_cell_angle_alpha                 92.982263
_cell_angle_beta                  89.107428
_cell_angle_gamma                 89.504714
_cell_volume                      3378.01419795

loop_
_atom_site_label
_atom_site_type_symbol
_atom_type_description
_atom_site_fract_x
_atom_site_fract_y
_atom_site_fract_z
_atom_type_partial_charge
O1    O     O_R   0.494570 0.443040 0.441850 -0.532552
O2    O     O_R   0.823720 0.437670 0.557760 -0.535918
O3    O     O_R   0.994070 0.556960 0.558150 -0.522738
C1    C     C_R   0.654348 0.422754 0.577098 0.726852
O4    O     O_R   0.824280 0.435690 0.442260 -0.537716
O5    O     O_R   0.994640 0.554970 0.441830 -0.532205
C2    C     C_R   0.657246 0.420621 0.422729 0.743667
O6    O     O_R   0.494000 0.445030 0.558170 -0.533268
O7    O     O_3   0.660820 0.539140 0.499990 -0.364120
V1    V     V_3+5 0.935650 0.492740 0.500000 1.417514
O8    O     O_R   0.324360 0.562330 0.442240 -0.535065
C3    C     C_R   0.155992 0.576923 0.422453 0.730896
O9    O     O_R   0.323800 0.564310 0.557740 -0.524562
C4    C     C_R   0.153224 0.582211 0.580005 0.700346
V2    V     V_3+5 0.435660 0.507260 0.500000 1.419352
O10   O     O_3   0.160620 0.460860 0.500010 -0.361971
C5    C     C_1   0.139860 0.633358 0.631310 -0.208069
C6    C     C_1   0.128971 0.675043 0.673630 0.009733
C7    C     C_1   0.115976 0.724812 0.724371 -0.003553
C8    C     C_1   0.105117 0.766384 0.766790 -0.003412
C9    C     C_1   0.092098 0.816159 0.817525 0.010227
C10   C     C_1   0.081150 0.857857 0.859835 -0.207049
H1    H     H_    0.384802 0.755696 0.173677 0.117454
C11   C     C_R   0.283121 0.707326 0.249083 0.148421
C12   C     C_R   0.128360 0.700943 0.289335 0.117800
C13   C     C_R   0.961005 0.737483 0.283353 -0.200486
H2    H     H_    0.841181 0.733300 0.313619 0.124207
C14   C     C_R   0.946108 0.779847 0.238521 -0.168846
H3    H     H_    0.815191 0.807343 0.235008 0.122493
C15   C     C_R   0.098765 0.786839 0.198778 0.111040
C16   C     C_R   0.266608 0.750518 0.204385 -0.187400
C17   C     C_1   0.138540 0.657650 0.336899 -0.049776
C18   C     C_1   0.084248 0.831510 0.152595 -0.044832
C19   C     C_1   0.073881 0.868974 0.114203 -0.192217
C20   C     C_1   0.147070 0.621190 0.376124 -0.196066
C21   C     C_R   0.439306 0.241429 0.780949 -0.188324
H4    H     H_    0.310805 0.237351 0.807816 0.117857
C22   C     C_R   0.595900 0.200906 0.789126 0.110376
C23   C     C_R   0.762173 0.206233 0.754509 -0.162245
H5    H     H_    0.884551 0.175340 0.760215 0.123678
C24   C     C_R   0.771876 0.251382 0.712062 -0.205076
H6    H     H_    0.901439 0.254269 0.685519 0.123559
C25   C     C_R   0.616219 0.292337 0.703699 0.118598
C26   C     C_R   0.447541 0.287448 0.738660 0.149414
C27   C     C_1   0.585665 0.154003 0.833086 -0.046153
C28   C     C_1   0.631701 0.338324 0.658846 -0.051431
C29   C     C_1   0.643072 0.376801 0.621583 -0.193097
C30   C     C_1   0.576686 0.114995 0.869942 -0.187777
C31   C     C_R   0.442942 0.250333 0.205926 -0.193281
H7    H     H_    0.314023 0.247016 0.179967 0.118327
C32   C     C_R   0.595810 0.208401 0.193906 0.117523
C33   C     C_R   0.763876 0.211501 0.226192 -0.163906
H8    H     H_    0.882059 0.178774 0.216526 0.124251
C34   C     C_R   0.778314 0.256223 0.271988 -0.208439
H9    H     H_    0.907544 0.257803 0.297846 0.124530
C35   C     C_R   0.625114 0.297785 0.285009 0.126541
C36   C     C_R   0.456056 0.296070 0.251674 0.147769
C37   C     C_1   0.579179 0.160700 0.149208 -0.055300
C38   C     C_1   0.641586 0.340241 0.334132 -0.060520
C39   C     C_1   0.651431 0.376397 0.375212 -0.199521
C40   C     C_1   0.569158 0.119826 0.112024 -0.194294
O11   O     O_R   0.726340 0.046440 0.933120 -0.533571
O12   O     O_R   0.395690 0.055650 0.048950 -0.537058
O13   O     O_R   0.225700 0.936320 0.049330 -0.532139
C41   C     C_R   0.562752 0.071365 0.068077 0.742410
O14   O     O_R   0.396600 0.053690 0.933450 -0.535695
O15   O     O_R   0.226620 0.934340 0.933010 -0.522990
C42   C     C_R   0.565944 0.068696 0.914165 0.726103
O16   O     O_R   0.725420 0.048420 0.049440 -0.533188
O17   O     O_3   0.559650 0.952270 0.991250 -0.364373
V3    V     V_3+5 0.284670 0.998570 0.991180 1.421985
O18   O     O_R   0.896930 0.926880 0.933340 -0.525141
C43   C     C_R   0.067593 0.909021 0.911124 0.699166
O19   O     O_R   0.896010 0.928840 0.048840 -0.535541
C44   C     C_R   0.064434 0.914106 0.068537 0.728290
V4    V     V_3+5 0.784710 0.983880 0.991060 1.422420
O20   O     O_3   0.059600 0.030370 0.991120 -0.361318
C45   C     C_3   0.466853 0.669180 0.253096 -0.370688
C46   C     C_3   0.440710 0.601333 0.229160 -0.733213
H10   H     H_    0.329910 0.576941 0.254825 0.226945
H11   H     H_    0.397152 0.600819 0.182722 0.227827
H12   H     H_    0.578747 0.575000 0.231788 0.216331
H13   H     H_    0.584683 0.690591 0.227700 0.182577
H14   H     H_    0.514165 0.669397 0.299172 0.181226
C47   C     C_3   0.274923 0.330090 0.731482 -0.373561
C48   C     C_3   0.307626 0.395860 0.759550 -0.727749
H15   H     H_    0.336255 0.392785 0.806854 0.227043
H16   H     H_    0.430850 0.419042 0.738367 0.227430
H17   H     H_    0.177016 0.425464 0.754601 0.215665
H18   H     H_    0.242869 0.333424 0.684403 0.182963
H19   H     H_    0.145178 0.310199 0.752356 0.180934
C49   C     C_3   0.288504 0.340994 0.264758 -0.367777
C50   C     C_3   0.331439 0.406905 0.244425 -0.736625
H20   H     H_    0.456678 0.427658 0.267571 0.226527
H21   H     H_    0.361827 0.404753 0.196662 0.228819
H22   H     H_    0.204755 0.438245 0.253717 0.212673
H23   H     H_    0.157268 0.323646 0.242230 0.179961
H24   H     H_    0.254107 0.343529 0.312320 0.182090

loop_
_geom_bond_atom_site_label_1
_geom_bond_atom_site_label_2
_ccdc_geom_bond_type
O14   C42   A    
O12   C41   A    
C50   H20   S    
C36   C49   S    
C24   H6    S    
C7    C8    T    
C1    O6    A    
C47   H19   S    
C49   H24   S    
C23   C24   A    
C47   C48   S    
C13   H2    S    
O19   V4    S    
C21   H4    S    
O5    C3    A    
C15   C16   A    
C48   H16   S    
V2    O10   S    
C31   C36   A    
C35   C36   A    
O16   V4    S    
C6    C7    S    
O13   V3    S    
C22   C27   S    
C28   C29   T    
O8    V2    S    
C45   H13   S    
C31   C32   A    
O17   V3    S    
O15   C43   A    
O7    V1    S    
O18   V4    S    
C19   C44   S    
C37   C40   T    
C38   C39   T    
C50   H21   S    
O9    C4    A    
C24   C25   A    
C4    C5    S    
O11   V4    S    
C33   C34   A    
C49   H23   S    
C5    C6    T    
C34   C35   A    
O19   C44   A    
C32   C33   A    
C17   C20   T    
C11   C12   A    
C23   H5    S    
O4    C2    A    
C48   H15   S    
C12   C13   A    
C30   C42   S    
H1    C16   S    
O2    C1    A    
C25   C26   A    
C45   H14   S    
O14   V3    S    
C47   H18   S    
C18   C19   T    
C32   C37   S    
V4    O20   S    
C3    C20   S    
O3    C4    A    
O1    V2    S    
C11   C45   S    
O12   V3    S    
O6    V2    S    
O9    V2    S    
O17   V4    S    
C21   C26   A    
C26   C47   S    
O2    V1    S    
C2    C39   S    
V3    O20   S    
C33   H8    S    
C46   H11   S    
C27   C30   T    
C34   H9    S    
C14   H3    S    
C15   C18   S    
O1    C2    A    
O18   C43   A    
C48   H17   S    
O5    V1    S    
C46   H12   S    
O8    C3    A    
C50   H22   S    
C13   C14   A    
C35   C38   S    
O11   C42   A    
C21   C22   A    
O7    V2    S    
C11   C16   A    
O4    V1    S    
O3    V1    S    
V1    O10   S    
C45   C46   S    
C22   C23   A    
C12   C17   S    
C41   O16   A    
C14   C15   A    
C49   C50   S    
O13   C44   A    
O15   V3    S    
C25   C28   S    
C46   H10   S    
C40   C41   S    
C8    C9    S    
C31   H7    S    
C10   C43   S    
C9    C10   T    
C1    C29   S    
