data_mof_unit_46900.cif
_audit_creation_date              2013-03-05T15:45:31-0500
_audit_creation_method            fapswitch 2.2
_symmetry_space_group_name_H-M    P1
_symmetry_Int_Tables_number       1
_space_group_crystal_system       triclinic
_cell_length_a                    11.095854
_cell_length_b                    11.130484
_cell_length_c                    18.799668
_cell_angle_alpha                 89.527101
_cell_angle_beta                  89.233605
_cell_angle_gamma                 59.316814
_cell_volume                      1996.57211666

loop_
_atom_site_label
_atom_site_type_symbol
_atom_site_description
_atom_site_fract_x
_atom_site_fract_y
_atom_site_fract_z
_atom_type_partial_charge
O1    O     O_R   0.507430 0.255570 0.581420 -0.510569
O2    O     O_R   0.280190 0.527390 0.578910 -0.478067
C1    C     C_R   0.243883 0.642414 0.610810 0.575202
O3    O     O_R   0.260310 0.739740 0.584580 -0.450287
O4    O     O_R   0.532250 0.695150 0.573830 -0.464843
C2    C     C_R   0.654896 0.620410 0.600702 0.590634
O5    O     O_R   0.744930 0.503430 0.576380 -0.412005
O6    O     O_R   0.699250 0.276390 0.571950 -0.464784
C3    C     C_R   0.627113 0.228267 0.602943 0.544179
O7    O     O_R   0.499020 0.256400 0.419850 -0.528605
O8    O     O_R   0.272400 0.528160 0.429140 -0.497549
C4    C     C_R   0.221796 0.650196 0.401502 0.556958
O9    O     O_R   0.251910 0.740570 0.423020 -0.506661
O10   O     O_R   0.524460 0.695920 0.424060 -0.507464
C5    C     C_R   0.639814 0.619771 0.390669 0.545578
O11   O     O_R   0.736530 0.504260 0.414810 -0.490375
O12   O     O_R   0.691460 0.277160 0.422180 -0.451831
C6    C     C_R   0.619208 0.227354 0.395705 0.567418
Cr1   Cr    Cr6+3 0.392930 0.397900 0.502230 1.100006
Cr2   Cr    Cr6+3 0.398240 0.708600 0.501260 1.124917
Cr3   Cr    Cr6+3 0.708800 0.393470 0.496460 1.173709
O13   O     O_3   0.499990 0.499990 0.499980 -0.326586
C7    C     C_3   0.571532 0.811909 0.783749 0.013507
H1    H     H_    0.580722 0.904814 0.792903 0.211015
C8    C     C_3   0.562220 0.795751 0.702777 0.050468
H2    H     H_    0.575677 0.877902 0.676902 0.176310
C9    C     C_3   0.838866 0.659228 0.766343 0.327717
C10   C     C_3   0.672105 0.558956 0.800781 -0.251117
C11   C     C_3   0.703446 0.676889 0.811270 -0.045840
H3    H     H_    0.732354 0.471320 0.838117 0.189739
H4    H     H_    0.562770 0.592514 0.816958 0.148885
C12   C     C_3   0.683152 0.643931 0.674623 -0.062011
C13   C     C_3   0.826745 0.640362 0.680616 0.247453
C14   C     C_3   0.691029 0.518332 0.722114 0.046843
H5    H     H_    0.601960 0.504620 0.707435 0.115938
C15   C     C_R   0.785835 0.134250 0.708387 -0.007655
H6    H     H_    0.878557 0.102530 0.676250 0.183265
C16   C     C_R   0.794922 0.132209 0.782647 -0.040626
H7    H     H_    0.892332 0.105419 0.807436 0.167725
C17   C     C_R   0.679541 0.160766 0.824993 0.022617
C18   C     C_R   0.551924 0.198822 0.792137 -0.131007
H8    H     H_    0.459698 0.219766 0.822705 0.169653
C19   C     C_R   0.543369 0.198829 0.719279 -0.109732
H9    H     H_    0.442747 0.226511 0.697127 0.187416
C20   C     C_R   0.657146 0.177253 0.676412 0.051772
C21   C     C_R   0.312325 0.545663 0.732792 -0.032507
H10   H     H_    0.403288 0.457217 0.710438 0.086064
C22   C     C_R   0.295121 0.560686 0.807404 -0.076725
H11   H     H_    0.364637 0.477012 0.842543 0.089892
C23   C     C_R   0.181049 0.683400 0.834600 0.092226
C24   C     C_R   0.103351 0.794632 0.787671 0.018529
H12   H     H_    0.024688 0.892727 0.808134 0.158111
C25   C     C_R   0.112518 0.776584 0.714901 -0.001337
H13   H     H_    0.044928 0.862886 0.680569 0.148201
C26   C     C_R   0.213401 0.649604 0.686600 0.119898
C27   C     C_R   0.716591 0.526135 0.270871 -0.123643
H14   H     H_    0.771430 0.422220 0.292955 0.193693
C28   C     C_R   0.717384 0.540442 0.198012 -0.130166
H15   H     H_    0.778741 0.447855 0.165823 0.144671
C29   C     C_R   0.649598 0.673584 0.167654 0.029527
C30   C     C_R   0.569021 0.791658 0.210802 -0.124352
H16   H     H_    0.515908 0.895787 0.188287 0.137193
C31   C     C_R   0.566452 0.776627 0.284432 -0.128483
H17   H     H_    0.506406 0.868106 0.317469 0.135737
C32   C     C_R   0.645597 0.643781 0.314833 0.024946
C33   C     C_R   0.549011 0.156548 0.289445 -0.170505
H18   H     H_    0.462946 0.157726 0.318007 0.157081
C34   C     C_R   0.546986 0.152782 0.216576 -0.151896
H19   H     H_    0.464785 0.143342 0.191604 0.147074
C35   C     C_R   0.653097 0.154246 0.176943 -0.006679
C36   C     C_R   0.760586 0.162155 0.211312 -0.144175
H20   H     H_    0.845531 0.158578 0.180527 0.159707
C37   C     C_R   0.766925 0.161006 0.285294 0.173459
C38   C     C_R   0.653837 0.168310 0.324501 0.028024
C39   C     C_R   0.108202 0.806497 0.301106 -0.087058
H21   H     H_    0.128571 0.882565 0.324509 0.215339
C40   C     C_R   0.060735 0.829383 0.232647 -0.116138
H22   H     H_    0.040239 0.925489 0.207260 0.168188
C41   C     C_R   0.053951 0.724839 0.195251 0.014895
C42   C     C_R   0.078209 0.603193 0.230810 -0.129487
H23   H     H_    0.069899 0.522585 0.203380 0.148026
C43   C     C_R   0.122688 0.581696 0.301389 -0.122547
H24   H     H_    0.149404 0.483982 0.327227 0.153548
C44   C     C_R   0.143260 0.681635 0.335692 0.025633
O14   O     O_R   0.089490 0.825610 0.930610 -0.494842
O15   O     O_R   0.818370 0.054540 0.929880 -0.485662
C45   C     C_R   0.699301 0.105232 0.897311 0.573795
O16   O     O_R   0.605870 0.077310 0.915530 -0.497739
O17   O     O_R   0.646440 0.806700 0.917570 -0.452610
C46   C     C_R   0.723096 0.687983 0.888541 0.609490
O18   O     O_R   0.837200 0.593290 0.915250 -0.451655
O19   O     O_R   0.065330 0.635370 0.931590 -0.434117
C47   C     C_R   0.125558 0.703892 0.908115 0.575109
O20   O     O_R   0.068300 0.828790 0.091860 -0.518415
O21   O     O_R   0.798730 0.057480 0.079370 -0.534513
C48   C     C_R   0.674777 0.105617 0.104123 0.532871
O22   O     O_R   0.584680 0.080480 0.076790 -0.524515
O23   O     O_R   0.626790 0.809640 0.067050 -0.508410
C49   C     C_R   0.694188 0.690318 0.097003 0.531306
O24   O     O_R   0.816010 0.596460 0.076500 -0.533905
O25   O     O_R   0.045680 0.638310 0.081070 -0.512770
C50   C     C_R   0.029427 0.745150 0.118922 0.543593
Cr4   Cr    Cr6+3 0.937620 0.938540 0.007640 1.062763
Cr5   Cr    Cr6+3 0.625150 0.937450 0.994520 1.086342
Cr6   Cr    Cr6+3 0.937990 0.625080 0.001190 1.100583
O26   O     O_3   0.833590 0.833690 0.001120 -0.273736
N1    N     N_R   0.821144 0.379002 0.713166 0.085982
O27   O     O_R   0.895377 0.307177 0.767035 -0.306169
O28   O     O_R   0.860659 0.315460 0.652552 -0.268243
N2    N     N_R   0.972406 0.541081 0.792160 0.142401
O29   O     O_R   0.984574 0.434626 0.827126 -0.235841
O30   O     O_R   0.086609 0.529380 0.767972 -0.336692
N3    N     N_R   0.947999 0.511261 0.646972 0.152218
O31   O     O_R   0.035658 0.398624 0.681156 -0.165947
O32   O     O_R   0.974100 0.510302 0.579056 -0.261674
Br1   Br    Br    0.396612 0.871817 0.840025 -0.419038
N4    N     N_R   0.889582 0.147072 0.319104 0.054026
O33   O     O_R   0.929786 0.084562 0.380398 -0.323164
O34   O     O_R   0.974906 0.173827 0.283717 -0.401154
N5    N     N_R   0.421474 0.830016 0.685601 0.129315
O35   O     O_R   0.335277 0.946211 0.653320 -0.259606
O36   O     O_R   0.377917 0.749975 0.709253 -0.375367
N6    N     N_R   0.842572 0.787218 0.782172 0.022450
O37   O     O_R   0.867886 0.806909 0.846708 -0.345818
O38   O     O_R   0.773457 0.899181 0.744695 -0.413290
Br2   Br    Br    0.818094 0.789284 0.615487 -0.442633

loop_
_geom_bond_atom_site_label_1
_geom_bond_atom_site_label_2
_geom_bond_distance
_ccdc_geom_bond_type
C2    C12   1.483065 S    
C45   O16   1.267369 A    
C31   C32   1.399444 A    
C3    C20   1.465401 S    
O25   C50   1.320870 A    
C9    C11   1.636210 S    
C18   C19   1.374250 A    
C18   H8    1.083878 S    
O18   Cr6   2.108993 S    
C25   C26   1.384003 A    
C33   C34   1.371738 A    
O21   C48   1.276781 A    
C39   H21   1.079629 S    
C29   C49   1.454671 S    
Cr5   O26   1.994389 S    
N6    O37   1.294307 A    
O4    Cr2   1.979508 S    
C40   H22   1.081661 S    
C9    C13   1.643108 S    
O8    Cr1   1.953483 S    
O24   Cr6   2.078263 S    
O11   Cr3   2.077228 S    
C14   N1    1.493470 S    
C7    C11   1.559190 S    
C17   C45   1.460925 S    
C15   H6    1.079044 S    
N4    O34   1.301995 A    
C16   H7    1.075442 S    
C39   C44   1.394872 A    
N6    O38   1.289240 A    
C28   C29   1.395534 A    
C27   C32   1.402129 A    
C5    C32   1.454962 S    
C27   H14   1.077481 S    
C4    C44   1.457045 S    
C14   H5    1.112711 S    
C37   C38   1.413009 A    
C30   C31   1.394574 A    
N2    O29   1.296374 A    
O19   C47   1.315205 A    
C7    Br1   1.991690 S    
O14   C47   1.275162 A    
C9    N2    1.476650 S    
O21   Cr4   1.959013 S    
C34   H19   1.083247 S    
C21   C26   1.417846 A    
N1    O27   1.296174 A    
C41   C50   1.458288 S    
C35   C36   1.405843 A    
O14   Cr4   2.078400 S    
C8    C12   1.617972 S    
C22   C23   1.399600 A    
C33   H18   1.083535 S    
C10   C14   1.530228 S    
C6    C38   1.454110 S    
Cr3   O13   1.992958 S    
N1    O28   1.293986 A    
C1    C26   1.453386 S    
O15   Cr4   1.957524 S    
C11   C46   1.487259 S    
O16   Cr5   2.074790 S    
N5    O36   1.285347 A    
C23   C24   1.402641 A    
C40   C41   1.399369 A    
O25   Cr6   1.983907 S    
C21   C22   1.412811 A    
O1    Cr1   2.073095 S    
C37   N4    1.444443 S    
C24   H12   1.061738 S    
O10   Cr2   1.958320 S    
Cr1   O13   2.019812 S    
O1    C3    1.272828 A    
C42   C43   1.397549 A    
C36   C37   1.393189 A    
C9    N6    1.478788 S    
O15   C45   1.301498 A    
O6    C3    1.298848 A    
C28   H15   1.083951 S    
C25   H13   1.081313 S    
O12   Cr3   1.988529 S    
C41   C42   1.403755 A    
C29   C30   1.408383 A    
C24   C25   1.379226 A    
C12   C14   1.617368 S    
C35   C48   1.447587 S    
C19   H9    1.083576 S    
C19   C20   1.402656 A    
C49   O24   1.272244 A    
O7    Cr1   2.089040 S    
C7    H1    1.104691 S    
C48   O22   1.281916 A    
O12   C6    1.290965 A    
C15   C20   1.396450 A    
C39   C40   1.369123 A    
C22   H11   1.081228 S    
Cr2   O13   1.997841 S    
O20   Cr4   2.079271 S    
C43   H24   1.082965 S    
C43   C44   1.407217 A    
O17   Cr5   1.985252 S    
C1    O3    1.280698 A    
C8    N5    1.446444 S    
N5    O35   1.302253 A    
N3    O31   1.299894 A    
C21   H10   1.070458 S    
C10   C11   1.534541 S    
O9    Cr2   2.095703 S    
O2    Cr1   1.966275 S    
C10   H4    1.110546 S    
C42   H23   1.082925 S    
O6    Cr3   1.957019 S    
O8    C4    1.283764 A    
C23   C47   1.476592 S    
C2    O5    1.253990 A    
Cr6   O26   1.997039 S    
C13   N3    1.514661 S    
C12   C13   1.578906 S    
C15   C16   1.400207 A    
O2    C1    1.280963 A    
C8    H2    1.106825 S    
C36   H20   1.082773 S    
O5    Cr3   2.112654 S    
N4    O33   1.301796 A    
C16   C17   1.391201 A    
C46   O18   1.269774 A    
O4    C2    1.286572 A    
O7    C6    1.278759 A    
O23   Cr5   1.955902 S    
C10   H3    1.107602 S    
C13   Br2   2.015731 S    
C27   C28   1.378071 A    
Cr4   O26   2.022466 S    
C7    C8    1.545301 S    
C30   H16   1.082242 S    
N2    O30   1.283198 A    
O22   Cr5   2.102542 S    
C31   H17   1.083244 S    
O3    Cr2   2.078328 S    
O19   Cr6   1.958271 S    
C4    O9    1.280820 A    
O20   C50   1.306784 A    
C34   C35   1.391976 A    
O23   C49   1.274943 A    
O10   C5    1.277039 A    
C17   C18   1.404645 A    
O17   C46   1.272702 A    
C5    O11   1.267234 A    
N3    O32   1.304366 A    
C33   C38   1.407729 A    
