data_mof_unit_24173.cif
_audit_creation_date              2013-03-05T15:39:55-0500
_audit_creation_method            fapswitch 2.2
_symmetry_space_group_name_H-M    P1
_symmetry_Int_Tables_number       1
_space_group_crystal_system       triclinic
_cell_length_a                    27.927847
_cell_length_b                    18.704344
_cell_length_c                    16.807403
_cell_angle_alpha                 89.8327
_cell_angle_beta                  63.109238
_cell_angle_gamma                 89.806651
_cell_volume                      7830.3167556

loop_
_atom_site_label
_atom_site_type_symbol
_atom_site_description
_atom_site_fract_x
_atom_site_fract_y
_atom_site_fract_z
_atom_type_partial_charge
O1    O     O_R   0.255040 0.869590 0.478480 -0.544929
O2    O     O_R   0.744960 0.130410 0.521520 -0.571647
O3    O     O_R   0.744960 0.869590 0.521520 -0.542585
O4    O     O_R   0.255040 0.130410 0.478480 -0.575502
O5    O     O_R   0.755040 0.369590 0.478480 -0.546129
O6    O     O_R   0.244960 0.630410 0.521520 -0.575939
O7    O     O_R   0.244960 0.369590 0.521520 -0.544419
O8    O     O_R   0.755040 0.630410 0.478480 -0.573071
O9    O     O_R   0.182050 0.796550 0.624440 -0.517874
O10   O     O_R   0.817950 0.203450 0.375560 -0.507570
O11   O     O_R   0.817950 0.796550 0.375560 -0.529355
O12   O     O_R   0.182050 0.203450 0.624440 -0.503238
O13   O     O_R   0.682050 0.296550 0.624440 -0.518374
O14   O     O_R   0.317950 0.703450 0.375560 -0.509482
O15   O     O_R   0.317950 0.296550 0.375560 -0.531429
O16   O     O_R   0.682050 0.703450 0.624440 -0.502364
Cu1   Cu    Cu3+1 0.209920 0.785290 0.495070 1.040560
Cu2   Cu    Cu3+1 0.790080 0.214710 0.504930 1.071494
Cu3   Cu    Cu3+1 0.790080 0.785290 0.504930 1.054992
Cu4   Cu    Cu3+1 0.209920 0.214710 0.495070 1.075236
Cu5   Cu    Cu3+1 0.709920 0.285290 0.495070 1.036853
Cu6   Cu    Cu3+1 0.290080 0.714710 0.504930 1.070825
Cu7   Cu    Cu3+1 0.290080 0.285290 0.504930 1.052881
Cu8   Cu    Cu3+1 0.709920 0.714710 0.495070 1.049860
C1    C     C_R   0.295231 0.728978 0.329140 0.865830
C2    C     C_R   0.706337 0.274212 0.669627 0.861612
C3    C     C_R   0.704464 0.729565 0.670878 0.894696
C4    C     C_R   0.293611 0.274328 0.330453 0.839755
C5    C     C_R   0.795310 0.229145 0.329130 0.868665
C6    C     C_R   0.206324 0.774177 0.669643 0.862118
C7    C     C_R   0.204542 0.229409 0.670868 0.883825
C8    C     C_R   0.793606 0.774404 0.330448 0.825391
O17   O     O_R   0.250530 0.763330 0.367210 -0.625810
O18   O     O_R   0.749470 0.236670 0.632790 -0.589586
O19   O     O_R   0.749470 0.763330 0.632790 -0.601735
O20   O     O_R   0.250530 0.236670 0.367210 -0.591998
O21   O     O_R   0.750530 0.263330 0.367210 -0.626093
O22   O     O_R   0.249470 0.736670 0.632790 -0.589401
O23   O     O_R   0.249470 0.263330 0.632790 -0.606638
O24   O     O_R   0.750530 0.736670 0.367210 -0.609644
O25   O     O_R   0.177260 0.690030 0.513710 -0.610966
O26   O     O_R   0.822740 0.309970 0.486290 -0.593683
O27   O     O_R   0.822740 0.690030 0.486290 -0.597505
O28   O     O_R   0.177260 0.309970 0.513710 -0.587357
O29   O     O_R   0.677260 0.190030 0.513710 -0.616468
O30   O     O_R   0.322740 0.809970 0.486290 -0.592389
O31   O     O_R   0.322740 0.190030 0.486290 -0.597530
O32   O     O_R   0.677260 0.809970 0.513710 -0.608780
C9    C     C_R   0.200770 0.630980 0.513558 0.794561
C10   C     C_R   0.803468 0.368223 0.471996 0.866076
C11   C     C_R   0.803685 0.631808 0.471255 0.800254
C12   C     C_R   0.196743 0.368410 0.526649 0.859133
C13   C     C_R   0.700594 0.131146 0.512914 0.796581
C14   C     C_R   0.303717 0.868190 0.471154 0.862890
C15   C     C_R   0.303673 0.131792 0.471199 0.795098
C16   C     C_R   0.699885 0.868923 0.514930 0.859018
C17   C     C_R   0.057996 0.499509 0.475245 0.037690
C18   C     C_R   0.965175 0.499692 0.448272 0.035798
C19   C     C_R   0.568667 0.000623 0.438229 0.040528
C20   C     C_R   0.471617 0.000165 0.423223 0.031060
C21   C     C_R   0.043000 0.562490 0.444685 0.047806
C22   C     C_R   0.985885 0.434962 0.463332 0.055164
C23   C     C_R   0.994041 0.563894 0.437485 0.058042
C24   C     C_R   0.028481 0.436051 0.486588 0.058575
C25   C     C_R   0.546756 0.065866 0.426678 0.063132
C26   C     C_R   0.498145 0.934880 0.420537 0.051944
C27   C     C_R   0.497988 0.065717 0.418762 0.057541
C28   C     C_R   0.547522 0.935316 0.426125 0.046774
C29   C     C_R   0.117983 0.436722 0.524067 0.054714
C30   C     C_R   0.891128 0.564923 0.439181 0.063518
C31   C     C_R   0.889645 0.434049 0.446006 0.055694
C32   C     C_R   0.133856 0.562222 0.479569 0.044775
C33   C     C_R   0.636123 0.935312 0.467512 0.028337
C34   C     C_R   0.392444 0.065279 0.431371 0.063982
C35   C     C_R   0.392271 0.934315 0.433970 0.057089
C36   C     C_R   0.635983 0.065699 0.467350 0.055261
C37   C     C_R   0.166855 0.435549 0.531710 -0.119776
C38   C     C_R   0.836632 0.565289 0.453206 -0.121675
C39   C     C_R   0.836138 0.434382 0.455407 -0.111688
C40   C     C_R   0.174878 0.563933 0.507862 -0.105521
C41   C     C_R   0.674832 0.935250 0.501866 -0.096628
C42   C     C_R   0.336885 0.065343 0.451525 -0.119238
C43   C     C_R   0.336870 0.934447 0.452388 -0.113269
C44   C     C_R   0.675587 0.065192 0.499971 -0.106808
C45   C     C_R   0.191951 0.500153 0.530208 -0.196409
C46   C     C_R   0.810847 0.499956 0.459296 -0.211747
C47   C     C_R   0.692385 0.000178 0.519590 -0.193626
C48   C     C_R   0.310716 0.999959 0.460572 -0.212614
H1    H     H_    0.226562 0.500359 0.543253 0.201114
H2    H     H_    0.769453 0.500149 0.470640 0.216265
H3    H     H_    0.721456 0.000038 0.545740 0.191059
H4    H     H_    0.268439 0.000070 0.477218 0.219899
C49   C     C_R   0.103118 0.499614 0.493484 0.082911
C50   C     C_R   0.915160 0.499639 0.444517 0.086389
C51   C     C_R   0.612947 0.000578 0.459532 0.088431
C52   C     C_R   0.418615 0.999905 0.429754 0.087446
C53   C     C_R   0.621758 0.873628 0.435016 -0.129151
C54   C     C_R   0.423607 0.127964 0.410191 -0.171469
C55   C     C_R   0.423113 0.871297 0.417615 -0.162966
C56   C     C_R   0.620045 0.127945 0.437527 -0.125243
C57   C     C_R   0.083459 0.377436 0.545630 -0.151977
C58   C     C_R   0.923131 0.626960 0.418762 -0.164660
C59   C     C_R   0.919611 0.370836 0.436679 -0.160781
C60   C     C_R   0.123269 0.620037 0.435754 -0.115686
C61   C     C_R   0.577520 0.872946 0.418171 -0.129270
C62   C     C_R   0.474224 0.128708 0.406835 -0.161236
C63   C     C_R   0.473733 0.871214 0.413711 -0.173676
C64   C     C_R   0.575273 0.128737 0.421997 -0.116843
C65   C     C_R   0.040533 0.376408 0.525359 -0.166568
C66   C     C_R   0.972906 0.626770 0.419172 -0.160861
C67   C     C_R   0.964828 0.370797 0.450469 -0.172776
C68   C     C_R   0.077963 0.621261 0.421628 -0.120244
H5    H     H_    0.644799 0.825002 0.417982 0.192773
H6    H     H_    0.410483 0.177573 0.393736 0.173655
H7    H     H_    0.410191 0.820286 0.405626 0.218280
H8    H     H_    0.641952 0.177306 0.422048 0.181198
H9    H     H_    0.087649 0.331730 0.581169 0.195017
H10   H     H_    0.911553 0.676422 0.399211 0.173316
H11   H     H_    0.910270 0.320181 0.417277 0.209277
H12   H     H_    0.150397 0.664524 0.408837 0.176595
H13   H     H_    0.568778 0.822610 0.396660 0.164029
H14   H     H_    0.493639 0.180023 0.394602 0.147202
H15   H     H_    0.492320 0.819516 0.406439 0.158252
H16   H     H_    0.564841 0.179828 0.404448 0.147207
H17   H     H_    0.015541 0.329209 0.544228 0.161224
H18   H     H_    0.993228 0.677488 0.407241 0.145176
H19   H     H_    0.984477 0.320078 0.446682 0.163011
H20   H     H_    0.072301 0.668340 0.389679 0.161910
H21   H     H_    0.142898 0.695280 0.062903 0.197153
H22   H     H_    0.835183 0.257800 0.952134 0.206329
H23   H     H_    0.856141 0.703249 0.934049 0.195687
H24   H     H_    0.162911 0.257807 0.051355 0.205816
H25   H     H_    0.642731 0.197750 0.064476 0.196205
H26   H     H_    0.334424 0.759152 0.954011 0.207865
H27   H     H_    0.356716 0.202502 0.933943 0.195901
H28   H     H_    0.662345 0.758904 0.052126 0.205915
C69   C     C_R   0.211060 0.748221 0.960158 -0.068190
C70   C     C_R   0.767040 0.206117 0.057066 -0.069989
C71   C     C_R   0.787230 0.751740 0.041018 -0.067207
C72   C     C_R   0.231521 0.208508 0.944530 -0.068771
C73   C     C_R   0.711325 0.248591 0.959950 -0.067580
C74   C     C_R   0.266700 0.705440 0.057267 -0.071014
C75   C     C_R   0.287692 0.251000 0.040669 -0.065943
C76   C     C_R   0.730875 0.709701 0.945040 -0.070177
C77   C     C_R   0.265767 0.766232 0.929036 0.358366
C78   C     C_R   0.711950 0.188832 0.089648 0.361453
C79   C     C_R   0.731843 0.767446 0.074642 0.366024
C80   C     C_R   0.286989 0.192800 0.910572 0.354838
C81   C     C_R   0.766291 0.265540 0.927915 0.359692
C82   C     C_R   0.211891 0.686950 0.088848 0.360811
C83   C     C_R   0.232322 0.266636 0.074041 0.359422
C84   C     C_R   0.786327 0.693853 0.910927 0.355395
C85   C     C_R   0.292847 0.743728 0.977206 -0.276481
C86   C     C_R   0.684710 0.211049 0.040686 -0.287879
C87   C     C_R   0.704441 0.745232 0.026994 -0.276201
C88   C     C_R   0.314451 0.214910 0.958967 -0.283969
C89   C     C_R   0.793398 0.243150 0.976079 -0.277803
C90   C     C_R   0.184665 0.709399 0.039925 -0.287631
C91   C     C_R   0.205003 0.244171 0.026371 -0.276008
C92   C     C_R   0.813882 0.715768 0.959217 -0.285245
C93   C     C_R   0.137969 0.817859 0.947914 -0.222887
C94   C     C_R   0.846920 0.153710 0.064754 -0.212705
C95   C     C_R   0.861258 0.819530 0.052376 -0.222606
C96   C     C_R   0.152001 0.155439 0.936410 -0.210050
C97   C     C_R   0.638158 0.318161 0.947804 -0.223902
C98   C     C_R   0.346564 0.653000 0.064929 -0.209590
C99   C     C_R   0.361274 0.319560 0.052475 -0.222044
C100  C     C_R   0.651355 0.656655 0.936938 -0.210027
H29   H     H_    0.119717 0.827729 0.019089 0.171950
H30   H     H_    0.857244 0.128695 0.000939 0.183842
H31   H     H_    0.879209 0.829916 0.981297 0.174925
H32   H     H_    0.141629 0.130547 0.000432 0.183774
H33   H     H_    0.619968 0.328131 0.018954 0.171998
H34   H     H_    0.356915 0.628006 0.001092 0.183782
H35   H     H_    0.379321 0.329888 0.981376 0.174979
H36   H     H_    0.640931 0.631949 0.001079 0.183182
C101  C     C_R   0.121120 0.856572 0.892996 -0.154788
C102  C     C_R   0.881658 0.148309 0.104306 -0.147550
C103  C     C_R   0.879028 0.856722 0.106881 -0.160510
C104  C     C_R   0.117804 0.148945 0.895914 -0.145081
C105  C     C_R   0.621203 0.356724 0.892926 -0.155199
C106  C     C_R   0.381377 0.647863 0.104365 -0.146502
C107  C     C_R   0.378682 0.357152 0.107207 -0.159172
C108  C     C_R   0.617380 0.649587 0.896100 -0.144743
C109  C     C_R   0.151055 0.851562 0.799874 0.335328
C110  C     C_R   0.869382 0.185545 0.184002 0.399700
C111  C     C_R   0.849505 0.851462 0.199899 0.332603
C112  C     C_R   0.130154 0.185911 0.815806 0.397111
C113  C     C_R   0.651090 0.351674 0.799801 0.333839
C114  C     C_R   0.369131 0.685269 0.183860 0.400976
C115  C     C_R   0.348906 0.351877 0.200285 0.333961
C116  C     C_R   0.629842 0.686213 0.815654 0.393199
C117  C     C_R   0.184956 0.792165 0.764462 -0.187978
C118  C     C_R   0.816815 0.212233 0.233468 -0.165050
C119  C     C_R   0.814956 0.792804 0.235648 -0.179667
C120  C     C_R   0.182507 0.213220 0.766907 -0.172177
C121  C     C_R   0.684987 0.292264 0.764413 -0.187537
C122  C     C_R   0.316520 0.711702 0.233561 -0.162163
C123  C     C_R   0.314859 0.292760 0.235710 -0.183329
C124  C     C_R   0.682156 0.713788 0.767033 -0.176483
C125  C     C_R   0.201401 0.753127 0.819477 -0.181493
C126  C     C_R   0.782466 0.217419 0.192732 -0.190783
C127  C     C_R   0.797815 0.755006 0.181000 -0.184779
C128  C     C_R   0.216229 0.219568 0.808601 -0.178660
C129  C     C_R   0.701449 0.253262 0.819425 -0.180139
C130  C     C_R   0.282023 0.716519 0.193053 -0.193950
C131  C     C_R   0.298082 0.254569 0.180847 -0.181657
C132  C     C_R   0.715640 0.720654 0.809082 -0.176998
H37   H     H_    0.232263 0.712455 0.791229 0.171172
H38   H     H_    0.743330 0.242353 0.227483 0.173481
H39   H     H_    0.766728 0.714808 0.209460 0.170631
H40   H     H_    0.255091 0.245053 0.774216 0.181949
H41   H     H_    0.732258 0.212521 0.791193 0.171282
H42   H     H_    0.242821 0.741260 0.227912 0.171644
H43   H     H_    0.267252 0.214025 0.209142 0.171968
H44   H     H_    0.754476 0.746225 0.774799 0.181636
C133  C     C_R   0.181586 0.770814 0.909779 0.140458
C134  C     C_R   0.798495 0.191055 0.106624 0.155740
C135  C     C_R   0.817142 0.773467 0.090933 0.141831
C136  C     C_R   0.200056 0.193468 0.895003 0.147894
C137  C     C_R   0.681783 0.271130 0.909649 0.140469
C138  C     C_R   0.298083 0.690214 0.106890 0.157276
C139  C     C_R   0.317434 0.273041 0.090768 0.139687
C140  C     C_R   0.699360 0.694769 0.895587 0.148185
O33   O     O_R   0.051640 0.926880 0.885090 -0.534906
O34   O     O_R   0.948360 0.073120 0.114910 -0.492137
O35   O     O_R   0.948360 0.926880 0.114910 -0.534597
O36   O     O_R   0.051640 0.073120 0.885090 -0.492801
O37   O     O_R   0.551640 0.426880 0.885090 -0.534266
O38   O     O_R   0.448360 0.573120 0.114910 -0.494626
O39   O     O_R   0.448360 0.426880 0.114910 -0.536808
O40   O     O_R   0.551640 0.573120 0.885090 -0.491838
Cu9   Cu    Cu3+1 0.495240 0.500000 0.924150 1.119533
Cu10  Cu    Cu3+1 0.504760 0.500000 0.075850 1.110783
Cu11  Cu    Cu3+1 0.995240 0.000000 0.924150 1.118077
Cu12  Cu    Cu3+1 0.004760 0.000000 0.075850 1.114303
C141  C     C_R   0.925151 0.905122 0.067484 0.826142
C142  C     C_R   0.072742 0.098218 0.934165 0.902401
C143  C     C_R   0.075090 0.905381 0.932341 0.824932
C144  C     C_R   0.927162 0.098153 0.065789 0.904506
C145  C     C_R   0.424887 0.405496 0.067748 0.825916
C146  C     C_R   0.572585 0.598430 0.934261 0.899920
C147  C     C_R   0.575120 0.405434 0.932315 0.826262
C148  C     C_R   0.427038 0.597978 0.065860 0.903760
O41   O     O_R   0.940620 0.926560 0.986760 -0.607706
O42   O     O_R   0.059380 0.073440 0.013240 -0.598352
O43   O     O_R   0.059380 0.926560 0.013240 -0.609306
O44   O     O_R   0.940620 0.073440 0.986760 -0.598158
O45   O     O_R   0.440620 0.426560 0.986760 -0.607517
O46   O     O_R   0.559380 0.573440 0.013240 -0.598280
O47   O     O_R   0.559380 0.426560 0.013240 -0.609223
O48   O     O_R   0.440620 0.573440 0.986760 -0.598262
N1    N     N_R   0.293814 0.810220 0.851251 0.127146
O49   O     O_R   0.344710 0.799734 0.799840 -0.333224
O50   O     O_R   0.270941 0.866943 0.838717 -0.326285
N2    N     N_R   0.683580 0.147423 0.169843 0.118359
O51   O     O_R   0.708587 0.099866 0.193983 -0.330636
O52   O     O_R   0.631464 0.150756 0.213121 -0.386933
N3    N     N_R   0.703332 0.808972 0.154445 0.120807
O53   O     O_R   0.652951 0.795953 0.206696 -0.375391
O54   O     O_R   0.724939 0.866137 0.168266 -0.336383
N4    N     N_R   0.315515 0.152921 0.829347 0.124378
O55   O     O_R   0.291561 0.102675 0.807517 -0.313387
O56   O     O_R   0.367073 0.161029 0.782027 -0.346693
N5    N     N_R   0.794591 0.308501 0.849251 0.126034
O57   O     O_R   0.845253 0.296695 0.797420 -0.342000
O58   O     O_R   0.772342 0.365671 0.836269 -0.327838
N6    N     N_R   0.183840 0.644048 0.167837 0.118058
O59   O     O_R   0.209486 0.597615 0.192181 -0.328811
O60   O     O_R   0.131624 0.644726 0.209453 -0.387060
N7    N     N_R   0.203775 0.308462 0.153542 0.125605
O61   O     O_R   0.153404 0.295460 0.205897 -0.344356
O62   O     O_R   0.225345 0.365852 0.166918 -0.326901
N8    N     N_R   0.814738 0.653982 0.829661 0.123724
O63   O     O_R   0.790730 0.603653 0.808073 -0.315540
O64   O     O_R   0.866273 0.662135 0.782102 -0.348685
S1    S     S_3+6 0.158921 0.928299 0.731387 0.059514
O65   O     O_2   0.120103 0.924560 0.692263 -0.229085
O66   O     O_2   0.148987 0.995866 0.784650 -0.298380
O67   O     O_3   0.221795 0.931919 0.648413 -0.529285
H45   H     H_    0.245053 0.935563 0.678554 0.361596
S2    S     S_3+6 0.921344 0.210198 0.212386 0.030296
O68   O     O_2   0.925606 0.155635 0.274719 -0.233115
O69   O     O_2   0.974159 0.214752 0.129558 -0.301338
O70   O     O_3   0.907329 0.290691 0.262332 -0.575874
H46   H     H_    0.942495 0.310389 0.252302 0.373342
S3    S     S_3+6 0.842581 0.927970 0.267698 0.056633
O71   O     O_2   0.880392 0.922322 0.308698 -0.231390
O72   O     O_2   0.853865 0.995741 0.214227 -0.299221
O73   O     O_3   0.779500 0.933398 0.348459 -0.532333
H47   H     H_    0.757256 0.938808 0.316638 0.356311
S4    S     S_3+6 0.078397 0.209265 0.786013 0.032044
O74   O     O_2   0.074843 0.153618 0.724574 -0.231334
O75   O     O_2   0.025342 0.214199 0.868324 -0.299362
O76   O     O_3   0.091985 0.289178 0.734329 -0.574891
H48   H     H_    0.056959 0.307286 0.741180 0.371829
S5    S     S_3+6 0.658850 0.428368 0.731282 0.060585
O77   O     O_2   0.619992 0.424489 0.692250 -0.228439
O78   O     O_2   0.648869 0.495960 0.784516 -0.297048
O79   O     O_3   0.721691 0.432111 0.648226 -0.527253
H49   H     H_    0.744986 0.435752 0.678303 0.360595
S6    S     S_3+6 0.421307 0.711771 0.210664 0.026172
O80   O     O_2   0.425753 0.659451 0.275049 -0.233561
O81   O     O_2   0.474056 0.714918 0.127527 -0.305760
O82   O     O_3   0.407124 0.793522 0.257207 -0.582723
H50   H     H_    0.442348 0.817136 0.237801 0.374491
S7    S     S_3+6 0.341172 0.428362 0.268628 0.057907
O83   O     O_2   0.379861 0.423885 0.307997 -0.233726
O84   O     O_2   0.351293 0.496086 0.215289 -0.302019
O85   O     O_3   0.278264 0.432408 0.351305 -0.522001
H51   H     H_    0.255149 0.437300 0.320989 0.359854
S8    S     S_3+6 0.578456 0.707599 0.784050 0.042212
O86   O     O_2   0.575588 0.649838 0.724330 -0.243570
O87   O     O_2   0.525072 0.713683 0.865420 -0.281499
O88   O     O_3   0.591981 0.786268 0.729430 -0.544825
H52   H     H_    0.565754 0.790087 0.705022 0.380510

loop_
_geom_bond_atom_site_label_1
_geom_bond_atom_site_label_2
_geom_bond_distance
_ccdc_geom_bond_type
C47   H3    1.084037 S    
C122  C130  1.411478 A    
Cu2   Cu5   2.663909 S    
C81   N5    1.439175 S    
C10   C39   1.488964 S    
Cu10  O46   1.968455 S    
C97   C137  1.399557 A    
C16   C41   1.486047 S    
S2    O68   1.503011 D    
C69   C90   1.404291 A    
O39   C145  1.300670 A    
C126  H38   1.083492 S    
C93   C133  1.399558 A    
C72   C91   1.402159 A    
C73   C86   1.404456 A    
C54   H6    1.076931 S    
C119  C127  1.405839 A    
N7    O61   1.301410 A    
Cu6   O22   1.967354 S    
C117  C125  1.406066 A    
C6    O22   1.284311 A    
N8    O63   1.301428 A    
C21   C23   1.426307 A    
C2    C121  1.466308 S    
C22   C24   1.410403 A    
C72   C136  1.486261 S    
S3    O72   1.501230 D    
O3    Cu3   1.955290 S    
C120  C128  1.410797 A    
C79   C87   1.399318 A    
C25   C64   1.404420 A    
C53   C61   1.386820 A    
C130  H42   1.083509 S    
C75   C83   1.415880 A    
C43   C48   1.399285 A    
C124  C132  1.410555 A    
C36   C44   1.439607 A    
C64   H16   1.076718 S    
C33   C41   1.437621 A    
C14   C43   1.494611 S    
C112  S4    1.783277 S    
C98   H34   1.083858 S    
H24   C91   1.084146 S    
Cu12  O42   1.968455 S    
C145  O45   1.287697 A    
C46   H2    1.083235 S    
C3    O19   1.289816 A    
C116  S8    1.784982 S    
O36   C142  1.300719 A    
C78   C86   1.410970 A    
O12   Cu4   1.961016 S    
C141  O41   1.286855 A    
N6    O60   1.301255 A    
O33   C143  1.299303 A    
C33   C51   1.414009 A    
C93   C101  1.408688 A    
C12   C37   1.486703 S    
O79   H49   0.990662 S    
C113  C121  1.404350 A    
N3    O54   1.301544 A    
O2    C13   1.310863 A    
C109  S1    1.788055 S    
C17   C21   1.419388 A    
C29   C57   1.406927 A    
C36   C56   1.414161 A    
C29   C49   1.416531 A    
C54   C62   1.389141 A    
C9    C40   1.474506 S    
S4    O75   1.504480 D    
C11   C38   1.492874 S    
Cu3   O19   1.966332 S    
O10   Cu2   1.961816 S    
O38   Cu10  1.959036 S    
O39   Cu10  1.963777 S    
C116  C124  1.411010 A    
O38   C148  1.300133 A    
C102  C110  1.409002 A    
O5    Cu5   1.960829 S    
C69   C133  1.482939 S    
C108  C146  1.473333 S    
C106  C114  1.407880 A    
C80   N4    1.439760 S    
Cu9   O48   1.965555 S    
C73   C137  1.483164 S    
O6    Cu6   1.960827 S    
C131  C139  1.400605 A    
C29   C37   1.427705 A    
C98   C106  1.405613 A    
C26   C63   1.404675 A    
C35   C43   1.434049 A    
C31   C39   1.429833 A    
C34   C54   1.408210 A    
H22   C89   1.084239 S    
C59   C67   1.383163 A    
O7    C12   1.310121 A    
Cu2   O26   1.963174 S    
N1    O49   1.301374 A    
H26   C85   1.084254 S    
O34   Cu12  1.959036 S    
S8    O86   1.503593 D    
C22   C67   1.397946 A    
C20   C27   1.416675 A    
N2    O52   1.301291 A    
Cu9   Cu10  2.680446 S    
C101  C143  1.466261 S    
C93   H29   1.083539 S    
O28   C12   1.284768 A    
O16   C3    1.298426 A    
O29   C13   1.274851 A    
S1    O65   1.502720 D    
S5    O78   1.501736 D    
C127  H39   1.083763 S    
C125  H37   1.083765 S    
H21   C90   1.083297 S    
Cu4   O28   1.959243 S    
Cu5   O29   1.963173 S    
S6    O81   1.504744 D    
C56   C64   1.388124 A    
C4    C123  1.466326 S    
C147  O47   1.288601 A    
H25   C86   1.083330 S    
Cu8   O32   1.959243 S    
C34   C52   1.416465 A    
O67   H45   0.990654 S    
C60   C68   1.389015 A    
H28   C87   1.084140 S    
C95   C135  1.400674 A    
H27   C88   1.083374 S    
C83   C91   1.399165 A    
Cu4   Cu7   2.671864 S    
C104  C142  1.473074 S    
C62   H14   1.076572 S    
C35   C55   1.409835 A    
N5    O58   1.301522 A    
O9    C6    1.293854 A    
C66   H18   1.077882 S    
O26   C10   1.282993 A    
O11   C8    1.295663 A    
O12   C7    1.298828 A    
C95   C103  1.409515 A    
O14   Cu6   1.961816 S    
O13   C2    1.293704 A    
C96   H32   1.083780 S    
C28   C61   1.404888 A    
C82   N6    1.441316 S    
Cu11  O44   1.965555 S    
C99   H35   1.083434 S    
C65   H17   1.081381 S    
C100  H36   1.083783 S    
C31   C59   1.413739 A    
C110  C118  1.410322 A    
Cu10  O47   1.965558 S    
N4    O55   1.301425 A    
C132  C140  1.398014 A    
S2    O69   1.504527 D    
S8    O88   1.683092 S    
S7    O85   1.677692 S    
C126  C134  1.398111 A    
Cu7   O31   1.959243 S    
N7    O62   1.301549 A    
C76   C84   1.417624 A    
C19   C25   1.415059 A    
C24   C65   1.405008 A    
C130  C138  1.398422 A    
O7    Cu7   1.955290 S    
O8    Cu8   1.955292 S    
N8    O64   1.301447 A    
O37   Cu9   1.959039 S    
C94   C102  1.405580 A    
C129  H41   1.083770 S    
C71   C135  1.484946 S    
S2    O70   1.682497 S    
S1    O67   1.678641 S    
C107  C145  1.467270 S    
C21   C68   1.405171 A    
O6    C9    1.300155 A    
C105  C147  1.466158 S    
C1    O17   1.286547 A    
C18   C22   1.410819 A    
C94   C134  1.395618 A    
C121  C129  1.405967 A    
C56   H8    1.073712 S    
C63   H15   1.076741 S    
C98   C138  1.395656 A    
C102  C144  1.471567 S    
Cu9   O45   1.968455 S    
O35   Cu12  1.963777 S    
O11   Cu3   1.961016 S    
C128  C136  1.398297 A    
O40   C146  1.300269 A    
C69   C77   1.414567 A    
C30   C50   1.413453 A    
C55   H7    1.072581 S    
C103  C111  1.402608 A    
C57   C65   1.386833 A    
C118  C126  1.411219 A    
C101  C109  1.405011 A    
C143  O43   1.288617 A    
O73   H47   0.990964 S    
O25   C9    1.282421 A    
O36   Cu11  1.963777 S    
C1    C122  1.475221 S    
C104  C112  1.409240 A    
C105  C113  1.404982 A    
C74   C138  1.484274 S    
C25   C27   1.427114 A    
Cu11  Cu12  2.680446 S    
C108  C116  1.410350 A    
C95   H31   1.083433 S    
C96   C104  1.406919 A    
C111  C119  1.405234 A    
C20   C26   1.416327 A    
O88   H52   0.990557 S    
C77   N1    1.439238 S    
Cu1   O17   1.967353 S    
C34   C42   1.430707 A    
C8    C119  1.466808 S    
C6    C117  1.466484 S    
Cu3   O27   1.959243 S    
C35   C52   1.417687 A    
O34   C144  1.299742 A    
S7    O83   1.502724 D    
C146  O46   1.292789 A    
O76   H48   0.990425 S    
C45   H1    1.083616 S    
C32   C60   1.410426 A    
O70   H46   0.990457 S    
S3    O71   1.502745 D    
C94   H30   1.083860 S    
O30   C14   1.284354 A    
C131  H43   1.083755 S    
S3    O73   1.671186 S    
C99   C139  1.400538 A    
C41   C47   1.393603 A    
C32   C49   1.409432 A    
C20   C52   1.433950 A    
Cu6   O30   1.963174 S    
C71   C92   1.404739 A    
C13   C44   1.483831 S    
O4    C15   1.307763 A    
O5    C10   1.306979 A    
C58   C66   1.393239 A    
C114  C122  1.410103 A    
O85   H51   0.990751 S    
C82   C90   1.411357 A    
O1    Cu1   1.960829 S    
C106  C148  1.471260 S    
C30   C58   1.410750 A    
C27   C62   1.408028 A    
C55   C63   1.385273 A    
Cu1   Cu6   2.663909 S    
C57   H9    1.077466 S    
C74   C82   1.418428 A    
Cu3   Cu8   2.671864 S    
C103  C141  1.466309 S    
O10   C5    1.296863 A    
O27   C11   1.288465 A    
O15   C4    1.295941 A    
C76   C87   1.402204 A    
O40   Cu9   1.963777 S    
S8    O87   1.503817 D    
O14   C1    1.297248 A    
C68   H20   1.077900 S    
Cu4   O20   1.966330 S    
Cu5   O21   1.967353 S    
N6    O59   1.301353 A    
C4    O20   1.286932 A    
C32   C40   1.425800 A    
O82   H50   0.990492 S    
C5    O21   1.286629 A    
C144  O44   1.292301 A    
C80   C88   1.410408 A    
C81   C89   1.397867 A    
C39   C46   1.400127 A    
C60   H12   1.078454 S    
O35   C141  1.300847 A    
C26   C28   1.423984 A    
C84   C92   1.409979 A    
C30   C38   1.430869 A    
S5    O77   1.502721 D    
C44   C47   1.393303 A    
C72   C80   1.417733 A    
C73   C81   1.414743 A    
C31   C50   1.415299 A    
C33   C53   1.412587 A    
S6    O82   1.682125 S    
C71   C79   1.416185 A    
C40   C45   1.395371 A    
S4    O74   1.503071 D    
C115  C123  1.404419 A    
C36   C51   1.413323 A    
C75   C139  1.485242 S    
C7    C120  1.475042 S    
O37   C147  1.299263 A    
C42   C48   1.399038 A    
C113  S5    1.788206 S    
C97   H33   1.083526 S    
C5    C118  1.474483 S    
C114  S6    1.781011 S    
C115  S7    1.787680 S    
C110  S2    1.782746 S    
C111  S3    1.786629 S    
C2    O18   1.284392 A    
C99   C107  1.409812 A    
C48   H4    1.083280 S    
C100  C108  1.406904 A    
N5    O57   1.301392 A    
C58   H10   1.077386 S    
C77   C85   1.397999 A    
C38   C46   1.400319 A    
O15   Cu7   1.961016 S    
C96   C136  1.396458 A    
O16   Cu8   1.961016 S    
C17   C49   1.425295 A    
C79   N3    1.439493 S    
Cu12  O43   1.965558 S    
C128  H40   1.083352 S    
C19   C51   1.434564 A    
C100  C140  1.396193 A    
O13   Cu5   1.961816 S    
O33   Cu11  1.959039 S    
N1    O50   1.301516 A    
N4    O56   1.301441 A    
S7    O84   1.501587 D    
O1    C14   1.308551 A    
C19   C28   1.413245 A    
O3    C16   1.312777 A    
C142  O42   1.292033 A    
N2    O51   1.301390 A    
C123  C131  1.406049 A    
C61   H13   1.077087 S    
C15   C42   1.493861 S    
Cu2   O18   1.967354 S    
O8    C11   1.308474 A    
C70   C134  1.484486 S    
O9    Cu1   1.961816 S    
S1    O66   1.501711 D    
C67   H19   1.081846 S    
S5    O79   1.678624 S    
C53   H5    1.074316 S    
N3    O53   1.301370 A    
C17   C24   1.409867 A    
O31   C15   1.289251 A    
C18   C23   1.413449 A    
O32   C16   1.277552 A    
S6    O80   1.502892 D    
C148  O48   1.291608 A    
C78   N2    1.440980 S    
S4    O76   1.682507 S    
C59   H11   1.073570 S    
C3    C124  1.474692 S    
C109  C117  1.404276 A    
O2    Cu2   1.960827 S    
C107  C115  1.404088 A    
O4    Cu4   1.955292 S    
C127  C135  1.400450 A    
C70   C78   1.418343 A    
C97   C105  1.408584 A    
C23   C66   1.408466 A    
C18   C50   1.426471 A    
C125  C133  1.400417 A    
C84   N8    1.439777 S    
C70   C89   1.402149 A    
C83   N7    1.439231 S    
C75   C88   1.404827 A    
Cu7   O23   1.966332 S    
C129  C137  1.400450 A    
Cu8   O24   1.966330 S    
C7    O23   1.289616 A    
C8    O24   1.287613 A    
C74   C85   1.402082 A    
H23   C92   1.083391 S    
Cu1   O25   1.963173 S    
C76   C140  1.486023 S    
C37   C45   1.393400 A    
C112  C120  1.410585 A    
C132  H44   1.083363 S    
Cu11  O41   1.968455 S    
