data_mof_unit_7589.cif
_audit_creation_date              2012-12-10T20:50:10-0500
_audit_creation_method            fapswitch 2.2
_symmetry_space_group_name_H-M    P1
_symmetry_Int_Tables_number       1
_space_group_crystal_system       triclinic
_cell_length_a                    19.198015
_cell_length_b                    8.93009
_cell_length_c                    8.112915
_cell_angle_alpha                 89.947454
_cell_angle_beta                  90.000134
_cell_angle_gamma                 89.999964
_cell_volume                      1390.87757705

loop_
_atom_site_label
_atom_site_type_symbol
_atom_type_description
_atom_site_fract_x
_atom_site_fract_y
_atom_site_fract_z
_atom_type_partial_charge
C1    C     C_R   0.500000 0.218022 0.500047 0.904550
C2    C     C_R   0.253951 0.377488 0.430509 0.420306
C3    C     C_R   0.181544 0.622549 0.569404 0.459598
C4    C     C_R   0.818457 0.377455 0.430590 0.459598
C5    C     C_R   0.818457 0.622547 0.569407 0.459600
C6    C     C_R   0.181543 0.377452 0.430596 0.459601
C7    C     C_R   0.145186 0.500001 0.500000 -0.352861
C8    C     C_R   0.854813 0.500002 0.499998 -0.352859
C9    C     C_R   0.290284 0.500000 0.499999 -0.458293
C10   C     C_R   0.709716 0.500000 0.500001 -0.458292
C11   C     C_R   0.930155 0.500002 0.499998 0.281152
C12   C     C_R   0.500000 0.781978 0.499953 0.904549
C13   C     C_R   0.069845 0.500002 0.499999 0.281150
C14   C     C_R   0.365557 0.500000 0.500000 0.885568
C15   C     C_R   0.634443 0.500000 0.500000 0.885569
C16   C     C_1   0.500000 0.065203 0.500065 -0.141739
C17   C     C_1   0.500000 0.934797 0.499935 -0.141739
C18   C     C_R   0.253952 0.622513 0.569490 0.420308
C19   C     C_R   0.746049 0.377491 0.430504 0.420308
C20   C     C_R   0.746049 0.622511 0.569496 0.420306
H1    H     H_    0.336132 0.750404 0.600688 0.329152
H2    H     H_    0.663869 0.249598 0.399305 0.329153
H3    H     H_    0.663868 0.750400 0.600704 0.329154
H4    H     H_    0.336132 0.249599 0.399302 0.329153
H5    H     H_    0.099384 0.750429 0.600472 0.347694
H6    H     H_    0.900616 0.249575 0.399521 0.347694
H7    H     H_    0.900615 0.750432 0.600467 0.347693
H8    H     H_    0.099383 0.249569 0.399537 0.347693
N1    N     N_1   0.500000 0.500000 0.073640 -0.007128
N2    N     N_1   0.500000 0.500000 0.926360 -0.007128
N3    N     N_R   0.034549 0.504242 0.355588 -0.118511
N4    N     N_R   0.965451 0.495761 0.644409 -0.118510
N5    N     N_R   0.965451 0.504242 0.355588 -0.118515
N6    N     N_R   0.034549 0.495761 0.644410 -0.118516
O1    O     O_R   0.500000 0.285350 0.636850 -0.607602
O2    O     O_3   0.713238 0.252842 0.365029 -0.655198
O3    O     O_3   0.713238 0.747160 0.634972 -0.655200
O4    O     O_3   0.286761 0.252836 0.365038 -0.655198
O5    O     O_3   0.148750 0.747244 0.634770 -0.646643
O6    O     O_3   0.851250 0.252763 0.365219 -0.646645
O7    O     O_3   0.851250 0.747240 0.634777 -0.646644
O8    O     O_3   0.148749 0.252758 0.365231 -0.646642
O9    O     O_R   0.500000 0.714650 0.363150 -0.607602
O10   O     O_R   0.500000 0.714650 0.636850 -0.616912
O11   O     O_R   0.500000 0.285350 0.363150 -0.616912
O12   O     O_R   0.398140 0.500000 0.636920 -0.598765
O13   O     O_R   0.601860 0.500000 0.363080 -0.598765
O14   O     O_R   0.601860 0.500000 0.636920 -0.598769
O15   O     O_R   0.398140 0.500000 0.363080 -0.598770
O16   O     O_3   0.286763 0.747164 0.634961 -0.655196
Zn1   Zn    Zn3+2 0.500000 0.500000 0.682780 1.038001
Zn2   Zn    Zn3+2 0.500000 0.500000 0.317220 1.038001

loop_
_geom_bond_atom_site_label_1
_geom_bond_atom_site_label_2
_ccdc_geom_bond_type
C12   C17   S    
C5    C8    A    
H4    O4    S    
N2    Zn1   S    
N3    N5    A    
C6    C7    A    
C11   N5    A    
C15   O13   A    
N1    N2    T    
H2    O2    S    
C2    O4    S    
C4    C8    A    
C10   C19   A    
C9    C14   S    
O15   Zn2   S    
C1    O11   A    
C3    O5    S    
C13   N6    A    
C14   O12   A    
C5    C20   A    
H5    O5    S    
C20   O3    S    
C4    C19   A    
H6    O6    S    
C2    C6    A    
C15   O14   A    
C8    C11   S    
O10   Zn1   S    
H8    O8    S    
H1    O16   S    
C11   N4    A    
C12   O9    A    
C3    C7    A    
C10   C15   S    
O1    Zn1   S    
O9    Zn2   S    
C14   O15   A    
C9    C18   A    
C7    C13   S    
C18   O16   S    
C3    C18   A    
C12   O10   A    
C6    O8    S    
O13   Zn2   S    
C1    C16   S    
C1    O1    A    
H7    O7    S    
C5    O7    S    
O11   Zn2   S    
C19   O2    S    
H3    O3    S    
C2    C9    A    
O12   Zn1   S    
C13   N3    A    
O14   Zn1   S    
C4    O6    S    
C10   C20   A    
C16   C17   T    
N1    Zn2   S    
N4    N6    A    
