data_mof_unit_20875.cif
_audit_creation_date              2012-12-10T18:31:49-0500
_audit_creation_method            fapswitch 2.2
_symmetry_space_group_name_H-M    P1
_symmetry_Int_Tables_number       1
_space_group_crystal_system       triclinic
_cell_length_a                    10.633329
_cell_length_b                    14.979868
_cell_length_c                    15.458669
_cell_angle_alpha                 81.974028
_cell_angle_beta                  89.622695
_cell_angle_gamma                 104.489821
_cell_volume                      2358.45870846

loop_
_atom_site_label
_atom_site_type_symbol
_atom_type_description
_atom_site_fract_x
_atom_site_fract_y
_atom_site_fract_z
_atom_type_partial_charge
C1    C     C_R   0.486223 0.441373 0.662399 0.879259
C2    C     C_3   0.122038 0.500849 0.493238 0.107411
C3    C     C_3   0.044642 0.416996 0.450877 -0.402742
C4    C     C_3   0.107955 0.592683 0.437488 -0.407380
C5    C     C_R   0.501389 0.406884 0.754857 -0.089470
C6    C     C_R   0.548919 0.595661 0.245228 -0.111208
C7    C     C_R   0.552181 0.297538 0.872717 -0.205884
C8    C     C_R   0.521199 0.317618 0.785301 0.197607
C9    C     C_R   0.513345 0.472251 0.812404 -0.317574
C10   C     C_R   0.556575 0.455791 0.896561 0.091520
C11   C     C_R   0.570175 0.365683 0.928065 0.125599
C12   C     C_R   0.742380 0.502493 0.494802 0.836405
C13   C     C_R   0.581202 0.525984 0.951254 0.085255
C14   C     C_R   0.594418 0.500206 0.041343 0.082916
C15   C     C_R   0.611821 0.410430 0.070960 -0.228131
C16   C     C_R   0.601895 0.344801 0.014521 -0.228660
C17   C     C_R   0.594515 0.621011 0.918789 -0.244176
C18   C     C_R   0.604798 0.686825 0.975085 -0.234412
C19   C     C_R   0.594882 0.659363 0.065809 0.152618
C20   C     C_R   0.587671 0.564666 0.098905 0.050852
C21   C     C_R   0.588323 0.723228 0.124418 0.211390
C22   C     C_R   0.565718 0.690328 0.214010 -0.201747
C23   C     C_R   0.521405 0.558614 0.337810 0.861596
C24   C     C_R   0.562246 0.534518 0.188170 -0.279610
C25   C     C_R   0.694157 0.842505 0.636449 -0.323892
C26   C     C_R   0.661596 0.753222 0.614568 0.011447
C27   C     C_R   0.514646 0.793858 0.510486 -0.066789
C28   C     C_R   0.542269 0.885605 0.530154 -0.002556
C29   C     C_R   0.635059 0.909187 0.594215 0.184168
C30   C     C_R   0.481740 0.953910 0.488794 0.080375
C31   C     C_R   0.518031 0.046038 0.510892 0.083130
C32   C     C_R   0.611472 0.066296 0.574820 -0.242909
C33   C     C_R   0.668229 0.998891 0.615708 -0.214876
C34   C     C_R   0.258357 0.500320 0.497202 0.851817
C35   C     C_R   0.385246 0.932869 0.426934 -0.243685
C36   C     C_R   0.326149 0.999695 0.387645 -0.212615
C37   C     C_R   0.361013 0.089836 0.408031 0.180059
C38   C     C_R   0.458051 0.114482 0.469174 -0.002044
C39   C     C_R   0.298824 0.155756 0.368028 -0.319361
C40   C     C_R   0.332598 0.245317 0.389271 0.013305
C41   C     C_R   0.489823 0.207272 0.486077 -0.066358
C42   C     C_3   0.920760 0.487427 0.585825 -0.535627
C43   C     C_3   0.066733 0.493448 0.587493 -0.423194
C44   C     C_3   0.902338 0.421025 0.443427 0.061499
C45   C     C_3   0.966703 0.600599 0.445978 0.049985
C46   C     C_3   0.879690 0.503846 0.489694 0.152877
H1    H     H_    0.865321 0.417618 0.618977 0.178106
H2    H     H_    0.090773 0.416919 0.385983 0.176405
H3    H     H_    0.615720 0.276714 0.039282 0.146027
H4    H     H_    0.545617 0.461725 0.214063 0.170619
H5    H     H_    0.558065 0.738113 0.259177 0.159412
H6    H     H_    0.614452 0.758509 0.946524 0.162442
H7    H     H_    0.565379 0.229195 0.897331 0.136602
H8    H     H_    0.488033 0.536848 0.790390 0.171329
H9    H     H_    0.898886 0.539999 0.623963 0.186907
H10   H     H_    0.637228 0.390182 0.137015 0.148366
H11   H     H_    0.600898 0.646717 0.849641 0.149079
H12   H     H_    0.738954 0.017283 0.664656 0.141957
H13   H     H_    0.564075 0.233784 0.529262 0.124394
H14   H     H_    0.764807 0.859305 0.685741 0.142478
H15   H     H_    0.706413 0.700748 0.646482 0.131251
H16   H     H_    0.447917 0.769176 0.461997 0.123223
H17   H     H_    0.117195 0.555586 0.617318 0.191447
H18   H     H_    0.642542 0.133526 0.595945 0.136192
H19   H     H_    0.224205 0.137970 0.321432 0.144030
H20   H     H_    0.082820 0.430657 0.629071 0.172438
H21   H     H_    0.842821 0.354434 0.480595 0.157262
H22   H     H_    0.048327 0.350403 0.491927 0.165422
H23   H     H_    0.965534 0.651450 0.492070 0.168403
H24   H     H_    0.173428 0.655073 0.459436 0.163399
N1    N     N_R   0.573860 0.731700 0.552730 -0.098073
N2    N     N_R   0.426060 0.268290 0.447230 -0.098737
O1    O     O_R   0.462770 0.383110 0.605620 -0.603674
O2    O     O_R   0.510160 0.531900 0.639510 -0.618266
O3    O     O_R   0.661510 0.425600 0.483070 -0.632182
O4    O     O_R   0.708900 0.574390 0.516960 -0.626636
O5    O     O_R   0.489840 0.468100 0.360490 -0.620739
O6    O     O_R   0.537230 0.616890 0.394380 -0.622401
O7    O     O_R   0.291100 0.425610 0.483040 -0.626555
O8    O     O_R   0.338490 0.574400 0.516930 -0.624371
Zn1   Zn    Zn3+2 0.468350 0.400660 0.477370 0.923267
Zn2   Zn    Zn3+2 0.531650 0.599340 0.522630 0.926836
H25   H     H_    0.137191 0.592935 0.368133 0.173060
C47   C     C_3   0.860619 0.421223 0.347718 -0.897383
H26   H     H_    0.839340 0.349017 0.331810 0.232676
H27   H     H_    0.771958 0.446717 0.336338 0.259385
H28   H     H_    0.938929 0.464090 0.300690 0.239182
C48   C     C_3   0.514718 0.244163 0.726907 -0.895351
H29   H     H_    0.591207 0.270393 0.673832 0.233726
H30   H     H_    0.531928 0.179053 0.762945 0.225207
H31   H     H_    0.417123 0.225809 0.699184 0.257607
C49   C     C_3   0.601364 0.825271 0.093140 -0.961816
H32   H     H_    0.595465 0.864523 0.148289 0.244738
H33   H     H_    0.696898 0.856653 0.057843 0.243141
H34   H     H_    0.521964 0.833533 0.048871 0.243117
H35   H     H_    0.284444 0.296925 0.359769 0.131422
H36   H     H_    0.251998 0.980438 0.341023 0.143222
H37   H     H_    0.351258 0.864848 0.407817 0.134359
C50   C     C_3   0.921621 0.644200 0.359034 -0.929821
H38   H     H_    0.936876 0.608686 0.303424 0.254953
H39   H     H_    0.817784 0.644722 0.363850 0.256738
H40   H     H_    0.978983 0.717797 0.343002 0.239990

loop_
_geom_bond_atom_site_label_1
_geom_bond_atom_site_label_2
_ccdc_geom_bond_type
C33   H12   S    
C3    H22   S    
C47   H28   S    
C4    H24   S    
C18   H6    S    
C7    C8    A    
C45   C46   S    
C7    C11   A    
C30   C35   A    
C1    C5    S    
C1    O2    A    
C36   C37   A    
C19   C21   A    
C26   H15   S    
C40   H35   S    
C30   C31   A    
C42   H9    S    
C15   C16   A    
C6    C22   A    
C29   C33   A    
C3    H2    S    
C18   C19   A    
C42   C46   S    
C20   C24   A    
C34   O8    A    
C31   C32   A    
C36   H36   S    
C25   H14   S    
C35   H37   S    
C9    C10   A    
N2    Zn1   S    
N1    Zn2   S    
C2    C34   S    
C13   C14   A    
C25   C29   A    
C26   N1    A    
C39   H19   S    
O2    Zn2   S    
O1    Zn1   S    
C44   C46   S    
C4    C45   S    
C24   H4    S    
C3    C44   S    
C43   H17   S    
C14   C20   A    
C16   H3    S    
C41   H13   S    
C38   C41   A    
O8    Zn2   S    
C45   C50   S    
O4    Zn2   S    
C39   C40   A    
O7    Zn1   S    
O3    Zn1   S    
C25   C26   A    
C45   H23   S    
C49   H34   S    
C23   O5    A    
C8    C48   S    
C35   C36   A    
C2    C4    S    
C5    C9    A    
C37   C38   A    
C27   H16   S    
C34   O7    A    
C11   C16   A    
O6    Zn2   S    
C50   H38   S    
C48   H31   S    
O5    Zn1   S    
C2    C43   S    
C6    C24   A    
C49   H33   S    
C17   C18   A    
C47   H26   S    
C32   H18   S    
C41   N2    A    
C12   C46   S    
C50   H39   S    
C48   H30   S    
C12   O4    A    
C42   C43   S    
C7    H7    S    
C27   N1    A    
C28   C29   A    
C40   N2    A    
C47   H27   S    
C44   C47   S    
C10   C13   A    
C5    C8    A    
C31   C38   A    
C13   C17   A    
C1    O1    A    
C32   C33   A    
C19   C20   A    
C28   C30   A    
C2    C3    S    
C37   C39   A    
C15   H10   S    
C4    H25   S    
C43   H20   S    
C6    C23   S    
C49   H32   S    
C42   H1    S    
C23   O6    A    
C10   C11   A    
C50   H40   S    
C48   H29   S    
C12   O3    A    
C27   C28   A    
C14   C15   A    
C44   H21   S    
C9    H8    S    
C21   C22   A    
C17   H11   S    
C22   H5    S    
C21   C49   S    
