data_mof_unit_10383.cif
_audit_creation_date              2012-12-10T19:47:26-0500
_audit_creation_method            fapswitch 2.2
_symmetry_space_group_name_H-M    P1
_symmetry_Int_Tables_number       1
_space_group_crystal_system       triclinic
_cell_length_a                    10.885195
_cell_length_b                    10.83552
_cell_length_c                    12.699958
_cell_angle_alpha                 93.189577
_cell_angle_beta                  92.036604
_cell_angle_gamma                 89.349864
_cell_volume                      1494.58770281

loop_
_atom_site_label
_atom_site_type_symbol
_atom_type_description
_atom_site_fract_x
_atom_site_fract_y
_atom_site_fract_z
_atom_type_partial_charge
C1    C     C_R   0.261879 0.496227 0.501615 0.803602
C2    C     C_R   0.738121 0.503772 0.498385 0.803604
C3    C     C_R   0.499542 0.871605 0.498622 -0.128194
C4    C     C_R   0.500454 0.128395 0.501378 -0.128189
C5    C     C_R   0.417354 0.933298 0.430581 -0.069233
C6    C     C_R   0.582643 0.066701 0.569417 -0.069224
C7    C     C_R   0.225117 0.341388 0.827554 -0.156254
C8    C     C_R   0.774885 0.658617 0.172451 -0.156252
C9    C     C_R   0.184043 0.364126 0.724789 -0.109033
C10   C     C_R   0.815958 0.635874 0.275215 -0.109032
C11   C     C_R   0.122641 0.475477 0.703979 0.135517
C12   C     C_R   0.877359 0.524523 0.296022 0.135518
C13   C     C_R   0.104058 0.563779 0.787412 -0.158231
C14   C     C_R   0.895944 0.436226 0.212587 -0.158236
C15   C     C_R   0.145350 0.540642 0.889981 -0.140261
C16   C     C_R   0.854653 0.459368 0.110019 -0.140263
C17   C     C_R   0.204679 0.429045 0.910158 -0.112650
C18   C     C_R   0.795323 0.570965 0.089845 -0.112650
C19   C     C_R   0.936896 0.502081 0.593145 -0.236155
C20   C     C_R   0.063104 0.497916 0.406854 -0.236161
C21   C     C_R   0.871723 0.506542 0.496253 -0.082443
C22   C     C_R   0.128277 0.493455 0.503747 -0.082442
C23   C     C_R   0.500919 0.262028 0.500497 0.846790
C24   C     C_R   0.499079 0.737972 0.499503 0.846787
C25   C     C_R   0.935889 0.506974 0.401522 -0.021462
C26   C     C_R   0.064111 0.493023 0.598478 -0.021463
C27   C     C_2   0.488954 0.453421 0.031588 -0.273575
C28   C     C_2   0.511049 0.546579 0.968412 -0.273573
C29   C     C_1   0.516750 0.529441 0.852722 0.214463
C30   C     C_1   0.483251 0.470559 0.147278 0.214463
C31   C     C_R   0.878142 0.221745 0.664047 -0.130514
C32   C     C_R   0.121872 0.778242 0.335916 -0.130513
C33   C     C_R   0.788505 0.162225 0.599168 -0.220898
C34   C     C_R   0.211497 0.837768 0.400806 -0.220896
C35   C     C_R   0.673925 0.135321 0.639011 0.117039
C36   C     C_R   0.326083 0.864678 0.360977 0.117036
C37   C     C_R   0.648845 0.169736 0.745094 0.232024
C38   C     C_R   0.351182 0.830264 0.254896 0.232030
C39   C     C_R   0.739228 0.232234 0.808953 -0.166964
C40   C     C_R   0.260812 0.767759 0.191027 -0.166958
C41   C     C_R   0.853326 0.257744 0.768466 -0.156611
C42   C     C_R   0.146708 0.742243 0.231501 -0.156604
C43   C     C_R   0.582605 0.937548 0.567190 0.119628
C44   C     C_R   0.417394 0.062452 0.432809 0.119611
Cu1   Cu    Cu3+1 0.492140 0.492110 0.395880 0.986763
Cu2   Cu    Cu3+1 0.507860 0.507890 0.604120 0.986762
H1    H     H_    0.922747 0.305061 0.818219 0.145601
H2    H     H_    0.077296 0.694920 0.181740 0.145591
H3    H     H_    0.055364 0.649331 0.773245 0.125734
H4    H     H_    0.944640 0.350675 0.226751 0.125735
H5    H     H_    0.129579 0.608357 0.954123 0.125981
H6    H     H_    0.870426 0.391657 0.045875 0.125985
H7    H     H_    0.888328 0.500678 0.666145 0.175195
H8    H     H_    0.111672 0.499320 0.333855 0.175194
H9    H     H_    0.524603 0.639227 0.003669 0.148996
H10   H     H_    0.475399 0.360773 0.996331 0.148998
H11   H     H_    0.966877 0.240059 0.632988 0.141606
H12   H     H_    0.033133 0.759925 0.366964 0.141606
H13   H     H_    0.808898 0.135303 0.518185 0.131724
H14   H     H_    0.191089 0.864689 0.481786 0.131723
H15   H     H_    0.721764 0.260377 0.890252 0.120980
H16   H     H_    0.278291 0.739616 0.109731 0.120980
H17   H     H_    0.234104 0.410246 0.989977 0.132148
H18   H     H_    0.765898 0.589768 0.010028 0.132148
H19   H     H_    0.270827 0.254899 0.843552 0.123763
H20   H     H_    0.729176 0.745106 0.156455 0.123761
H21   H     H_    0.197372 0.293972 0.661974 0.105662
H22   H     H_    0.802627 0.706024 0.338031 0.105659
N1    N     N_1   0.480320 0.480250 0.239400 -0.157421
N2    N     N_1   0.519680 0.519750 0.760600 -0.157423
O1    O     O_R   0.313000 0.493330 0.412070 -0.574859
O2    O     O_R   0.687000 0.506670 0.587930 -0.574859
O3    O     O_R   0.326280 0.506660 0.587930 -0.577374
O4    O     O_R   0.673720 0.493340 0.412070 -0.577374
O5    O     O_R   0.493370 0.312980 0.412070 -0.549915
O6    O     O_R   0.506630 0.687020 0.587930 -0.549912
O7    O     O_R   0.506650 0.326310 0.587930 -0.596873
O8    O     O_R   0.493350 0.673690 0.412070 -0.596871
N3    N     N_3   0.532962 0.139283 0.787351 -0.613879
H23   H     H_    0.464681 0.190855 0.749475 0.228849
H24   H     H_    0.531279 0.166727 0.867532 0.197837
N4    N     N_3   0.467070 0.860725 0.212653 -0.613885
H25   H     H_    0.535351 0.809165 0.250541 0.228846
H26   H     H_    0.468771 0.833275 0.132474 0.197835
N5    N     N_3   0.669567 0.871845 0.631717 -0.577722
H27   H     H_    0.657088 0.899264 0.710864 0.242320
H28   H     H_    0.758493 0.895029 0.611961 0.208299
N6    N     N_3   0.330444 0.128155 0.368271 -0.577717
H29   H     H_    0.342954 0.100744 0.289126 0.242322
H30   H     H_    0.241514 0.104952 0.388000 0.208305

loop_
_geom_bond_atom_site_label_1
_geom_bond_atom_site_label_2
_ccdc_geom_bond_type
C8    H20   S    
Cu1   O1    S    
C32   H12   S    
Cu2   O6    S    
C39   C41   A    
Cu1   Cu2   S    
C37   N3    S    
C3    C43   A    
C1    O1    A    
C28   C29   S    
C35   C37   A    
C20   C25   A    
C5    C36   S    
C40   H16   S    
C6    C35   S    
C7    C9    A    
C19   C26   A    
C7    C17   A    
C31   C33   A    
Cu1   O8    S    
C15   H5    S    
Cu2   O2    S    
C2    O4    A    
C19   H7    S    
C40   C42   A    
C1    C22   S    
C33   H13   S    
C38   N4    S    
C27   C30   S    
C34   H14   S    
C3    C24   S    
C2    O2    A    
C28   H9    S    
N5    H28   S    
C39   H15   S    
Cu1   N1    S    
C43   N5    S    
C20   H8    S    
C23   O5    A    
N3    H24   S    
C4    C23   S    
C27   H10   S    
C24   O6    A    
C4    C44   A    
C11   C26   S    
N5    H27   S    
C8    C18   A    
Cu1   O4    S    
C32   C34   A    
C9    H21   S    
C7    H19   S    
C2    C21   S    
C41   H1    S    
C16   C18   A    
C42   H2    S    
C23   O7    A    
C9    C11   A    
C10   C12   A    
C13   H3    S    
C4    C6    A    
C5    C44   A    
N6    H30   S    
N4    H26   S    
C6    C43   A    
C13   C15   A    
C14   C16   A    
C30   N1    T    
C29   N2    T    
C24   O8    A    
C15   C17   A    
C21   C25   A    
C31   C41   A    
C19   C21   A    
C16   H6    S    
C20   C22   A    
C3    C5    A    
Cu2   O7    S    
C10   H22   S    
C12   C25   S    
Cu1   O5    S    
C1    O3    A    
C31   H11   S    
C36   C38   A    
C12   C14   A    
C37   C39   A    
C17   H17   S    
C38   C40   A    
C11   C13   A    
C18   H18   S    
C14   H4    S    
C33   C35   A    
C34   C36   A    
Cu2   N2    S    
N3    H23   S    
N6    H29   S    
C8    C10   A    
N4    H25   S    
C22   C26   A    
C27   C28   D    
C32   C42   A    
C44   N6    S    
Cu2   O3    S    
