data_mof_unit_9857.cif
_audit_creation_date              2013-03-05T15:49:19-0500
_audit_creation_method            fapswitch 2.2
_symmetry_space_group_name_H-M    P1
_symmetry_Int_Tables_number       1
_space_group_crystal_system       triclinic
_cell_length_a                    10.970908
_cell_length_b                    12.159724
_cell_length_c                    12.816014
_cell_angle_alpha                 92.55315
_cell_angle_beta                  92.701725
_cell_angle_gamma                 85.614489
_cell_volume                      1701.35748773

loop_
_atom_site_label
_atom_site_type_symbol
_atom_site_description
_atom_site_fract_x
_atom_site_fract_y
_atom_site_fract_z
_atom_type_partial_charge
O1    O     O_R   0.506170 0.421690 0.658830 -0.521388
O2    O     O_R   0.491330 0.609320 0.646410 -0.602218
C1    C     C_R   0.497914 0.521875 0.701367 0.927776
O3    O     O_R   0.690660 0.406170 0.506210 -0.582202
O4    O     O_R   0.675810 0.593790 0.493790 -0.665719
C2    C     C_R   0.739690 0.498201 0.496503 0.784833
Zn1   Zn    Zn3+2 0.509910 0.374720 0.508290 1.166380
Zn2   Zn    Zn3+2 0.490090 0.625280 0.491710 1.041066
O5    O     O_R   0.508670 0.390680 0.353590 -0.532247
O6    O     O_R   0.493830 0.578310 0.341170 -0.591914
O7    O     O_R   0.324190 0.406210 0.506210 -0.571277
O8    O     O_R   0.309340 0.593830 0.493790 -0.574498
C3    C     C_R   0.514644 0.480140 0.301129 0.947799
C4    C     C_R   0.260496 0.500370 0.507006 0.897074
H1    H     H_    0.874656 0.648881 0.420521 0.179456
C5    C     C_R   0.897106 0.306330 0.570894 0.408280
C6    C     C_R   0.937110 0.273992 0.671731 0.335712
C7    C     C_R   0.045611 0.316817 0.714500 0.252137
C8    C     C_R   0.125206 0.344923 0.639212 0.380564
C9    C     C_R   0.070296 0.413443 0.559802 -0.225569
C10   C     C_R   0.945129 0.402816 0.536862 -0.141527
C11   C     C_R   0.872592 0.491975 0.493222 -0.028608
C12   C     C_R   0.928541 0.580676 0.455735 -0.146695
H2    H     H_    0.095080 0.648710 0.426925 0.232018
C13   C     C_R   0.054738 0.581551 0.461319 -0.093845
C14   C     C_R   0.127645 0.498440 0.511780 -0.070197
C15   C     C_R   0.548739 0.476432 0.192978 -0.259300
C16   C     C_R   0.503918 0.538953 0.815348 -0.252040
C17   C     C_R   0.487065 0.657632 0.971439 -0.238129
C18   C     C_R   0.483171 0.646371 0.862492 0.431837
C19   C     C_R   0.528988 0.447699 0.879053 0.342637
C20   C     C_R   0.573833 0.468538 0.980425 -0.163410
C21   C     C_R   0.528525 0.567326 0.029857 0.006751
C22   C     C_R   0.511597 0.569243 0.135254 -0.183160
C23   C     C_R   0.629868 0.393036 0.148851 0.388400
C24   C     C_R   0.637129 0.385661 0.039932 0.472223
H3    H     H_    0.462549 0.641154 0.170484 0.242427
H4    H     H_    0.457272 0.735539 0.010130 0.182519
N1    N     N_R   0.523130 0.207800 0.519340 -0.147073
N2    N     N_R   0.476870 0.792180 0.480660 -0.246481
C25   C     C_R   0.373956 0.960491 0.418304 -0.070893
C26   C     C_R   0.386829 0.845668 0.417610 0.455037
C27   C     C_R   0.548814 0.857188 0.547512 0.554229
C28   C     C_R   0.538396 0.975545 0.544463 -0.085418
C29   C     C_R   0.458603 0.024911 0.470037 -0.274452
C30   C     C_R   0.465113 0.137315 0.447666 0.539993
C31   C     C_R   0.591527 0.163403 0.601340 0.516532
C32   C     C_R   0.605931 0.045824 0.612347 0.349256
H5    H     H_    0.295050 0.000109 0.377796 0.276687
S1    S     S_3+6 0.735852 0.282249 0.979773 0.090071
O9    O     O_2   0.671965 0.177344 0.964889 -0.203533
O10   O     O_2   0.769918 0.319912 0.875749 -0.357679
O11   O     O_3   0.864181 0.258352 0.054941 -0.456012
H6    H     H_    0.913119 0.199475 0.016256 0.386860
O12   O     O_3   0.449734 0.736390 0.802461 -0.691327
H7    H     H_    0.439860 0.803868 0.848604 0.365328
S2    S     S_3+6 0.420046 0.347341 0.870933 0.134197
O13   O     O_2   0.471575 0.240737 0.822083 -0.164286
O14   O     O_2   0.378873 0.324908 0.977789 -0.253381
O15   O     O_3   0.298780 0.398222 0.799361 -0.511246
H8    H     H_    0.261714 0.460234 0.842847 0.352045
S3    S     S_3+6 0.427746 0.173835 0.314876 0.106361
O16   O     O_2   0.335021 0.271153 0.310030 -0.267924
O17   O     O_2   0.544088 0.200039 0.268406 -0.209999
O18   O     O_3   0.374225 0.072293 0.236131 -0.517029
H9    H     H_    0.362756 0.103879 0.166100 0.418476
O19   O     O_3   0.646421 0.235405 0.670947 -0.664301
H10   H     H_    0.664901 0.198443 0.737471 0.405307
O20   O     O_3   0.679672 0.999453 0.691255 -0.641419
H11   H     H_    0.754296 0.039789 0.699490 0.393861
S4    S     S_3+6 0.282194 0.785595 0.324733 0.039101
O21   O     O_2   0.284685 0.662690 0.314009 -0.294329
O22   O     O_2   0.155167 0.829631 0.351495 -0.306781
O23   O     O_3   0.310758 0.832378 0.207438 -0.540295
H12   H     H_    0.241479 0.811122 0.160373 0.391992
O24   O     O_3   0.634344 0.810639 0.617545 -0.661281
H13   H     H_    0.630309 0.730846 0.614113 0.386062
S5    S     S_3+6 0.873262 0.199775 0.473479 0.101837
O25   O     O_2   0.744693 0.207651 0.428372 -0.289829
O26   O     O_2   0.957128 0.210657 0.385776 -0.229136
O27   O     O_3   0.903782 0.074695 0.523775 -0.483550
H14   H     H_    0.886409 0.021258 0.465331 0.392661
O28   O     O_3   0.888100 0.185980 0.713814 -0.697657
H15   H     H_    0.943738 0.155379 0.770104 0.381592
O29   O     O_3   0.092067 0.292426 0.813223 -0.639146
H16   H     H_    0.022013 0.292712 0.859342 0.362410
S6    S     S_3+6 0.216238 0.224248 0.602062 0.115966
O30   O     O_2   0.343825 0.240222 0.641075 -0.222216
O31   O     O_2   0.175798 0.124651 0.652812 -0.199393
O32   O     O_3   0.209567 0.197462 0.472242 -0.514188
H17   H     H_    0.170987 0.264409 0.439972 0.392824
O33   O     O_3   0.707204 0.323969 0.208795 -0.595595
H18   H     H_    0.716571 0.358086 0.280022 0.351223

loop_
_geom_bond_atom_site_label_1
_geom_bond_atom_site_label_2
_geom_bond_distance
_ccdc_geom_bond_type
O12   H7    0.991919 S    
C5    C10   1.416361 A    
C22   H3    1.083423 S    
C25   C26   1.392220 A    
C8    C9    1.426129 A    
C32   O20   1.378052 S    
S6    O30   1.487942 D    
O27   H14   0.990800 S    
O32   H17   0.986753 S    
O11   H6    0.990607 S    
Zn1   O7    2.043350 S    
C17   C18   1.395840 A    
C30   S3    1.798671 S    
O28   H15   0.989519 S    
C20   C24   1.411003 A    
C1    C16   1.465382 S    
C8    S6    1.770802 S    
O4    C2    1.311536 A    
O7    C4    1.294838 A    
S5    O26   1.502259 D    
S2    O14   1.504759 D    
C2    C11   1.456727 S    
C17   C21   1.392116 A    
C6    C7    1.412945 A    
C7    C8    1.401712 A    
C31   O19   1.373112 S    
O5    C3    1.311440 A    
O33   H18   0.989898 S    
S3    O17   1.495369 D    
N2    C27   1.397585 A    
C31   C32   1.438860 A    
C5    C6    1.408109 A    
C17   H4    1.084541 S    
S1    O10   1.501436 D    
C23   O33   1.379286 S    
H1    C12   1.083600 S    
C10   C11   1.414772 A    
O3    Zn1   2.049655 S    
C25   H5    1.080329 S    
C21   C22   1.371051 A    
C15   C22   1.400931 A    
S1    O11   1.682009 S    
O23   H12   0.990587 S    
O19   H10   0.986865 S    
C7    O29   1.377704 S    
O24   H13   0.973593 S    
O3    C2    1.291470 A    
S4    O22   1.503681 D    
S5    O25   1.496770 D    
S2    O15   1.674447 S    
C15   C23   1.413752 A    
C13   C14   1.401843 A    
O29   H16   0.991100 S    
C4    C14   1.463673 S    
O15   H8    0.990746 S    
C6    O28   1.375526 S    
C23   C24   1.400424 A    
C27   C28   1.437115 A    
S3    O16   1.501843 D    
S4    O23   1.682092 S    
C19   C20   1.386951 A    
Zn2   O8    2.049653 S    
S1    O9    1.502424 D    
H2    C13   1.078340 S    
N1    C30   1.393437 A    
O8    C4    1.313847 A    
S6    O31   1.505360 D    
C24   S1    1.769972 S    
C28   C29   1.388665 A    
N1    C31   1.368640 A    
C27   O24   1.375158 S    
Zn1   O5    2.000007 S    
Zn1   N1    2.034558 S    
S3    O18   1.682788 S    
O1    Zn1   1.988940 S    
C16   C19   1.409378 A    
O2    Zn2   2.000008 S    
O6    C3    1.286564 A    
O4    Zn2   2.043350 S    
C18   O12   1.382632 S    
C20   C21   1.400711 A    
C19   S2    1.768769 S    
C16   C18   1.421306 A    
O2    C1    1.296961 A    
S4    O21   1.492957 D    
S5    O27   1.682260 S    
S2    O13   1.496948 D    
C9    C14   1.426701 A    
N2    C26   1.387479 A    
C26   S4    1.786106 S    
C5    S5    1.784048 S    
C12   C13   1.383801 A    
O20   H11   0.985203 S    
C29   C30   1.416770 A    
C9    C10   1.405171 A    
Zn2   O6    1.988940 S    
O18   H9    0.990733 S    
S6    O32   1.680323 S    
C25   C29   1.386554 A    
C11   C12   1.395045 A    
C3    C15   1.450465 S    
Zn2   N2    2.034317 S    
O1    C1    1.310755 A    
C28   C32   1.416332 A    
