data_mof_unit_59656.cif
_audit_creation_date              2012-12-10T18:11:44-0500
_audit_creation_method            fapswitch 2.2
_symmetry_space_group_name_H-M    P1
_symmetry_Int_Tables_number       1
_space_group_crystal_system       triclinic
_cell_length_a                    10.552165
_cell_length_b                    12.668307
_cell_length_c                    13.235864
_cell_angle_alpha                 83.099897
_cell_angle_beta                  92.767384
_cell_angle_gamma                 101.646172
_cell_volume                      1719.84226227

loop_
_atom_site_label
_atom_site_type_symbol
_atom_type_description
_atom_site_fract_x
_atom_site_fract_y
_atom_site_fract_z
_atom_type_partial_charge
C1    C     C_R   0.487801 0.439750 0.690827 0.933902
C2    C     C_R   0.504356 0.453994 0.970991 0.088969
C3    C     C_R   0.546983 0.470106 0.870462 -0.039885
C4    C     C_R   0.741577 0.499925 0.501945 0.978960
C5    C     C_R   0.558719 0.530204 0.037511 0.023915
C6    C     C_R   0.629523 0.632399 0.999784 0.052051
C7    C     C_R   0.683086 0.643334 0.903985 -0.245421
C8    C     C_R   0.653249 0.556740 0.844730 0.381626
C9    C     C_R   0.552906 0.504091 0.141543 0.334231
C10   C     C_R   0.611698 0.695261 0.163489 -0.133486
C11   C     C_R   0.478562 0.402628 0.799497 -0.195514
C12   C     C_3   0.057073 0.581755 0.433774 -0.272378
C13   C     C_R   0.390782 0.114256 0.307920 0.109474
C14   C     C_R   0.630099 0.793663 0.644768 0.085545
C15   C     C_R   0.657322 0.895793 0.678123 -0.209293
C16   C     C_R   0.524381 0.558812 0.309999 0.939582
C17   C     C_R   0.617203 0.982180 0.619517 -0.106147
C18   C     C_R   0.551337 0.967360 0.525439 -0.022342
C19   C     C_R   0.529085 0.862098 0.492289 0.097657
C20   C     C_R   0.500632 0.051504 0.465217 -0.114369
C21   C     C_R   0.455018 0.036998 0.363737 0.021716
C22   C     C_R   0.467676 0.941918 0.324719 0.338197
C23   C     C_3   0.985533 0.594061 0.529845 0.407462
C24   C     C_R   0.473603 0.850996 0.393106 0.288146
C25   C     C_R   0.491418 0.149198 0.502172 0.054214
C26   C     C_R   0.379690 0.205834 0.351835 0.017302
C27   C     C_R   0.258199 0.499454 0.499141 0.979094
C28   C     C_3   0.943245 0.417441 0.567196 0.061240
C29   C     C_3   0.052150 0.510132 0.593227 0.059193
C30   C     C_3   0.123250 0.497678 0.498873 -0.156769
C31   C     C_3   0.013913 0.405039 0.472864 0.081413
C32   C     C_3   0.946773 0.487407 0.408233 0.296854
C33   C     C_3   0.876095 0.500420 0.503327 -0.249267
C34   C     C_R   0.654800 0.716109 0.063070 -0.114248
C35   C     C_R   0.561193 0.587925 0.203782 -0.139380
C36   C     C_R   0.382476 0.311136 0.833556 0.391626
C37   C     C_R   0.347147 0.293715 0.934693 -0.155309
C38   C     C_R   0.402724 0.366754 0.001550 -0.188245
Cl1   Cl    Cl    0.583791 0.373229 0.188429 -0.549891
Cl2   Cl    Cl    0.291493 0.221875 0.752057 -0.553529
Cl3   Cl    Cl    0.766048 0.549637 0.753375 -0.665819
Cl4   Cl    Cl    0.456271 0.926222 0.192962 -0.532919
Cl5   Cl    Cl    0.343388 0.748818 0.366907 -0.562266
Cl6   Cl    Cl    0.878885 0.474111 0.283735 -0.528537
Cl7   Cl    Cl    0.972099 0.721575 0.568014 -0.517210
H1    H     H_    0.362582 0.356242 0.076652 0.165897
H2    H     H_    0.755658 0.714190 0.879394 0.179919
H3    H     H_    0.705772 0.796543 0.034907 0.166760
H4    H     H_    0.041663 0.528509 0.742749 0.260162
H5    H     H_    0.180765 0.593248 0.688809 0.221031
H6    H     H_    0.232552 0.099933 0.214191 0.188356
H7    H     H_    0.372244 0.164119 0.158102 0.222797
H8    H     H_    0.810676 0.278008 0.598745 0.186797
H9    H     H_    0.833839 0.359474 0.691673 0.229912
H10   H     H_    0.937856 0.256490 0.429508 0.216403
H11   H     H_    0.075953 0.318360 0.372432 0.209495
H12   H     H_    0.270254 0.226759 0.960430 0.186797
H13   H     H_    0.335276 0.267840 0.309231 0.135285
H14   H     H_    0.531351 0.170313 0.575186 0.130072
H15   H     H_    0.660371 0.727223 0.690939 0.180038
H16   H     H_    0.641576 0.060033 0.648351 0.140887
H17   H     H_    0.708805 0.907778 0.749908 0.163128
H18   H     H_    0.098038 0.648430 0.375680 0.254859
H19   H     H_    0.626308 0.760603 0.211147 0.205417
N1    N     N_R   0.432930 0.222190 0.444670 -0.108510
N2    N     N_R   0.566370 0.776980 0.554790 -0.110765
N3    N     N_3   0.112876 0.520419 0.693729 -0.406667
N4    N     N_3   0.330967 0.098763 0.209917 -0.359132
N5    N     N_3   0.881736 0.327538 0.639024 -0.382294
N6    N     N_3   0.030256 0.301887 0.442503 -0.374441
O1    O     O_R   0.467970 0.366730 0.627150 -0.581934
O2    O     O_R   0.510820 0.544830 0.662520 -0.623113
O3    O     O_R   0.664630 0.410960 0.482340 -0.616960
O4    O     O_R   0.707470 0.589060 0.517710 -0.557739
O5    O     O_R   0.489180 0.455170 0.337480 -0.588964
O6    O     O_R   0.532030 0.633270 0.372850 -0.588859
O7    O     O_R   0.292530 0.410940 0.482290 -0.607794
O8    O     O_R   0.335370 0.589040 0.517660 -0.571585
Zn1   Zn    Zn3+2 0.471390 0.381080 0.476380 1.025970
Zn2   Zn    Zn3+2 0.528610 0.618920 0.523620 1.038628

loop_
_geom_bond_atom_site_label_1
_geom_bond_atom_site_label_2
_ccdc_geom_bond_type
C23   Cl7   S    
C16   O5    A    
C28   N5    S    
C1    C11   S    
C27   O8    A    
H8    N5    S    
O1    Zn1   S    
C7    C8    A    
C12   C23   S    
C1    O1    A    
N1    Zn1   S    
C5    C6    A    
C23   C29   S    
C28   C29   S    
C16   C35   S    
C30   C31   S    
O8    Zn2   S    
C20   C25   A    
C9    Cl1   S    
C19   N2    A    
C18   C19   A    
C17   H16   S    
C29   N3    S    
C31   N6    S    
C23   C33   S    
C10   C35   A    
C29   C30   S    
H5    N3    S    
C4    O4    A    
H7    N4    S    
O4    Zn2   S    
C21   C22   A    
C12   C32   S    
C27   C30   S    
O7    Zn1   S    
O3    Zn1   S    
C1    O2    A    
C36   Cl2   S    
C25   N1    A    
C8    Cl3   S    
C3    C8    A    
C12   H18   S    
C6    C34   A    
C11   C36   A    
C5    C9    A    
C37   C38   A    
C2    C38   A    
C31   C32   S    
C17   C18   A    
C14   N2    A    
C13   C21   A    
C10   C34   A    
C26   H13   S    
C4    O3    A    
C28   C33   S    
H11   N6    S    
C22   C24   A    
C13   C26   A    
C2    C5    A    
C34   H3    S    
N2    Zn2   S    
C15   C17   A    
C4    C33   S    
C36   C37   A    
H4    N3    S    
C12   C30   S    
C16   O6    A    
C26   N1    A    
C28   C31   S    
C10   H19   S    
O6    Zn2   S    
C27   O7    A    
C6    C7    A    
C14   H15   S    
C32   C33   S    
C19   C24   A    
O2    Zn2   S    
C22   Cl4   S    
H9    N5    S    
C15   H17   S    
C2    C3    A    
C18   C20   A    
H6    N4    S    
C38   H1    S    
H10   N6    S    
C3    C11   A    
C20   C21   A    
C32   Cl6   S    
C9    C35   A    
C24   Cl5   S    
C14   C15   A    
C25   H14   S    
O5    Zn1   S    
C37   H12   S    
C7    H2    S    
C13   N4    S    
