data_mof_unit_54269.cif
_audit_creation_date              2012-10-26T19:02:36-0400
_audit_creation_method            fapswitch 2.2
_symmetry_space_group_name_H-M    P1
_symmetry_Int_Tables_number       1
_space_group_crystal_system       triclinic
_cell_length_a                    17.280289
_cell_length_b                    8.667496
_cell_length_c                    7.512172
_cell_angle_alpha                 102.916649
_cell_angle_beta                  91.418508
_cell_angle_gamma                 93.012826
_cell_volume                      1094.39260538

loop_
_atom_site_label
_atom_site_type_symbol
_atom_type_description
_atom_site_fract_x
_atom_site_fract_y
_atom_site_fract_z
_atom_type_partial_charge
C1    C     C_R   0.497651 0.199981 0.453721 0.549921
C2    C     C_R   0.773937 0.623772 0.617028 -0.118456
C3    C     C_R   0.142902 0.507179 0.378751 0.301658
C4    C     C_R   0.854440 0.651294 0.611961 0.279234
C5    C     C_R   0.109996 0.577744 0.544508 0.036151
C6    C     C_R   0.891586 0.580903 0.451952 0.034892
C7    C     C_R   0.158671 0.633075 0.698528 -0.183870
C8    C     C_R   0.849327 0.485808 0.301935 -0.176748
C9    C     C_R   0.236976 0.603464 0.696557 -0.157611
C10   C     C_R   0.769909 0.457770 0.309837 -0.161445
C11   C     C_2   0.025606 0.588503 0.566801 -0.083279
C12   C     C_R   0.502376 0.800019 0.546272 0.546157
C13   C     C_2   0.974970 0.603969 0.434711 -0.084308
C14   C     C_3   0.880724 0.745735 0.926056 -0.005384
C15   C     C_3   0.844508 0.894797 0.032009 -0.261925
C16   C     C_3   0.829287 0.885005 0.228441 -0.469161
C17   C     C_3   0.125521 0.613169 0.127885 -0.025951
C18   C     C_3   0.136919 0.783695 0.252064 -0.297729
C19   C     C_3   0.149249 0.911002 0.142871 -0.474452
C20   C     C_2   0.496534 0.031867 0.427900 -0.157046
C21   C     C_2   0.503514 0.968121 0.572082 -0.156737
C22   C     C_R   0.351399 0.503560 0.524168 0.546113
C23   C     C_R   0.648544 0.502877 0.476583 0.545867
C24   C     C_R   0.268079 0.519970 0.535989 -0.029199
C25   C     C_R   0.732172 0.525432 0.467957 -0.025392
C26   C     C_R   0.220716 0.472212 0.377060 -0.113365
Cu1   Cu    Cu3+1 0.508700 0.517250 0.683000 0.949655
Cu2   Cu    Cu3+1 0.491300 0.482750 0.317000 0.949836
H1    H     H_    0.244660 0.415671 0.248448 0.133939
H2    H     H_    0.510090 0.039726 0.710914 0.134324
H3    H     H_    0.439000 0.377924 0.958213 0.237992
H4    H     H_    0.561007 0.622073 0.041782 0.236620
H5    H     H_    0.937134 0.734594 0.995048 0.135828
H6    H     H_    0.844112 0.637235 0.932198 0.116726
H7    H     H_    0.884389 0.000083 0.033691 0.182001
H8    H     H_    0.788937 0.911143 0.963001 0.160018
H9    H     H_    0.787386 0.783839 0.230300 0.161509
H10   H     H_    0.804286 0.995985 0.301594 0.155333
H11   H     H_    0.884260 0.870319 0.300967 0.165005
H12   H     H_    0.743265 0.683639 0.734061 0.119604
H13   H     H_    0.078499 0.614574 0.025407 0.145498
H14   H     H_    0.179656 0.581585 0.055200 0.147820
H15   H     H_    0.085903 0.813252 0.336742 0.167125
H16   H     H_    0.188669 0.791788 0.345236 0.166762
H17   H     H_    0.201791 0.890049 0.060727 0.148587
H18   H     H_    0.157772 0.029119 0.238210 0.165275
H19   H     H_    0.097599 0.912585 0.052434 0.158334
H20   H     H_    0.738064 0.383572 0.192965 0.137194
H21   H     H_    0.273462 0.650546 0.817915 0.134665
H22   H     H_    0.992493 0.619508 0.303256 0.154856
H23   H     H_    0.003988 0.573393 0.696786 0.137600
H24   H     H_    0.135945 0.706134 0.817056 0.109864
H25   H     H_    0.878155 0.432513 0.178647 0.121859
H26   H     H_    0.489960 0.960257 0.289067 0.133588
N1    N     N_2   0.478180 0.456750 0.041980 -0.259719
N2    N     N_2   0.521820 0.543250 0.958020 -0.260115
O1    O     O_R   0.505650 0.286040 0.618880 -0.502106
O2    O     O_3   0.101753 0.490170 0.216071 -0.593302
O3    O     O_R   0.494350 0.713960 0.381120 -0.504344
O4    O     O_R   0.490960 0.256910 0.309800 -0.498383
O5    O     O_R   0.509040 0.743090 0.690200 -0.501516
O6    O     O_R   0.394600 0.516230 0.672450 -0.504825
O7    O     O_R   0.605400 0.483770 0.327550 -0.505527
O8    O     O_R   0.379910 0.487100 0.363380 -0.509069
O9    O     O_R   0.620090 0.512900 0.636620 -0.506363
O10   O     O_3   0.896117 0.763244 0.746872 -0.580083

loop_
_geom_bond_atom_site_label_1
_geom_bond_atom_site_label_2
_ccdc_geom_bond_type
C8    H25   S    
C14   H6    S    
C2    C4    A    
N1    N2    D    
C19   H17   S    
C9    C24   A    
Cu1   O9    S    
Cu1   O6    S    
C18   H16   S    
C22   O6    A    
C3    C26   A    
Cu2   O7    S    
C21   H2    S    
C16   H9    S    
C14   C15   S    
C17   O2    S    
C23   O9    A    
C14   H5    S    
C23   O7    A    
C17   C18   S    
C14   O10   S    
C19   H18   S    
C5    C7    A    
C18   H15   S    
C6    C13   S    
C4    O10   S    
C12   O5    A    
C11   C13   D    
Cu2   O8    S    
C10   C25   A    
C4    C6    A    
Cu2   N1    S    
C24   C26   A    
C7    H24   S    
C5    C11   S    
C2    C25   A    
C19   H19   S    
Cu2   O4    S    
C10   H20   S    
C17   H13   S    
C1    O4    A    
C11   H23   S    
C16   H11   S    
C22   O8    A    
C13   H22   S    
C3    O2    S    
C2    H12   S    
C15   H8    S    
C23   C25   S    
C9    H21   S    
C20   C21   D    
C26   H1    S    
C20   H26   S    
C18   C19   S    
Cu1   O1    S    
Cu2   O3    S    
C15   H7    S    
Cu1   Cu2   S    
C7    C9    A    
Cu1   N2    S    
C1    C20   S    
C6    C8    A    
Cu1   O5    S    
H3    N1    S    
C17   H14   S    
C12   O3    A    
C12   C21   S    
H4    N2    S    
C8    C10   A    
C15   C16   S    
C22   C24   S    
C16   H10   S    
C3    C5    A    
C1    O1    A    
