data_mof_unit_45915.cif
_audit_creation_date              2012-10-26T20:16:51-0400
_audit_creation_method            fapswitch 2.2
_symmetry_space_group_name_H-M    P1
_symmetry_Int_Tables_number       1
_space_group_crystal_system       triclinic
_cell_length_a                    10.856526
_cell_length_b                    10.864026
_cell_length_c                    10.427305
_cell_angle_alpha                 90.439517
_cell_angle_beta                  90.278191
_cell_angle_gamma                 90.140079
_cell_volume                      1229.80007413

loop_
_atom_site_label
_atom_site_type_symbol
_atom_type_description
_atom_site_fract_x
_atom_site_fract_y
_atom_site_fract_z
_atom_type_partial_charge
C1    C     C_R   0.495715 0.261511 0.499177 0.542410
C2    C     C_R   0.690343 0.829501 0.745361 -0.062914
C3    C     C_R   0.426372 0.115521 0.262919 0.051533
C4    C     C_R   0.573652 0.884477 0.737072 0.051523
C5    C     C_R   0.501399 0.110239 0.153649 -0.098000
C6    C     C_R   0.498639 0.889743 0.846350 -0.097998
C7    C     C_R   0.460603 0.160625 0.038000 -0.120365
C8    C     C_R   0.539449 0.839345 0.961988 -0.120368
C9    C     C_R   0.344487 0.215364 0.030402 -0.105836
C10   C     C_R   0.655565 0.784608 0.969566 -0.105833
C11   C     C_R   0.476868 0.932423 0.388275 -0.161861
C12   C     C_R   0.504285 0.738489 0.500822 0.542413
C13   C     C_R   0.523130 0.067576 0.611725 -0.161862
C14   C     C_R   0.506654 0.872108 0.502306 -0.005297
C15   C     C_R   0.493346 0.127891 0.497694 -0.005299
C16   C     C_R   0.261556 0.503926 0.499440 0.542546
C17   C     C_R   0.738444 0.496077 0.500560 0.542541
C18   C     C_R   0.532003 0.940503 0.615335 -0.034203
C19   C     C_R   0.468001 0.059496 0.384664 -0.034204
C20   C     C_1   0.500019 0.500009 0.071944 0.100267
C21   C     C_1   0.499981 0.499990 0.928056 0.100257
C22   C     C_R   0.230821 0.761188 0.168931 -0.107935
C23   C     C_R   0.872007 0.493956 0.501617 -0.005920
C24   C     C_R   0.769190 0.238778 0.831031 -0.107937
C25   C     C_R   0.179009 0.711324 0.279678 -0.060103
C26   C     C_R   0.820983 0.288674 0.720293 -0.060085
C27   C     C_R   0.117862 0.597258 0.273845 0.056034
C28   C     C_R   0.882142 0.402732 0.726150 0.056032
C29   C     C_R   0.108778 0.534420 0.155967 -0.093189
C30   C     C_R   0.891253 0.465530 0.844045 -0.093210
C31   C     C_R   0.162596 0.583551 0.046025 -0.116413
C32   C     C_R   0.837453 0.416366 0.953982 -0.116418
C33   C     C_R   0.223358 0.696984 0.052441 -0.105939
C34   C     C_R   0.127993 0.506055 0.498384 -0.005916
C35   C     C_R   0.776681 0.302941 0.947540 -0.105943
C36   C     C_R   0.932794 0.537111 0.392723 -0.158868
C37   C     C_R   0.067206 0.462903 0.607281 -0.158864
C38   C     C_R   0.939773 0.455128 0.610055 -0.035206
C39   C     C_R   0.060227 0.544883 0.389948 -0.035209
C40   C     C_R   0.269056 0.220069 0.138551 -0.099592
C41   C     C_R   0.730982 0.779918 0.861408 -0.099583
C42   C     C_R   0.309681 0.170501 0.254610 -0.062906
Cu1   Cu    Cu3+1 0.500000 0.500000 0.625300 0.981009
Cu2   Cu    Cu3+1 0.500000 0.500000 0.374700 0.981013
H1    H     H_    0.264140 0.735353 0.967034 0.112244
H2    H     H_    0.723861 0.150065 0.826827 0.097298
H3    H     H_    0.185712 0.761696 0.369503 0.095035
H4    H     H_    0.814260 0.238332 0.630454 0.095039
H5    H     H_    0.060515 0.447299 0.149624 0.092943
H6    H     H_    0.939524 0.552644 0.850409 0.092957
H7    H     H_    0.156768 0.533956 0.955765 0.104188
H8    H     H_    0.843305 0.465927 0.044257 0.104196
H9    H     H_    0.880703 0.568683 0.310266 0.128674
H10   H     H_    0.119297 0.431328 0.689735 0.128673
H11   H     H_    0.312918 0.253976 0.940704 0.111426
H12   H     H_    0.735915 0.264545 0.032942 0.112238
H13   H     H_    0.687144 0.745985 0.059254 0.111423
H14   H     H_    0.178777 0.261342 0.132227 0.100572
H15   H     H_    0.821258 0.738643 0.867715 0.100583
H16   H     H_    0.250244 0.174286 0.337679 0.095956
H17   H     H_    0.749768 0.825726 0.662285 0.095956
H18   H     H_    0.591268 0.067366 0.158196 0.103599
H19   H     H_    0.408768 0.932610 0.841818 0.103604
H20   H     H_    0.518681 0.156731 0.954078 0.106730
H21   H     H_    0.481381 0.843225 0.045917 0.106732
H22   H     H_    0.456952 0.880235 0.301662 0.126610
H23   H     H_    0.543042 0.119764 0.698339 0.126607
H24   H     H_    0.276143 0.849905 0.173116 0.097297
N1    N     N_1   0.500010 0.499990 0.186410 -0.189252
N2    N     N_1   0.499990 0.500010 0.813590 -0.189257
O1    O     O_R   0.499990 0.319650 0.605810 -0.509806
O2    O     O_R   0.500010 0.680350 0.394190 -0.509807
O3    O     O_R   0.499990 0.319640 0.394190 -0.484102
O4    O     O_R   0.500010 0.680360 0.605810 -0.484101
O5    O     O_R   0.319640 0.500010 0.605810 -0.511739
O6    O     O_R   0.680360 0.499990 0.394190 -0.511735
O7    O     O_R   0.319650 0.500010 0.394190 -0.482538
O8    O     O_R   0.680350 0.499990 0.605810 -0.482540

loop_
_geom_bond_atom_site_label_1
_geom_bond_atom_site_label_2
_ccdc_geom_bond_type
C3    C42   A    
C12   O4    A    
C27   C29   A    
C34   C37   A    
C33   H1    S    
C14   C18   A    
C29   H5    S    
Cu1   O8    S    
C15   C19   A    
C11   C19   A    
C17   C23   S    
C13   C18   A    
Cu2   O7    S    
C24   C26   A    
C11   C14   A    
C2    C41   A    
C16   O5    A    
C16   O7    A    
Cu2   O6    S    
C32   H8    S    
C36   H9    S    
C16   C34   S    
C27   C39   S    
C22   C25   A    
C17   O6    A    
C31   C33   A    
C3    C19   S    
C1    C15   S    
C25   H3    S    
C2    H17   S    
C26   H4    S    
C4    C18   S    
Cu1   O4    S    
C40   C42   A    
C30   H6    S    
C8    H21   S    
C10   C41   A    
Cu1   O5    S    
C24   C35   A    
C40   H14   S    
C34   C39   A    
C32   C35   A    
C10   H13   S    
C41   H15   S    
C4    C6    A    
C42   H16   S    
C5    C7    A    
C6    C8    A    
C9    C40   A    
C6    H19   S    
C2    C4    A    
Cu1   Cu2   S    
C37   C38   A    
C28   C38   S    
Cu2   N1    S    
C1    O1    A    
C22   H24   S    
C9    H11   S    
C37   H10   S    
C12   C14   S    
Cu1   N2    S    
C13   C15   A    
C20   N1    T    
C13   H23   S    
C7    C9    A    
C22   C33   A    
Cu1   O1    S    
C35   H12   S    
C36   C39   A    
C31   H7    S    
C3    C5    A    
C11   H22   S    
C25   C27   A    
C23   C38   A    
C26   C28   A    
C21   N2    T    
C1    O3    A    
C28   C30   A    
C24   H2    S    
C29   C31   A    
C30   C32   A    
C17   O8    A    
C5    H18   S    
Cu2   O2    S    
C12   O2    A    
Cu2   O3    S    
C7    H20   S    
C20   C21   S    
C8    C10   A    
C23   C36   A    
