data_mof_unit_63900.cif
_audit_creation_date              2012-10-26T17:16:11-0400
_audit_creation_method            fapswitch 2.2
_symmetry_space_group_name_H-M    P1
_symmetry_Int_Tables_number       1
_space_group_crystal_system       triclinic
_cell_length_a                    23.66216
_cell_length_b                    30.737413
_cell_length_c                    19.420051
_cell_angle_alpha                 90.001271
_cell_angle_beta                  127.455185
_cell_angle_gamma                 89.999307
_cell_volume                      11212.4149937

loop_
_atom_site_label
_atom_site_type_symbol
_atom_type_description
_atom_site_fract_x
_atom_site_fract_y
_atom_site_fract_z
_atom_type_partial_charge
C1    C     C_R   0.691266 0.809285 0.881567 0.534977
C2    C     C_R   0.335112 0.161468 0.256836 -0.071556
C3    C     C_R   0.660981 0.174240 0.596242 0.309413
C4    C     C_R   0.203774 0.341747 0.632765 0.369977
C5    C     C_R   0.839768 0.674502 0.404277 0.309468
C6    C     C_R   0.796228 0.341748 0.367238 0.369964
C7    C     C_R   0.160464 0.674433 0.595889 0.309471
C8    C     C_R   0.647403 0.866711 0.617242 0.273354
C9    C     C_R   0.382499 0.141869 0.404879 0.278212
C10   C     C_R   0.352541 0.866733 0.382710 0.273367
C11   C     C_R   0.617985 0.141745 0.595416 0.278161
C12   C     C_R   0.147437 0.366723 0.617271 0.273365
C13   C     C_R   0.323219 0.843623 0.244435 -0.061331
C14   C     C_R   0.882452 0.641860 0.404855 0.278160
C15   C     C_R   0.852566 0.366723 0.382733 0.273364
C16   C     C_R   0.117703 0.641823 0.595236 0.278111
C17   C     C_R   0.637687 0.871821 0.683026 -0.081507
C18   C     C_R   0.376007 0.132727 0.328165 -0.021589
C19   C     C_R   0.362286 0.871832 0.316949 -0.081526
C20   C     C_R   0.624214 0.132666 0.671976 -0.021727
C21   C     C_R   0.137703 0.371828 0.683042 -0.081517
C22   C     C_R   0.875983 0.632722 0.328153 -0.021687
C23   C     C_R   0.862298 0.371826 0.316962 -0.081524
C24   C     C_R   0.665108 0.161384 0.743345 -0.071527
C25   C     C_R   0.124087 0.632705 0.671889 -0.021763
C26   C     C_R   0.176769 0.343617 0.755552 -0.061330
C27   C     C_R   0.835095 0.661464 0.256823 -0.071545
C28   C     C_R   0.823229 0.343617 0.244448 -0.061330
C29   C     C_R   0.164971 0.661440 0.743234 -0.071531
C30   C     C_R   0.661271 0.842431 0.815001 -0.019192
C31   C     C_R   0.336612 0.157385 0.185470 -0.025450
C32   C     C_R   0.338731 0.842430 0.184998 -0.019179
C33   C     C_R   0.306864 0.190673 0.118548 0.536919
C34   C     C_R   0.663351 0.157387 0.814528 -0.025273
C35   C     C_R   0.161269 0.342430 0.815001 -0.019185
C36   C     C_R   0.836610 0.657384 0.185469 -0.025437
C37   C     C_R   0.838730 0.342429 0.185000 -0.019180
C38   C     C_R   0.163377 0.657386 0.814530 -0.025374
C39   C     C_R   0.615128 0.872292 0.810326 -0.062535
C40   C     C_R   0.371137 0.122609 0.179909 -0.071698
C41   C     C_R   0.384914 0.872269 0.189711 -0.062513
C42   C     C_R   0.628531 0.122722 0.819870 -0.071957
C43   C     C_R   0.115104 0.372279 0.810306 -0.062512
C44   C     C_R   0.308734 0.809285 0.118433 0.534970
C45   C     C_R   0.871149 0.622614 0.179921 -0.071697
C46   C     C_R   0.884906 0.372271 0.189706 -0.062530
C47   C     C_R   0.128744 0.622650 0.820005 -0.071802
C48   C     C_R   0.583759 0.904318 0.747557 0.237204
C49   C     C_R   0.407670 0.092403 0.245929 0.187019
C50   C     C_R   0.416288 0.904293 0.252484 0.237307
C51   C     C_R   0.591991 0.092534 0.753809 0.186878
C52   C     C_R   0.083732 0.404305 0.747535 0.237277
C53   C     C_R   0.907685 0.592410 0.245944 0.187006
C54   C     C_R   0.916284 0.404295 0.252483 0.237281
C55   C     C_R   0.693114 0.190673 0.881452 0.536873
C56   C     C_R   0.092209 0.592453 0.753969 0.186946
C57   C     C_R   0.592303 0.903898 0.681216 -0.003483
C58   C     C_R   0.410058 0.096576 0.320232 0.027729
C59   C     C_R   0.407703 0.903893 0.318790 -0.003449
C60   C     C_R   0.589909 0.096606 0.679714 0.027628
C61   C     C_R   0.092300 0.403896 0.681215 -0.003464
C62   C     C_R   0.910054 0.596577 0.320234 0.027584
C63   C     C_R   0.907706 0.403891 0.318794 -0.003448
C64   C     C_R   0.089937 0.596588 0.679747 0.027551
C65   C     C_R   0.058466 0.560724 0.616985 0.637907
C66   C     C_R   0.191265 0.309285 0.881567 0.534975
C67   C     C_R   0.941413 0.439006 0.383464 0.519931
C68   C     C_R   0.941527 0.560717 0.383002 0.637779
C69   C     C_R   0.058589 0.439008 0.616539 0.519904
C70   C     C_R   0.558457 0.060731 0.616970 0.637996
C71   C     C_R   0.441412 0.939007 0.383463 0.519939
C72   C     C_R   0.441528 0.060716 0.383000 0.637733
C73   C     C_R   0.558589 0.939008 0.616539 0.519889
C74   C     C_R   0.641950 0.749959 0.000054 0.536450
C75   C     C_R   0.358071 0.250026 0.999987 0.536113
C76   C     C_R   0.358050 0.749958 0.999946 0.536418
C77   C     C_R   0.806863 0.690673 0.118547 0.536916
C78   C     C_R   0.641929 0.250026 0.000012 0.536052
C79   C     C_R   0.141950 0.249959 0.000054 0.536448
C80   C     C_R   0.858071 0.750026 0.999987 0.536115
C81   C     C_R   0.858050 0.249958 0.999946 0.536379
C82   C     C_R   0.141929 0.750026 0.000012 0.536084
C83   C     C_1   0.581104 0.749957 0.000125 -0.001988
C84   C     C_1   0.418896 0.250070 0.999874 -0.006090
C85   C     C_1   0.418896 0.749956 0.999876 -0.002017
C86   C     C_1   0.581103 0.250071 0.000124 -0.006102
C87   C     C_1   0.081104 0.249957 0.000124 -0.001978
C88   C     C_R   0.808733 0.309285 0.118433 0.534968
C89   C     C_1   0.918896 0.750070 0.999874 -0.006086
C90   C     C_1   0.918895 0.249956 0.999875 -0.002073
C91   C     C_1   0.081103 0.750071 0.000124 -0.006105
C92   C     C_1   0.529984 0.749951 0.000068 -0.012463
C93   C     C_1   0.470013 0.250106 0.999925 -0.013969
C94   C     C_1   0.470016 0.749950 0.999933 -0.012478
C95   C     C_1   0.529986 0.250106 0.000073 -0.013971
C96   C     C_1   0.029983 0.249951 0.000066 -0.012458
C97   C     C_1   0.970013 0.750106 0.999925 -0.013964
C98   C     C_1   0.970015 0.249950 0.999931 -0.012507
C99   C     C_R   0.193128 0.690674 0.881453 0.536902
C100  C     C_1   0.029986 0.750107 0.000073 -0.013979
C101  C     C_R   0.731709 0.817604 0.768755 -0.131492
C102  C     C_R   0.292203 0.193170 0.256960 -0.131419
C103  C     C_R   0.268234 0.817636 0.231180 -0.131480
C104  C     C_R   0.708256 0.192981 0.743447 -0.131392
C105  C     C_R   0.231741 0.317622 0.768791 -0.131486
C106  C     C_R   0.792175 0.693164 0.256934 -0.131412
C107  C     C_R   0.768258 0.317622 0.231208 -0.131483
C108  C     C_R   0.207965 0.693110 0.743196 -0.131403
C109  C     C_R   0.747163 0.817587 0.709748 0.204800
C110  C     C_R   0.676753 0.843608 0.755534 -0.061330
C111  C     C_R   0.293141 0.199413 0.328984 0.228519
C112  C     C_R   0.252751 0.817634 0.290160 0.204805
C113  C     C_R   0.707628 0.199118 0.671627 0.228517
C114  C     C_R   0.247213 0.317614 0.709801 0.204805
C115  C     C_R   0.793093 0.699403 0.328944 0.228505
C116  C     C_R   0.752791 0.317612 0.290203 0.204804
C117  C     C_R   0.207131 0.699324 0.671244 0.228515
C118  C     C_R   0.703724 0.841723 0.632716 0.369968
C119  C     C_R   0.339830 0.174515 0.404318 0.309475
C120  C     C_R   0.296190 0.841765 0.367201 0.369974
Cu1   Cu    Cu3+1 0.719090 0.719080 0.938180 1.002053
Cu2   Cu    Cu3+1 0.055800 0.500000 0.500010 1.102435
Cu3   Cu    Cu3+1 0.444200 0.000000 0.499990 1.102571
Cu4   Cu    Cu3+1 0.555800 0.000000 0.500010 1.102251
Cu5   Cu    Cu3+1 0.280910 0.280920 0.061820 1.003682
Cu6   Cu    Cu3+1 0.280910 0.719080 0.061820 1.002055
Cu7   Cu    Cu3+1 0.719090 0.280920 0.938180 1.003814
Cu8   Cu    Cu3+1 0.219090 0.219080 0.938180 1.002039
Cu9   Cu    Cu3+1 0.780910 0.780920 0.061820 1.003629
Cu10  Cu    Cu3+1 0.780910 0.219080 0.061820 1.002017
Cu11  Cu    Cu3+1 0.219090 0.780920 0.938180 1.003676
Cu12  Cu    Cu3+1 0.944200 0.500000 0.499990 1.102558
H1    H     H_    0.605444 0.871740 0.858212 0.159081
H2    H     H_    0.256008 0.212780 0.199942 0.134666
H3    H     H_    0.235393 0.797943 0.173345 0.129004
H4    H     H_    0.744394 0.212592 0.800492 0.134490
H5    H     H_    0.264582 0.297928 0.826622 0.129014
H6    H     H_    0.755987 0.712776 0.199915 0.134663
H7    H     H_    0.735416 0.297928 0.173375 0.129014
H8    H     H_    0.244139 0.712719 0.800228 0.134613
H9    H     H_    0.827726 0.778275 0.781516 0.332947
H10   H     H_    0.220575 0.244766 0.270289 0.334604
H11   H     H_    0.172164 0.778342 0.218355 0.332943
H12   H     H_    0.371256 0.119376 0.124379 0.166557
H13   H     H_    0.780355 0.244371 0.730549 0.334578
H14   H     H_    0.327788 0.278312 0.781587 0.332942
H15   H     H_    0.720529 0.744758 0.270238 0.334603
H16   H     H_    0.672228 0.278301 0.218426 0.332948
H17   H     H_    0.279752 0.744644 0.730028 0.334594
H18   H     H_    0.753425 0.821678 0.586816 0.375047
H19   H     H_    0.313426 0.205054 0.469771 0.390373
H20   H     H_    0.246442 0.821744 0.413054 0.375045
H21   H     H_    0.688339 0.204347 0.531402 0.390431
H22   H     H_    0.253494 0.321709 0.586882 0.375049
H23   H     H_    0.394626 0.871702 0.141850 0.159063
H24   H     H_    0.813295 0.705011 0.469684 0.390369
H25   H     H_    0.746476 0.321737 0.413091 0.375063
H26   H     H_    0.187069 0.704902 0.530584 0.390382
H27   H     H_    0.552407 0.879061 0.518058 0.292234
H28   H     H_    0.435836 0.131890 0.530122 0.368325
H29   H     H_    0.447538 0.879061 0.481917 0.292245
H30   H     H_    0.564899 0.131754 0.470212 0.368494
H31   H     H_    0.052438 0.379060 0.518075 0.292238
H32   H     H_    0.935838 0.631925 0.530122 0.368354
H33   H     H_    0.947564 0.379061 0.481929 0.292236
H34   H     H_    0.628188 0.119565 0.875245 0.166332
H35   H     H_    0.064468 0.631839 0.470005 0.368438
H36   H     H_    0.558521 0.964529 0.742797 0.358251
H37   H     H_    0.489809 0.059214 0.282009 0.351503
H38   H     H_    0.441546 0.964494 0.257220 0.358210
H39   H     H_    0.509494 0.059730 0.717535 0.351494
H40   H     H_    0.058475 0.464510 0.742782 0.358247
H41   H     H_    0.989849 0.559250 0.282033 0.351522
H42   H     H_    0.941517 0.464497 0.257196 0.358199
H43   H     H_    0.009930 0.559430 0.717838 0.351508
H44   H     H_    0.105402 0.371719 0.858177 0.159075
H45   H     H_    0.871281 0.619386 0.124400 0.166546
H46   H     H_    0.894613 0.371708 0.141841 0.159071
H47   H     H_    0.128539 0.619446 0.875475 0.166466
H48   H     H_    0.764552 0.797909 0.826584 0.129027
O1    O     O_R   0.678810 0.768970 0.857610 -0.498592
O2    O     O_R   0.269010 0.178840 0.038010 -0.507546
O3    O     O_R   0.269010 0.821160 0.038010 -0.505313
O4    O     O_R   0.730990 0.178840 0.961990 -0.507476
O5    O     O_R   0.230990 0.321160 0.961990 -0.505318
O6    O     O_R   0.769010 0.678840 0.038010 -0.507535
O7    O     O_R   0.769010 0.321160 0.038010 -0.505312
O8    O     O_R   0.230990 0.678840 0.961990 -0.507510
O9    O     O_R   0.642490 0.723880 0.947790 -0.493488
O10   O     O_R   0.357510 0.276120 0.052210 -0.490161
O11   O     O_R   0.357510 0.723880 0.052210 -0.493496
O12   O     O_R   0.321190 0.231030 0.142390 -0.501005
O13   O     O_R   0.642490 0.276120 0.947790 -0.490188
O14   O     O_R   0.142490 0.223880 0.947790 -0.493493
O15   O     O_R   0.857510 0.776120 0.052210 -0.490169
O16   O     O_R   0.857510 0.223880 0.052210 -0.493507
O17   O     O_R   0.142490 0.776120 0.947790 -0.490182
O18   O     O_R   0.694660 0.776070 0.052170 -0.510386
O19   O     O_R   0.305340 0.223930 0.947830 -0.506901
O20   O     O_R   0.305340 0.776070 0.947830 -0.510363
O21   O     O_R   0.694660 0.223930 0.052170 -0.506917
O22   O     O_R   0.194660 0.276070 0.052170 -0.510383
O23   O     O_R   0.321190 0.768970 0.142390 -0.498587
O24   O     O_R   0.805340 0.723930 0.947830 -0.506903
O25   O     O_R   0.805340 0.276070 0.947830 -0.510305
O26   O     O_R   0.194660 0.723930 0.052170 -0.506890
O27   O     O_R   0.997960 0.545070 0.590160 -0.505691
O28   O     O_R   0.002040 0.454930 0.409840 -0.466737
O29   O     O_R   0.002040 0.545070 0.409840 -0.505921
O30   O     O_R   0.997960 0.454930 0.590160 -0.466730
O31   O     O_R   0.497960 0.045070 0.590160 -0.505478
O32   O     O_R   0.502040 0.954930 0.409840 -0.466749
O33   O     O_R   0.502040 0.045070 0.409840 -0.506018
O34   O     O_R   0.678810 0.231030 0.857610 -0.500915
O35   O     O_R   0.497960 0.954930 0.590160 -0.466648
O36   O     O_R   0.092180 0.545060 0.590150 -0.475375
O37   O     O_R   0.907820 0.454940 0.409850 -0.482917
O38   O     O_R   0.907820 0.545060 0.409850 -0.475368
O39   O     O_R   0.092180 0.454940 0.590150 -0.482910
O40   O     O_R   0.592180 0.045060 0.590150 -0.475519
O41   O     O_R   0.407820 0.954940 0.409850 -0.482913
O42   O     O_R   0.407820 0.045060 0.409850 -0.475510
O43   O     O_R   0.592180 0.954940 0.590150 -0.482919
O44   O     O_3   0.802693 0.793165 0.724667 -0.694791
O45   O     O_R   0.178810 0.268970 0.857610 -0.498594
O46   O     O_3   0.249872 0.230186 0.327672 -0.685997
O47   O     O_3   0.197194 0.793230 0.275207 -0.694789
O48   O     O_3   0.751121 0.229794 0.673159 -0.686087
O49   O     O_3   0.302759 0.293203 0.724739 -0.694795
O50   O     O_3   0.749818 0.730177 0.327620 -0.686011
O51   O     O_3   0.697253 0.293195 0.275271 -0.694774
O52   O     O_3   0.250479 0.730067 0.672640 -0.686018
O53   O     O_3   0.712643 0.840599 0.568630 -0.607176
O54   O     O_3   0.344858 0.180922 0.478459 -0.692687
O55   O     O_3   0.287244 0.840652 0.431264 -0.607180
O56   O     O_R   0.821190 0.731030 0.142390 -0.501017
O57   O     O_3   0.656297 0.180530 0.522306 -0.692634
O58   O     O_3   0.212710 0.340628 0.568692 -0.607174
O59   O     O_3   0.844763 0.680897 0.478398 -0.692630
O60   O     O_3   0.787291 0.340633 0.431308 -0.607171
O61   O     O_3   0.155542 0.680815 0.521813 -0.692634
O62   O     O_3   0.600506 0.882581 0.534362 -0.599402
O63   O     O_3   0.433552 0.120379 0.480920 -0.650241
O64   O     O_3   0.399437 0.882591 0.465602 -0.599411
O65   O     O_3   0.566879 0.120348 0.519263 -0.650142
O66   O     O_3   0.100538 0.382585 0.534384 -0.599406
O67   O     O_R   0.821190 0.268970 0.142390 -0.498599
O68   O     O_3   0.933481 0.620364 0.480899 -0.650172
O69   O     O_3   0.899465 0.382587 0.465620 -0.599407
O70   O     O_3   0.066673 0.620345 0.519162 -0.650166
O71   O     O_3   0.546341 0.936066 0.754580 -0.641027
O72   O     O_3   0.438081 0.057953 0.234124 -0.687804
O73   O     O_3   0.453751 0.936022 0.245498 -0.641102
O74   O     O_3   0.561226 0.058200 0.765339 -0.687371
O75   O     O_3   0.046289 0.436042 0.754538 -0.641068
O76   O     O_3   0.938121 0.557968 0.234158 -0.687771
O77   O     O_3   0.953742 0.436025 0.245495 -0.641079
O78   O     O_R   0.178810 0.731030 0.857610 -0.501000
O79   O     O_3   0.061664 0.558045 0.765664 -0.687628
O80   O     O_R   0.730990 0.821160 0.961990 -0.505333

loop_
_geom_bond_atom_site_label_1
_geom_bond_atom_site_label_2
_ccdc_geom_bond_type
C21   C26   A    
Cu4   O40   S    
H40   O75   S    
C71   O41   A    
Cu3   O35   S    
C2    C18   A    
C7    C117  A    
C13   C32   A    
C34   C42   A    
C78   O21   A    
C74   C83   S    
Cu9   O80   S    
C17   C110  A    
C114  O49   S    
C79   C87   S    
C67   O37   A    
C8    C118  A    
Cu3   Cu4   S    
H20   O55   S    
C104  H4    S    
C83   C92   T    
Cu3   O41   S    
C79   O14   A    
C46   H46   S    
C30   C110  A    
C33   O12   A    
H33   O69   S    
C50   C59   A    
C28   C37   A    
H37   O72   S    
C4    C114  A    
Cu11  O17   S    
C52   O75   S    
Cu8   O14   S    
Cu10  O16   S    
C52   C61   A    
Cu7   O13   S    
C120  O55   S    
Cu1   O9    S    
H15   O50   S    
C43   C52   A    
C106  H6    S    
C22   C62   A    
C54   C63   A    
C2    C102  A    
H41   O76   S    
C101  C109  A    
C40   C49   A    
Cu11  O78   S    
C90   C98   T    
Cu3   O31   S    
C31   C40   A    
C66   O45   A    
Cu5   O5    S    
Cu12  O37   S    
C43   H44   S    
C57   C73   S    
C80   C89   S    
C80   O15   A    
C103  H3    S    
H29   O64   S    
C47   H47   S    
C37   C88   S    
C6    C15   A    
C49   O72   S    
Cu11  O3    S    
C18   C58   A    
C88   O7    A    
C20   C24   A    
Cu8   O45   S    
C115  O50   S    
C96   C98   S    
C29   C38   A    
Cu5   Cu8   S    
Cu7   O7    S    
C55   O4    A    
C56   C64   A    
C29   C108  A    
Cu5   O10   S    
C53   O76   S    
C60   C70   S    
C91   C100  T    
C13   C103  A    
C35   C43   A    
H27   O62   S    
C21   C61   A    
Cu9   O18   S    
C37   C46   A    
C45   H45   S    
C42   C51   A    
C1    O80   A    
C78   C86   S    
C15   C23   A    
C72   O33   A    
Cu1   O6    S    
C45   C53   A    
C34   C55   S    
C93   C95   S    
C112  O47   S    
C5    C115  A    
C70   O31   A    
C111  O46   S    
C46   C54   A    
C102  C111  A    
C55   O34   A    
H32   O68   S    
C68   O29   A    
C26   C105  A    
Cu2   Cu12  S    
C99   O8    A    
Cu9   O15   S    
C109  C118  A    
H10   O46   S    
C14   O68   S    
Cu4   O33   S    
H24   O59   S    
C25   C29   A    
C11   C20   A    
Cu3   O42   S    
C63   C67   S    
Cu5   O22   S    
Cu2   O39   S    
C73   O43   A    
Cu9   O56   S    
H14   O49   S    
C11   O65   S    
C74   O18   A    
C105  C114  A    
C48   C57   A    
C75   O10   A    
Cu8   O2    S    
C65   O36   A    
C76   O20   A    
Cu1   Cu9   S    
C112  C120  A    
C1    O1    A    
C113  O48   S    
Cu4   O32   S    
C35   C66   S    
C19   C59   A    
C101  C110  A    
H19   O54   S    
C6    O60   S    
C12   C21   A    
C77   O56   A    
C70   O40   A    
C49   C58   A    
C76   O11   A    
C89   C97   T    
C2    C31   A    
C24   C104  A    
H26   O61   S    
C68   O38   A    
C102  H2    S    
Cu2   O28   S    
C44   O23   A    
C74   O9    A    
C85   C94   T    
C26   C35   A    
C119  O54   S    
C108  H8    S    
H25   O60   S    
Cu4   O43   S    
C8    O62   S    
C10   C19   A    
C32   C41   A    
C79   O22   A    
C72   O42   A    
C87   C96   T    
C7    O61   S    
C31   C33   S    
C32   C44   S    
Cu2   O29   S    
C10   O64   S    
C36   C45   A    
H16   O51   S    
C23   C28   A    
H35   O70   S    
C44   O3    A    
C6    C116  A    
C5    C14   A    
Cu10  O21   S    
C3    O57   S    
C82   C91   S    
C81   C90   S    
C111  C119  A    
C7    C16   A    
C47   C56   A    
C77   O6    A    
C22   C27   A    
C40   H12   S    
C116  O51   S    
C3    C113  A    
C9    C119  A    
C56   O79   S    
C4    C12   A    
C9    O63   S    
C41   C50   A    
C82   O26   A    
C97   C100  S    
Cu1   O1    S    
C81   O25   A    
C39   H1    S    
C61   C69   S    
C16   C25   A    
C54   O77   S    
H36   O71   S    
H13   O48   S    
C16   O70   S    
C5    O59   S    
H38   O73   S    
C82   O17   A    
C69   O39   A    
H17   O52   S    
C108  C117  A    
C73   O35   A    
Cu1   O24   S    
H11   O47   S    
C38   C99   S    
Cu10  O67   S    
Cu7   O34   S    
C65   O27   A    
C75   O19   A    
Cu6   O23   S    
H18   O53   S    
C15   O69   S    
H22   O58   S    
C117  O52   S    
C8    C17   A    
C99   O78   A    
C62   C68   S    
C106  C115  A    
C36   C77   S    
C27   C36   A    
C64   C65   S    
C14   C22   A    
H30   O65   S    
Cu6   O8    S    
Cu11  O20   S    
Cu7   O25   S    
Cu7   Cu10  S    
C101  H48   S    
Cu10  O4    S    
Cu6   O26   S    
C88   O67   A    
C118  O53   S    
C58   C72   S    
C92   C94   S    
C80   O24   A    
C38   C47   A    
Cu6   Cu11  S    
C48   O71   S    
C12   O66   S    
H39   O74   S    
C23   C63   A    
C1    C30   S    
Cu12  O30   S    
Cu2   O36   S    
C30   C39   A    
C27   C106  A    
Cu5   O12   S    
Cu12  O38   S    
C84   C93   T    
H28   O63   S    
C107  H7    S    
Cu6   O11   S    
C75   C84   S    
H42   O77   S    
C24   C34   A    
C107  C116  A    
Cu8   O19   S    
C3    C11   A    
C86   C95   T    
C78   O13   A    
H9    O44   S    
C105  H5    S    
C104  C113  A    
C69   O30   A    
C9    C18   A    
C53   C62   A    
C71   O32   A    
C109  O44   S    
C66   O5    A    
C59   C71   S    
C33   O2    A    
C50   O73   S    
C13   C19   A    
C4    O58   S    
Cu12  O27   S    
C103  C112  A    
H31   O66   S    
C51   C60   A    
C28   C107  A    
C41   H23   S    
C20   C60   A    
C17   C57   A    
C51   O74   S    
C76   C85   S    
C25   C64   A    
C10   C120  A    
C67   O28   A    
C42   H34   S    
H43   O79   S    
C39   C48   A    
C81   O16   A    
H21   O57   S    
