data_mof_unit_47627.cif
_audit_creation_date              2012-12-10T17:49:40-0500
_audit_creation_method            fapswitch 2.2
_symmetry_space_group_name_H-M    P1
_symmetry_Int_Tables_number       1
_space_group_crystal_system       triclinic
_cell_length_a                    14.923172
_cell_length_b                    14.800645
_cell_length_c                    15.88327
_cell_angle_alpha                 74.455844
_cell_angle_beta                  102.269266
_cell_angle_gamma                 115.662375
_cell_volume                      3027.6300567

loop_
_atom_site_label
_atom_site_type_symbol
_atom_type_description
_atom_site_fract_x
_atom_site_fract_y
_atom_site_fract_z
_atom_type_partial_charge
C1    C     C_R   0.880941 0.312554 0.509713 0.833536
C2    C     C_3   0.056424 0.435483 0.078804 -0.514078
C3    C     C_3   0.000257 0.501082 0.083344 0.084900
C4    C     C_3   0.052835 0.612344 0.030305 -0.214282
C5    C     C_3   0.063435 0.608030 0.935829 -0.264613
C6    C     C_1   0.000766 0.501175 0.175862 -0.002438
C7    C     C_1   0.998898 0.497529 0.824419 0.104963
C8    C     C_1   0.999120 0.498700 0.748746 -0.019526
C9    C     C_R   0.813797 0.204450 0.508531 -0.064838
C10   C     C_R   0.187610 0.798449 0.473169 -0.123768
C11   C     C_R   0.775182 0.023613 0.554563 -0.166203
C12   C     C_R   0.999751 0.499635 0.659243 0.821612
C13   C     C_R   0.843973 0.124580 0.549966 -0.161501
C14   C     C_R   0.716417 0.180978 0.465895 -0.146464
C15   C     C_R   0.640994 0.081469 0.482972 0.086104
C16   C     C_R   0.673959 0.001585 0.523552 0.156545
C17   C     C_R   0.535177 0.058242 0.462933 -0.010233
C18   C     C_R   0.466623 0.952480 0.475334 0.072951
C19   C     C_R   0.505225 0.876028 0.508750 -0.210255
C20   C     C_R   0.606206 0.900349 0.533446 -0.208986
C21   C     C_R   0.493386 0.134214 0.436646 -0.005632
C22   C     C_R   0.390169 0.105284 0.422679 -0.230139
C23   C     C_R   0.119469 0.688298 0.485684 0.773415
C24   C     C_R   0.324569 0.003470 0.438525 0.081228
C25   C     C_R   0.360982 0.925867 0.461012 0.098041
C26   C     C_R   0.222695 0.979560 0.437651 -0.141584
C27   C     C_R   0.154591 0.878211 0.460500 -0.006615
C28   C     C_R   0.289742 0.823883 0.471295 -0.216819
C29   C     C_R   0.713612 0.664835 0.347419 -0.269171
C30   C     C_R   0.789580 0.629276 0.367152 0.120655
C31   C     C_R   0.720813 0.521378 0.498560 0.123281
C32   C     C_R   0.632273 0.542336 0.472265 -0.108414
C33   C     C_R   0.634972 0.623569 0.399676 0.092291
C34   C     C_R   0.000385 0.500573 0.340734 0.796689
C35   C     C_R   0.542834 0.488622 0.516580 0.078371
C36   C     C_R   0.465566 0.526163 0.495055 0.106788
C37   C     C_R   0.485063 0.621644 0.438149 -0.240098
C38   C     C_R   0.562479 0.665612 0.384984 0.023993
C39   C     C_R   0.525695 0.396647 0.579415 -0.169096
C40   C     C_R   0.444546 0.351359 0.627123 -0.164224
C41   C     C_R   0.369537 0.387716 0.606528 0.121974
C42   C     C_R   0.373398 0.469256 0.534894 -0.009553
C43   C     C_R   0.289298 0.340521 0.656093 -0.306990
C44   C     C_R   0.209646 0.370265 0.633039 0.161829
C45   C     C_3   0.049122 0.422710 0.981824 -0.071324
C46   C     C_R   0.283204 0.486366 0.505615 0.092621
C47   C     C_3   0.889183 0.463563 0.939302 -0.276349
C48   C     C_3   0.890343 0.450213 0.040399 -0.239578
C49   C     C_1   0.000758 0.500962 0.251314 -0.064006
C50   C     C_3   0.999292 0.496328 0.917442 0.040878
Cu1   Cu    Cu3+1 0.081750 0.475690 0.522550 0.987910
Cu2   Cu    Cu3+1 0.918250 0.524310 0.477450 1.009766
H1    H     H_    0.027825 0.360614 0.124898 0.232664
H2    H     H_    0.135691 0.472210 0.106492 0.168434
H3    H     H_    0.004973 0.654009 0.025908 0.245860
H4    H     H_    0.631284 0.838858 0.562243 0.157632
H5    H     H_    0.311984 0.762282 0.477219 0.138699
H6    H     H_    0.360264 0.163837 0.405723 0.174613
H7    H     H_    0.800329 0.962629 0.585670 0.157886
H8    H     H_    0.920305 0.139574 0.577987 0.215212
H9    H     H_    0.702632 0.241824 0.418337 0.164671
H10   H     H_    0.459044 0.795486 0.521984 0.139100
H11   H     H_    0.197469 0.041065 0.424984 0.178940
H12   H     H_    0.438510 0.284341 0.678443 0.162237
H13   H     H_    0.717997 0.725426 0.290581 0.210582
H14   H     H_    0.866041 0.527022 0.905138 0.207302
H15   H     H_    0.438963 0.662892 0.432822 0.099182
H16   H     H_    0.572984 0.356144 0.594093 0.209134
H17   H     H_    0.289312 0.281396 0.713954 0.160765
H18   H     H_    0.863128 0.366945 0.070104 0.199224
H19   H     H_    0.143052 0.625066 0.933016 0.183989
N1    N     N_R   0.795410 0.560790 0.443550 -0.261510
N2    N     N_R   0.204590 0.439170 0.556520 -0.253254
O1    O     O_R   0.977910 0.338120 0.529720 -0.564232
O2    O     O_R   0.839850 0.379180 0.491640 -0.525448
O3    O     O_R   0.069060 0.479460 0.639610 -0.554864
O4    O     O_R   0.931000 0.520530 0.601530 -0.578748
O5    O     O_R   0.160150 0.620820 0.508360 -0.608752
O6    O     O_R   0.022090 0.661880 0.470280 -0.578113
O7    O     O_R   0.069000 0.479470 0.398470 -0.589599
O8    O     O_R   0.930940 0.520540 0.360390 -0.569771
C51   C     C_2   0.155064 0.447216 0.964295 0.384883
H20   H     H_    0.200045 0.411986 0.012546 0.094218
O9    O     O_2   0.190169 0.502439 0.896749 -0.493899
C52   C     C_2   0.052786 0.859846 0.475975 0.468232
H21   H     H_    0.010242 0.792332 0.520997 0.090922
O10   O     O_2   0.016063 0.921959 0.440270 -0.524296
C53   C     C_2   0.988557 0.311333 0.972332 0.877745
O11   O     O_2   0.992288 0.284263 0.907180 -0.529401
O12   O     O_R   0.927813 0.239661 0.036284 -0.767751
H22   H     H_    0.891413 0.169319 0.020957 0.362208
C54   C     C_2   0.549412 0.244334 0.435627 0.802067
O13   O     O_2   0.602862 0.272586 0.501120 -0.588126
O14   O     O_R   0.537489 0.315834 0.361111 -0.733629
H23   H     H_    0.579706 0.388945 0.368360 0.340934
C55   C     C_2   0.564885 0.757993 0.317644 0.391942
H24   H     H_    0.546218 0.814076 0.333925 0.076440
O15   O     O_2   0.579877 0.768840 0.242265 -0.505691
C56   C     C_2   0.267144 0.541259 0.415307 0.414850
H25   H     H_    0.246049 0.605279 0.403130 0.084317
O16   O     O_2   0.278239 0.515227 0.352803 -0.532898
C57   C     C_2   0.134247 0.325875 0.695239 0.916801
O17   O     O_2   0.152843 0.358687 0.762662 -0.527188
O18   O     O_R   0.046276 0.241229 0.681563 -0.777939
H26   H     H_    0.001516 0.216802 0.729972 0.350598
C58   C     C_2   0.864178 0.672386 0.304229 0.917482
O19   O     O_2   0.844102 0.639344 0.236744 -0.563646
O20   O     O_R   0.953643 0.755783 0.317879 -0.740673
H27   H     H_    0.997893 0.779289 0.269235 0.343087
C59   C     C_2   0.742136 0.477984 0.591874 0.883903
O21   O     O_2   0.750617 0.524484 0.648200 -0.600281
O22   O     O_R   0.748580 0.382752 0.616495 -0.698895
H28   H     H_    0.760851 0.360771 0.682530 0.347705
C60   C     C_2   0.805419 0.371931 0.905561 0.868928
O23   O     O_2   0.819901 0.328113 0.857971 -0.584336
O24   O     O_R   0.708664 0.340366 0.926860 -0.717395
H29   H     H_    0.658248 0.279970 0.900270 0.349755
C61   C     C_2   0.817851 0.486554 0.060890 0.933922
O25   O     O_2   0.824509 0.574246 0.031479 -0.532777
O26   O     O_R   0.742653 0.418264 0.113975 -0.716821
H30   H     H_    0.699104 0.450640 0.123729 0.364181
C62   C     C_2   0.042514 0.692615 0.866930 0.862243
O27   O     O_2   0.103888 0.749339 0.815442 -0.572818
O28   O     O_R   0.955089 0.707368 0.862712 -0.730539
H31   H     H_    0.950930 0.766285 0.813987 0.351928
C63   C     C_2   0.153757 0.672153 0.075753 0.394696
H32   H     H_    0.215388 0.648883 0.084742 0.100848
O29   O     O_2   0.167004 0.747678 0.102246 -0.501234

loop_
_geom_bond_atom_site_label_1
_geom_bond_atom_site_label_2
_ccdc_geom_bond_type
C10   C27   A    
C47   C60   S    
C46   C56   S    
C63   H32   S    
C41   C42   A    
C36   C42   A    
C19   C20   A    
Cu1   O1    S    
C9    C14   A    
C3    C6    S    
C60   O23   D    
C7    C8    T    
C13   H8    S    
C28   H5    S    
O24   H29   S    
C25   C28   A    
C26   C27   A    
C29   C30   A    
C1    O1    A    
C36   C37   A    
C24   C26   A    
C58   O19   D    
C37   H15   S    
C19   H10   S    
C15   C16   A    
C29   C33   A    
C3    C48   S    
O20   H27   S    
C18   C19   A    
C42   C46   A    
C27   C52   S    
C9    C13   A    
C59   O21   D    
O18   H26   S    
C34   O7    A    
C61   O25   D    
C45   C51   S    
C55   O15   D    
C47   C48   S    
C34   O8    A    
Cu2   O6    S    
C47   H14   S    
C16   C20   A    
Cu2   O2    S    
C43   H17   S    
C21   C22   A    
C55   H24   S    
C41   C43   A    
C57   O17   D    
C18   C25   A    
C11   H7    S    
O22   H28   S    
C47   C50   S    
C59   O22   S    
C52   O10   D    
C2    C45   S    
Cu1   Cu2   S    
C1    O2    A    
C32   C35   A    
C45   C53   S    
C1    C9    S    
C24   C25   A    
C2    H2    S    
C39   C40   A    
C44   C57   S    
C48   C61   S    
C52   H21   S    
C14   H9    S    
C5    C62   S    
C17   C21   A    
C35   C36   A    
C35   C39   A    
C26   H11   S    
C39   H16   S    
C37   C38   A    
Cu2   N1    S    
C11   C16   A    
C60   O24   S    
C56   H25   S    
C8    C12   S    
C12   O4    A    
C54   O14   S    
C17   C18   A    
Cu1   O3    S    
C57   O18   S    
C29   H13   S    
C31   N1    A    
C56   O16   D    
C53   O12   S    
C51   O9    D    
C12   O3    A    
C4    H3    S    
C22   C24   A    
C5    C50   S    
C62   O28   S    
C3    C4    S    
O26   H30   S    
C10   C28   A    
C44   N2    A    
C15   C17   A    
C40   C41   A    
C34   C49   S    
C63   O29   D    
C31   C32   A    
Cu1   N2    S    
C7    C50   S    
C48   H18   S    
C4    C5    S    
C2    H1    S    
C22   H6    S    
C30   N1    A    
C10   C23   S    
C33   C38   A    
C40   H12   S    
Cu2   O8    S    
C4    C63   S    
C32   C33   A    
C2    C3    S    
Cu1   O5    S    
C5    H19   S    
C11   C13   A    
O12   H22   S    
C58   O20   S    
C45   C50   S    
C43   C44   A    
Cu1   O7    S    
C54   O13   D    
C31   C59   S    
C20   H4    S    
C23   O5    A    
O14   H23   S    
C61   O26   S    
C53   O11   D    
C51   H20   S    
C38   C55   S    
C14   C15   A    
C23   O6    A    
C62   O27   D    
C46   N2    A    
C30   C58   S    
C6    C49   T    
Cu2   O4    S    
O28   H31   S    
C21   C54   S    
