data_mof_unit_61468.cif
_audit_creation_date              2013-03-05T16:15:45-0500
_audit_creation_method            fapswitch 2.2
_symmetry_space_group_name_H-M    P1
_symmetry_Int_Tables_number       1
_space_group_crystal_system       triclinic
_cell_length_a                    22.539899
_cell_length_b                    22.513527
_cell_length_c                    14.630801
_cell_angle_alpha                 90.001235
_cell_angle_beta                  90.031002
_cell_angle_gamma                 90.00008
_cell_volume                      7424.43728054

loop_
_atom_site_label
_atom_site_type_symbol
_atom_site_description
_atom_site_fract_x
_atom_site_fract_y
_atom_site_fract_z
_atom_type_partial_charge
O1    O     O_R   0.439540 0.939530 0.576170 -0.559051
O2    O     O_R   0.560460 0.060470 0.423830 -0.559032
O3    O     O_R   0.560460 0.939530 0.423830 -0.558974
O4    O     O_R   0.439540 0.060470 0.576170 -0.558956
O5    O     O_R   0.939540 0.439530 0.576170 -0.559032
O6    O     O_R   0.060460 0.560470 0.423830 -0.559051
O7    O     O_R   0.060460 0.439530 0.423830 -0.558956
O8    O     O_R   0.939540 0.560470 0.576170 -0.558974
O9    O     O_R   0.439530 0.939530 0.423800 -0.565761
O10   O     O_R   0.560470 0.060470 0.576200 -0.565725
O11   O     O_R   0.560470 0.939530 0.576200 -0.565776
O12   O     O_R   0.439530 0.060470 0.423800 -0.565923
O13   O     O_R   0.939530 0.439530 0.423800 -0.565725
O14   O     O_R   0.060470 0.560470 0.576200 -0.565761
O15   O     O_R   0.060470 0.439530 0.576200 -0.565923
O16   O     O_R   0.939530 0.560470 0.423800 -0.565776
C1    C     C_R   0.419817 0.919782 0.499971 0.818984
C2    C     C_R   0.580183 0.080218 0.500029 0.819061
C3    C     C_R   0.580183 0.919782 0.500028 0.818981
C4    C     C_R   0.419817 0.080217 0.499972 0.819079
C5    C     C_R   0.919817 0.419782 0.499970 0.819061
C6    C     C_R   0.080183 0.580218 0.500029 0.818984
C7    C     C_R   0.080183 0.419782 0.500028 0.819079
C8    C     C_R   0.919817 0.580218 0.499972 0.818981
Cu1   Cu    Cu3+1 0.500000 0.000000 0.590220 1.055399
Cu2   Cu    Cu3+1 0.500000 0.000000 0.409780 1.055306
Cu3   Cu    Cu3+1 0.000000 0.500000 0.590220 1.055306
Cu4   Cu    Cu3+1 1.000000 0.500000 0.409780 1.055399
C9    C     C_3   0.521101 0.052033 0.969239 -0.121338
C10   C     C_3   0.478899 0.947967 0.030761 -0.121320
C11   C     C_3   0.465537 0.044309 0.030749 -0.121947
C12   C     C_3   0.534463 0.955690 0.969251 -0.121781
C13   C     C_3   0.021100 0.552033 0.969239 -0.121321
C14   C     C_3   0.978899 0.447967 0.030761 -0.121337
C15   C     C_3   0.965536 0.544309 0.030749 -0.121781
C16   C     C_3   0.034464 0.455691 0.969251 -0.121947
C17   C     C_3   0.702851 0.731800 0.551576 -0.341688
C18   C     C_3   0.296771 0.267822 0.447306 -0.341788
C19   C     C_3   0.297088 0.731858 0.448244 -0.341780
C20   C     C_3   0.702999 0.268055 0.552017 -0.341752
C21   C     C_3   0.203229 0.232178 0.552694 -0.341788
C22   C     C_3   0.797149 0.768200 0.448424 -0.341689
C23   C     C_3   0.797001 0.231945 0.447983 -0.341752
C24   C     C_3   0.202911 0.768142 0.551756 -0.341780
C25   C     C_3   0.227684 0.200182 0.466782 0.270562
C26   C     C_3   0.772071 0.799572 0.534455 0.270603
C27   C     C_3   0.772168 0.200332 0.533972 0.270583
C28   C     C_3   0.227889 0.799610 0.465742 0.270585
C29   C     C_3   0.727929 0.700428 0.465545 0.270603
C30   C     C_3   0.272316 0.299818 0.533218 0.270562
C31   C     C_3   0.272111 0.700390 0.534258 0.270585
C32   C     C_3   0.727832 0.299668 0.466028 0.270583
C33   C     C_1   0.375217 0.124854 0.499944 -0.079192
C34   C     C_1   0.624783 0.875146 0.500055 -0.079158
C35   C     C_1   0.624783 0.124854 0.500060 -0.079125
C36   C     C_1   0.375217 0.875146 0.499941 -0.079159
C37   C     C_1   0.875217 0.624854 0.499944 -0.079158
C38   C     C_1   0.124783 0.375146 0.500056 -0.079192
C39   C     C_1   0.124783 0.624854 0.500059 -0.079159
C40   C     C_1   0.875217 0.375146 0.499940 -0.079125
C41   C     C_3   0.268238 0.240812 0.584696 0.278435
C42   C     C_3   0.732376 0.759804 0.415159 0.278380
C43   C     C_3   0.732133 0.240434 0.415214 0.278440
C44   C     C_3   0.267723 0.759709 0.584818 0.278459
C45   C     C_3   0.767624 0.740196 0.584841 0.278380
C46   C     C_3   0.231762 0.259188 0.415304 0.278435
C47   C     C_3   0.232277 0.740291 0.415182 0.278459
C48   C     C_3   0.767866 0.259566 0.584785 0.278440
C49   C     C_3   0.291955 0.208030 0.500028 -0.112827
C50   C     C_3   0.708046 0.791970 0.499972 -0.112887
C51   C     C_3   0.708045 0.208030 0.499976 -0.112851
C52   C     C_3   0.291955 0.791970 0.500026 -0.112854
C53   C     C_3   0.791954 0.708029 0.500028 -0.112887
C54   C     C_3   0.208045 0.291970 0.499972 -0.112827
C55   C     C_3   0.208045 0.708030 0.499974 -0.112854
C56   C     C_3   0.791955 0.291970 0.500024 -0.112851
N1    N     N_1   0.499980 1.000000 0.274190 -0.140257
N2    N     N_1   0.500020 0.000000 0.725810 -0.140242
N3    N     N_1   0.999980 0.500000 0.274190 -0.140242
N4    N     N_1   0.000020 0.500000 0.725810 -0.140257
C57   C     C_3   0.555555 0.007723 0.030845 -0.115950
C58   C     C_3   0.444445 0.992276 0.969155 -0.116062
C59   C     C_3   0.055555 0.507724 0.030845 -0.116062
C60   C     C_3   0.944445 0.492276 0.969155 -0.115950
C61   C     C_3   0.499991 0.000000 0.091258 0.033027
C62   C     C_3   0.500009 1.000000 0.908742 0.033005
C63   C     C_3   0.999991 0.500000 0.091258 0.033005
C64   C     C_3   0.000009 0.500000 0.908742 0.033027
C65   C     C_1   0.337616 0.162435 0.499970 0.169733
C66   C     C_1   0.662384 0.837565 0.500029 0.169771
C67   C     C_1   0.662384 0.162435 0.500035 0.169835
C68   C     C_1   0.337616 0.837565 0.499966 0.169792
C69   C     C_1   0.837616 0.662435 0.499970 0.169771
C70   C     C_1   0.162384 0.337565 0.500030 0.169733
C71   C     C_1   0.162384 0.662435 0.500033 0.169792
C72   C     C_1   0.837616 0.337565 0.499965 0.169835
C73   C     C_1   0.499983 0.000000 0.194104 0.199652
C74   C     C_1   0.500017 1.000000 0.805895 0.199704
C75   C     C_1   0.999983 0.500000 0.194104 0.199704
C76   C     C_1   0.000017 0.500000 0.805895 0.199651
H1    H     H_    0.398440 0.985879 0.943897 0.176246
H2    H     H_    0.601561 0.014120 0.056103 0.176317
H3    H     H_    0.898439 0.485878 0.943897 0.176317
H4    H     H_    0.101560 0.514122 0.056103 0.176247
N5    N     N_R   0.201790 0.146404 0.428289 0.179599
O17   O     O_R   0.146557 0.146298 0.402605 -0.252568
O18   O     O_R   0.233321 0.098366 0.419731 -0.286273
N6    N     N_R   0.797683 0.853065 0.574312 0.179623
O19   O     O_R   0.852725 0.852980 0.600950 -0.252733
O20   O     O_R   0.766090 0.901041 0.583146 -0.286300
N7    N     N_R   0.797892 0.146727 0.573296 0.179640
O21   O     O_R   0.853010 0.146737 0.599558 -0.252528
O22   O     O_R   0.766323 0.098727 0.582021 -0.286234
N8    N     N_R   0.202231 0.853149 0.426102 0.179671
O23   O     O_R   0.147158 0.853094 0.399616 -0.252616
O24   O     O_R   0.233814 0.901136 0.417318 -0.286081
N9    N     N_R   0.702317 0.646935 0.425688 0.179623
O25   O     O_R   0.647275 0.647020 0.399050 -0.252733
O26   O     O_R   0.733910 0.598959 0.416854 -0.286300
N10   N     N_R   0.298210 0.353596 0.571711 0.179599
O27   O     O_R   0.353443 0.353702 0.597395 -0.252568
O28   O     O_R   0.266678 0.401633 0.580268 -0.286273
N11   N     N_R   0.297769 0.646851 0.573898 0.179671
O29   O     O_R   0.352842 0.646906 0.600384 -0.252616
O30   O     O_R   0.266186 0.598864 0.582682 -0.286081
N12   N     N_R   0.702108 0.353273 0.426704 0.179640
O31   O     O_R   0.646990 0.353263 0.400442 -0.252528
O32   O     O_R   0.733677 0.401273 0.417979 -0.286234
H5    H     H_    0.664886 0.716416 0.593680 0.223311
H6    H     H_    0.334426 0.282897 0.404290 0.223242
H7    H     H_    0.335004 0.716521 0.405993 0.223249
H8    H     H_    0.665156 0.283321 0.594480 0.223276
H9    H     H_    0.165573 0.217103 0.595710 0.223242
H10   H     H_    0.835114 0.783584 0.406320 0.223311
H11   H     H_    0.834844 0.216679 0.405519 0.223276
H12   H     H_    0.164996 0.783479 0.594007 0.223249
N13   N     N_R   0.713367 0.768591 0.320918 0.175727
O33   O     O_R   0.737901 0.737942 0.255786 -0.264938
O34   O     O_R   0.672231 0.807006 0.301215 -0.310465
N14   N     N_R   0.287930 0.232708 0.678750 0.175679
O35   O     O_R   0.263868 0.263831 0.743770 -0.265028
O36   O     O_R   0.329207 0.194435 0.698404 -0.310604
N15   N     N_R   0.286843 0.768391 0.679030 0.175667
O37   O     O_R   0.262386 0.737668 0.744147 -0.264813
O38   O     O_R   0.328000 0.806786 0.698723 -0.310892
N16   N     N_R   0.712854 0.231910 0.321045 0.175669
O39   O     O_R   0.737200 0.262743 0.255953 -0.264763
O40   O     O_R   0.671664 0.193548 0.301365 -0.310907
N17   N     N_R   0.212070 0.267292 0.321250 0.175679
O41   O     O_R   0.236132 0.236169 0.256230 -0.265028
O42   O     O_R   0.170793 0.305565 0.301596 -0.310604
N18   N     N_R   0.786633 0.731409 0.679082 0.175727
O43   O     O_R   0.762099 0.762058 0.744214 -0.264938
O44   O     O_R   0.827769 0.692994 0.698785 -0.310465
N19   N     N_R   0.787146 0.268090 0.678955 0.175669
O45   O     O_R   0.762799 0.237257 0.744047 -0.264763
O46   O     O_R   0.828336 0.306452 0.698635 -0.310907
N20   N     N_R   0.213157 0.731609 0.320970 0.175667
O47   O     O_R   0.237614 0.762332 0.255852 -0.264813
O48   O     O_R   0.172000 0.693214 0.301277 -0.310892
H13   H     H_    0.436998 0.081003 0.055927 0.174420
H14   H     H_    0.563003 0.918997 0.944073 0.174568
H15   H     H_    0.538577 0.095121 0.944052 0.173810
H16   H     H_    0.461423 0.904878 0.055947 0.173810
H17   H     H_    0.936996 0.581002 0.055927 0.174568
H18   H     H_    0.063004 0.418998 0.944073 0.174420
H19   H     H_    0.038575 0.595122 0.944052 0.173810
H20   H     H_    0.961425 0.404878 0.055947 0.173810

loop_
_geom_bond_atom_site_label_1
_geom_bond_atom_site_label_2
_geom_bond_distance
_ccdc_geom_bond_type
C24   H12   1.110076 S    
C7    C38   1.421421 S    
C59   C63   1.543133 S    
C11   H13   1.110036 S    
O16   Cu4   1.937394 S    
N12   O31   1.300224 A    
C11   C61   1.543132 S    
C20   C51   1.555298 S    
N19   O46   1.300193 A    
C31   N11   1.457166 S    
C54   C70   1.453604 S    
C19   C31   1.550286 S    
N7    O21   1.300224 A    
C10   H16   1.110032 S    
C48   N19   1.457137 S    
C21   H9    1.110077 S    
N8    O23   1.300226 A    
C23   C43   1.550279 S    
N11   O29   1.300226 A    
C50   C66   1.453604 S    
C24   C44   1.550279 S    
C12   C57   1.552386 S    
N5    O18   1.300206 A    
O11   C3    1.279694 A    
C11   C58   1.552385 S    
C39   C71   1.197560 T    
C30   N10   1.457165 S    
C18   H6    1.110077 S    
N3    C75   1.171715 T    
C13   C64   1.543132 S    
C31   C55   1.538066 S    
C34   C66   1.197562 T    
N9    O26   1.300208 A    
C52   C68   1.453601 S    
C14   H20   1.110033 S    
N11   O30   1.300206 A    
O2    C2    1.279706 A    
O11   Cu1   1.937394 S    
C16   C59   1.552385 S    
N15   O37   1.300220 A    
C46   C54   1.538075 S    
C5    C40   1.421417 S    
C45   C53   1.538074 S    
N6    O19   1.300229 A    
C42   C50   1.538074 S    
C22   C26   1.550289 S    
Cu4   N3    1.983792 S    
C9    H15   1.110032 S    
C35   C67   1.197563 T    
O8    C8    1.279706 A    
C21   C54   1.555297 S    
O5    Cu3   1.937125 S    
C15   C63   1.543131 S    
O6    Cu4   1.937122 S    
C18   C46   1.550279 S    
N10   O28   1.300206 A    
C8    C37   1.421422 S    
C12   H14   1.110035 S    
N2    C74   1.171717 T    
C19   C52   1.555300 S    
O13   Cu4   1.937400 S    
O3    C3    1.279706 A    
C21   C41   1.550279 S    
O14   Cu3   1.937396 S    
C60   H3    1.110030 S    
C22   C42   1.550279 S    
C43   N16   1.457137 S    
N16   O40   1.300193 A    
O15   C7    1.279693 A    
C20   H8    1.110076 S    
C18   C49   1.555297 S    
O16   C8    1.279694 A    
C37   C69   1.197562 T    
C17   C50   1.555297 S    
N4    C76   1.171717 T    
N20   O48   1.300192 A    
C13   H19   1.110031 S    
C14   C60   1.552383 S    
C28   C52   1.538066 S    
C49   C65   1.453604 S    
C26   N6    1.457161 S    
C25   N5    1.457165 S    
O9    Cu2   1.937400 S    
O4    Cu1   1.937132 S    
C63   C75   1.504719 S    
C57   H2    1.110031 S    
C29   N9    1.457161 S    
Cu2   N1    1.983792 S    
C59   H4    1.110030 S    
C55   C71   1.453601 S    
Cu1   N2    1.983790 S    
N14   O35   1.300222 A    
C26   C45   1.529880 S    
O2    Cu2   1.937122 S    
Cu3   N4    1.983790 S    
C6    C39   1.421419 S    
C32   N12   1.457166 S    
Cu1   Cu2   2.639980 S    
C20   C32   1.550287 S    
C25   C49   1.538066 S    
C16   C64   1.543132 S    
O7    Cu4   1.937132 S    
C17   C45   1.550279 S    
O5    C5    1.279706 A    
C10   C58   1.552384 S    
C24   C55   1.555300 S    
C27   N7    1.457166 S    
C9    C57   1.552385 S    
C17   C29   1.550289 S    
O15   Cu3   1.937394 S    
C36   C68   1.197560 T    
C12   C62   1.543132 S    
O12   C4    1.279693 A    
C16   H18   1.110034 S    
O13   C5    1.279695 A    
N7    O22   1.300205 A    
C10   C61   1.543133 S    
C23   H11   1.110076 S    
C13   C59   1.552384 S    
C1    C36   1.421419 S    
C27   C51   1.538064 S    
C9    C62   1.543133 S    
C64   C76   1.504721 S    
C2    C35   1.421417 S    
C46   N17   1.457135 S    
C40   C72   1.197563 T    
O10   Cu1   1.937396 S    
O9    C1    1.279696 A    
C43   C51   1.538076 S    
C33   C65   1.197563 T    
N20   O47   1.300220 A    
C29   C53   1.538065 S    
C47   C55   1.538075 S    
C27   C48   1.529879 S    
C25   C46   1.529880 S    
N10   O27   1.300226 A    
C3    C34   1.421422 S    
C28   N8    1.457166 S    
N16   O39   1.300221 A    
N5    O17   1.300226 A    
C41   C49   1.538075 S    
C23   C56   1.555298 S    
N15   O38   1.300192 A    
C22   C53   1.555297 S    
N12   O32   1.300205 A    
C29   C42   1.529880 S    
N13   O34   1.300191 A    
C19   C47   1.550279 S    
O3    Cu2   1.937132 S    
C31   C44   1.529878 S    
C60   C64   1.543133 S    
N18   O44   1.300191 A    
C4    C33   1.421421 S    
C32   C56   1.538064 S    
C32   C43   1.529879 S    
N8    O24   1.300206 A    
C15   C60   1.552388 S    
O1    Cu1   1.937125 S    
C41   N14   1.457135 S    
C18   C30   1.550288 S    
C44   N15   1.457138 S    
C48   C56   1.538076 S    
N13   O33   1.300224 A    
O1    C1    1.279705 A    
C22   H10   1.110076 S    
O14   C6    1.279696 A    
C45   N18   1.457136 S    
N17   O42   1.300190 A    
C38   C70   1.197563 T    
C9    C11   1.552385 S    
C58   C62   1.543133 S    
N17   O41   1.300222 A    
C56   C72   1.453601 S    
C10   C12   1.552388 S    
C13   C15   1.552386 S    
C30   C54   1.538066 S    
C19   H7    1.110076 S    
O10   C2    1.279695 A    
O7    C7    1.279707 A    
C53   C69   1.453604 S    
C15   H17   1.110036 S    
C58   H1    1.110031 S    
N6    O20   1.300208 A    
C47   N20   1.457138 S    
C14   C16   1.552387 S    
C14   C63   1.543133 S    
C44   C52   1.538075 S    
C28   C47   1.529878 S    
C42   N13   1.457136 S    
C62   C74   1.504719 S    
C26   C50   1.538065 S    
C61   C73   1.504721 S    
O4    C4    1.279707 A    
C30   C41   1.529880 S    
C51   C67   1.453601 S    
N18   O43   1.300224 A    
C20   C48   1.550279 S    
O12   Cu2   1.937394 S    
N19   O45   1.300221 A    
O8    Cu3   1.937132 S    
C21   C25   1.550288 S    
N1    C73   1.171715 T    
N14   O36   1.300190 A    
N9    O25   1.300229 A    
C23   C27   1.550287 S    
C17   H5    1.110076 S    
C57   C61   1.543132 S    
C24   C28   1.550286 S    
Cu3   Cu4   2.639980 S    
O6    C6    1.279705 A    
