data_mof_unit_10537.cif
_audit_creation_date              2013-03-05T15:40:40-0500
_audit_creation_method            fapswitch 2.2
_symmetry_space_group_name_H-M    P1
_symmetry_Int_Tables_number       1
_space_group_crystal_system       triclinic
_cell_length_a                    19.294134
_cell_length_b                    10.980607
_cell_length_c                    18.758196
_cell_angle_alpha                 90.000058
_cell_angle_beta                  89.033196
_cell_angle_gamma                 90.00014
_cell_volume                      3973.57008152

loop_
_atom_site_label
_atom_site_type_symbol
_atom_site_description
_atom_site_fract_x
_atom_site_fract_y
_atom_site_fract_z
_atom_type_partial_charge
O1    O     O_R   0.043230 0.549300 0.667990 -0.459434
O2    O     O_R   0.956770 0.549300 0.332010 -0.503169
O3    O     O_R   0.543230 0.049300 0.667990 -0.503168
O4    O     O_R   0.456770 0.049300 0.332010 -0.459448
O5    O     O_R   0.178620 0.457600 0.674100 -0.401907
O6    O     O_R   0.821380 0.457600 0.325900 -0.519158
O7    O     O_R   0.678620 0.957600 0.674100 -0.519155
O8    O     O_R   0.321380 0.957600 0.325900 -0.401904
C1    C     C_R   0.242212 0.463033 0.649368 0.582843
C2    C     C_R   0.758123 0.462433 0.350634 0.527011
C3    C     C_R   0.741877 0.962432 0.649367 0.527001
C4    C     C_R   0.257787 0.963033 0.350632 0.582844
O9    O     O_R   0.284680 0.542100 0.669460 -0.539840
O10   O     O_R   0.715320 0.542100 0.330540 -0.529226
O11   O     O_R   0.784680 0.042100 0.669460 -0.529226
O12   O     O_R   0.215320 0.042100 0.330540 -0.539840
O13   O     O_R   0.262860 0.790390 0.676650 -0.497467
O14   O     O_R   0.737140 0.790390 0.323350 -0.434427
O15   O     O_R   0.762860 0.290390 0.676650 -0.434360
O16   O     O_R   0.237140 0.290390 0.323350 -0.497466
C5    C     C_R   0.225931 0.870480 0.646206 0.542941
C6    C     C_R   0.792344 0.825163 0.358716 0.558176
C7    C     C_R   0.707656 0.325163 0.641284 0.558183
C8    C     C_R   0.274069 0.370480 0.353794 0.542942
O17   O     O_R   0.167460 0.907030 0.670940 -0.504928
O18   O     O_R   0.832540 0.907030 0.329060 -0.543136
O19   O     O_R   0.667460 0.407030 0.670940 -0.543138
O20   O     O_R   0.332540 0.407030 0.329060 -0.504927
O21   O     O_R   0.053950 0.750220 0.675100 -0.522930
O22   O     O_R   0.946050 0.750220 0.324900 -0.530950
O23   O     O_R   0.553950 0.250220 0.675100 -0.530950
O24   O     O_R   0.446050 0.250220 0.324900 -0.522927
C9    C     C_R   0.032287 0.654626 0.643694 0.567572
C10   C     C_R   0.934794 0.653145 0.361015 0.543025
C11   C     C_R   0.565206 0.153145 0.638985 0.543023
C12   C     C_R   0.467714 0.154627 0.356306 0.567551
O25   O     O_R   0.043300 0.547370 0.827390 -0.521965
O26   O     O_R   0.956700 0.547370 0.172610 -0.523552
O27   O     O_R   0.543300 0.047370 0.827390 -0.523554
O28   O     O_R   0.456700 0.047370 0.172610 -0.522013
O29   O     O_R   0.178690 0.455820 0.821860 -0.505181
O30   O     O_R   0.821310 0.455820 0.178140 -0.507238
O31   O     O_R   0.678690 0.955820 0.821860 -0.507227
O32   O     O_R   0.321310 0.955820 0.178140 -0.505180
C13   C     C_R   0.237759 0.469281 0.851978 0.541510
C14   C     C_R   0.761236 0.463541 0.150692 0.550510
C15   C     C_R   0.738758 0.963564 0.849319 0.550509
C16   C     C_R   0.262241 0.969281 0.148022 0.541512
O33   O     O_R   0.284750 0.540170 0.828860 -0.520949
O34   O     O_R   0.715250 0.540170 0.171140 -0.511341
O35   O     O_R   0.784750 0.040170 0.828860 -0.511383
O36   O     O_R   0.215250 0.040170 0.171140 -0.520950
O37   O     O_R   0.262920 0.788600 0.824420 -0.507955
O38   O     O_R   0.737080 0.788600 0.175580 -0.495137
O39   O     O_R   0.762920 0.288600 0.824420 -0.495121
O40   O     O_R   0.237080 0.288600 0.175580 -0.507952
C17   C     C_R   0.228284 0.876202 0.851059 0.555852
C18   C     C_R   0.773690 0.873313 0.147516 0.568261
C19   C     C_R   0.726307 0.373298 0.852491 0.568229
C20   C     C_R   0.271717 0.376202 0.148941 0.555853
O41   O     O_R   0.167530 0.905110 0.830340 -0.521358
O42   O     O_R   0.832470 0.905110 0.169660 -0.520388
O43   O     O_R   0.667530 0.405110 0.830340 -0.520382
O44   O     O_R   0.332470 0.405110 0.169660 -0.521361
O45   O     O_R   0.054010 0.748440 0.822860 -0.503301
O46   O     O_R   0.945990 0.748440 0.177140 -0.490025
O47   O     O_R   0.554010 0.248440 0.822860 -0.490029
O48   O     O_R   0.445990 0.248440 0.177140 -0.503304
C21   C     C_R   0.027989 0.652759 0.849812 0.544390
C22   C     C_R   0.968079 0.651795 0.147420 0.555697
C23   C     C_R   0.531918 0.151796 0.852578 0.555691
C24   C     C_R   0.472007 0.152759 0.150186 0.544390
Cr1   Cr    Cr6+3 0.113970 0.508630 0.747920 1.088546
Cr2   Cr    Cr6+3 0.886030 0.508630 0.252080 0.986736
Cr3   Cr    Cr6+3 0.613970 0.008630 0.747920 0.986733
Cr4   Cr    Cr6+3 0.386030 0.008630 0.252080 1.088507
Cr5   Cr    Cr6+3 0.269200 0.666740 0.749850 1.008485
Cr6   Cr    Cr6+3 0.730800 0.666740 0.250150 1.032106
Cr7   Cr    Cr6+3 0.769200 0.166740 0.749850 1.032152
Cr8   Cr    Cr6+3 0.230800 0.166740 0.250150 1.008485
Cr9   Cr    Cr6+3 0.112300 0.820070 0.749800 1.021418
Cr10  Cr    Cr6+3 0.887700 0.820070 0.250200 0.992178
Cr11  Cr    Cr6+3 0.612300 0.320070 0.749800 0.992177
Cr12  Cr    Cr6+3 0.387700 0.320070 0.250200 1.021408
O49   O     O_3   0.165160 0.665150 0.749190 -0.260537
O50   O     O_3   0.834840 0.665150 0.250810 -0.300098
O51   O     O_3   0.665160 0.165150 0.749190 -0.300115
O52   O     O_3   0.334840 0.165150 0.250810 -0.260528
C25   C     C_2   0.242408 0.893903 0.571764 -0.068773
C26   C     C_2   0.785226 0.841860 0.435809 -0.044020
C27   C     C_2   0.714773 0.341860 0.564191 -0.044029
C28   C     C_2   0.257592 0.393903 0.428236 -0.068773
C29   C     C_2   0.234439 0.908855 0.418043 -0.052417
C30   C     C_2   0.767617 0.891790 0.587784 -0.090718
C31   C     C_2   0.732383 0.391791 0.412216 -0.090714
C32   C     C_2   0.265561 0.408854 0.581957 -0.052417
C33   C     C_2   0.260342 0.811033 0.449503 -0.086092
C34   C     C_2   0.737000 0.796486 0.556827 -0.079881
C35   C     C_2   0.762999 0.296486 0.443173 -0.079881
C36   C     C_2   0.239657 0.311033 0.550497 -0.086092
C37   C     C_2   0.252696 0.797688 0.527445 -0.107996
C38   C     C_2   0.752666 0.763787 0.480708 -0.054605
C39   C     C_2   0.747334 0.263787 0.519292 -0.054612
C40   C     C_2   0.247303 0.297688 0.472554 -0.107996
H1    H     H_    0.288613 0.742810 0.419146 0.170545
H2    H     H_    0.695557 0.749137 0.584598 0.130431
H3    H     H_    0.804442 0.249137 0.415402 0.130434
H4    H     H_    0.211386 0.242810 0.580853 0.170545
H5    H     H_    0.256310 0.706016 0.548897 0.155839
H6    H     H_    0.729077 0.682152 0.459263 0.164830
H7    H     H_    0.770922 0.182152 0.540736 0.164828
H8    H     H_    0.243689 0.206016 0.451103 0.155839
H9    H     H_    0.195406 0.961709 0.446935 0.104077
H10   H     H_    0.815612 0.926270 0.564999 0.117818
H11   H     H_    0.684387 0.426270 0.435001 0.117816
H12   H     H_    0.304594 0.461709 0.553065 0.104078
H13   H     H_    0.238651 0.986851 0.552646 0.105164
H14   H     H_    0.807078 0.926022 0.455059 0.137936
H15   H     H_    0.692922 0.426022 0.544941 0.137938
H16   H     H_    0.261350 0.486851 0.447354 0.105164
C41   C     C_R   0.942352 0.671931 0.438114 -0.039311
C42   C     C_R   0.997929 0.664338 0.574770 0.006744
C43   C     C_R   0.502071 0.164338 0.425229 0.006734
C44   C     C_R   0.557648 0.171931 0.561886 -0.039311
C45   C     C_R   0.951586 0.902217 0.443180 -0.112368
C46   C     C_R   0.968624 0.885255 0.589748 -0.085605
C47   C     C_R   0.531376 0.385256 0.410252 -0.085608
C48   C     C_R   0.548413 0.402217 0.556820 -0.112367
C49   C     C_R   0.953133 0.006809 0.484953 -0.143531
C50   C     C_R   0.958902 0.998335 0.558240 -0.115611
C51   C     C_R   0.541098 0.498335 0.441760 -0.115609
C52   C     C_R   0.546867 0.506809 0.515048 -0.143530
C53   C     C_R   0.974006 0.778343 0.547730 0.011944
C54   C     C_R   0.956707 0.784754 0.474191 0.009302
C55   C     C_R   0.543293 0.284755 0.525810 0.009304
C56   C     C_R   0.525995 0.278343 0.452270 0.011942
H17   H     H_    0.946787 0.094605 0.460287 0.108429
H18   H     H_    0.956018 0.079705 0.590763 0.149010
H19   H     H_    0.543982 0.579706 0.409238 0.149007
H20   H     H_    0.553212 0.594606 0.539714 0.108429
H21   H     H_    0.943900 0.919256 0.387808 0.177333
H22   H     H_    0.969387 0.883633 0.647173 0.139447
H23   H     H_    0.530613 0.383634 0.352827 0.139438
H24   H     H_    0.556100 0.419256 0.612192 0.177333
C57   C     C_R   0.988276 0.558901 0.531895 0.018728
C58   C     C_R   0.940344 0.568834 0.479548 -0.005400
C59   C     C_R   0.559657 0.068834 0.520452 -0.005402
C60   C     C_R   0.511725 0.058901 0.468105 0.018726
C61   C     C_R   0.022626 0.443915 0.532584 0.276559
C62   C     C_R   0.898580 0.467995 0.468649 0.218497
C63   C     C_R   0.601421 0.967996 0.531350 0.218500
C64   C     C_R   0.477374 0.943916 0.467416 0.276557
C65   C     C_R   0.998749 0.347746 0.489586 -0.109583
C66   C     C_R   0.936366 0.361911 0.454555 -0.110658
C67   C     C_R   0.563634 0.861912 0.545445 -0.110653
C68   C     C_R   0.501251 0.847747 0.510414 -0.109584
H25   H     H_    0.027662 0.263617 0.484314 0.135759
H26   H     H_    0.913879 0.285613 0.427506 0.087258
H27   H     H_    0.586120 0.785615 0.572494 0.087258
H28   H     H_    0.472337 0.763618 0.515686 0.135759
C69   C     C_2   0.258932 0.936829 0.912144 -0.000575
C70   C     C_2   0.757862 0.914305 0.076905 0.031033
C71   C     C_2   0.742133 0.414238 0.923114 0.031025
C72   C     C_2   0.241069 0.436829 0.087856 -0.000575
C73   C     C_2   0.254785 0.935259 0.074061 -0.100631
C74   C     C_2   0.750519 0.895817 0.913922 -0.138271
C75   C     C_2   0.749473 0.395739 0.086105 -0.138320
C76   C     C_2   0.245215 0.435258 0.925938 -0.100631
C77   C     C_2   0.231138 0.022308 0.029876 -0.160317
C78   C     C_2   0.804716 0.923551 0.953568 -0.181903
C79   C     C_2   0.695269 0.423407 0.046461 -0.181869
C80   C     C_2   0.268864 0.522306 0.970124 -0.160319
C81   C     C_2   0.216362 0.999413 0.955627 -0.162804
C82   C     C_2   0.806804 0.886070 0.027136 -0.148413
C83   C     C_2   0.693195 0.385956 0.972883 -0.148348
C84   C     C_2   0.283640 0.499409 0.044372 -0.162804
H29   H     H_    0.215637 0.111172 0.049995 0.151693
H30   H     H_    0.847607 0.978254 0.933236 0.161053
H31   H     H_    0.652351 0.477995 0.066815 0.161009
H32   H     H_    0.284367 0.611169 0.950005 0.151693
H33   H     H_    0.164710 0.025052 0.938959 0.145802
H34   H     H_    0.853864 0.838439 0.042165 0.137183
H35   H     H_    0.646137 0.338330 0.957842 0.137156
H36   H     H_    0.335293 0.525044 0.061039 0.145802
H37   H     H_    0.269945 0.845245 0.055690 0.088386
H38   H     H_    0.709451 0.837298 0.934846 0.103199
H39   H     H_    0.790554 0.337255 0.065181 0.103266
H40   H     H_    0.230053 0.345245 0.944310 0.088387
C85   C     C_2   0.990490 0.663587 0.916679 -0.115090
C86   C     C_2   0.988366 0.656513 0.073095 -0.119962
C87   C     C_2   0.511627 0.156513 0.926900 -0.119960
C88   C     C_2   0.509497 0.163586 0.083315 -0.115091
C89   C     C_2   0.962915 0.569479 0.030492 -0.171885
C90   C     C_2   0.978771 0.563589 0.955191 -0.175348
C91   C     C_2   0.521213 0.063589 0.044802 -0.175340
C92   C     C_2   0.537081 0.069484 0.969505 -0.171879
H41   H     H_    0.932596 0.494088 0.051987 0.150997
H42   H     H_    0.984659 0.473117 0.932412 0.151640
H43   H     H_    0.515321 0.973116 0.067579 0.151619
H44   H     H_    0.567411 0.994103 0.948014 0.151004
H45   H     H_    0.018557 0.732889 0.052931 0.096844
H46   H     H_    0.981284 0.753871 0.938602 0.100990
H47   H     H_    0.518707 0.253871 0.061393 0.100970
H48   H     H_    0.481428 0.232880 0.947062 0.096846
C93   C     C_3   0.334457 0.909854 0.929531 -0.250448
C94   C     C_3   0.384222 0.933709 0.865765 -0.265116
C95   C     C_3   0.440787 0.836460 0.860856 -0.408824
H49   H     H_    0.473261 0.838772 0.909146 0.146555
H50   H     H_    0.417207 0.744632 0.855694 0.152472
H51   H     H_    0.474039 0.852320 0.812941 0.170075
H52   H     H_    0.357322 0.936346 0.813993 0.178295
H53   H     H_    0.407870 0.024758 0.871910 0.162581
H54   H     H_    0.352895 0.965824 0.974751 0.150714
H55   H     H_    0.337376 0.813077 0.946527 0.137064
C96   C     C_3   0.692839 0.989085 0.065256 -0.261770
C97   C     C_3   0.690252 0.103965 0.112419 -0.306444
C98   C     C_3   0.658775 0.081372 0.186704 -0.395164
H56   H     H_    0.608550 0.032687 0.183072 0.167192
H57   H     H_    0.694387 0.027762 0.220190 0.194151
H58   H     H_    0.649437 0.170102 0.213624 0.143443
H59   H     H_    0.743037 0.143041 0.117637 0.169693
H60   H     H_    0.657875 0.173411 0.085716 0.164544
H61   H     H_    0.689573 0.020815 0.009464 0.143921
H62   H     H_    0.646762 0.930719 0.075653 0.139038
C99   C     C_3   0.807161 0.489008 0.934760 -0.261758
C100  C     C_3   0.809605 0.604129 0.887804 -0.306406
C101  C     C_3   0.840937 0.581977 0.813416 -0.395347
H63   H     H_    0.891240 0.533495 0.816852 0.167184
H64   H     H_    0.805318 0.528357 0.779944 0.194080
H65   H     H_    0.850086 0.670860 0.786608 0.143437
H66   H     H_    0.756789 0.643147 0.882772 0.169704
H67   H     H_    0.842008 0.673476 0.914561 0.164590
H68   H     H_    0.810543 0.520450 0.990594 0.143842
H69   H     H_    0.853237 0.430748 0.924152 0.139115
C102  C     C_3   0.165543 0.409861 0.070471 -0.250448
C103  C     C_3   0.115781 0.433722 0.134239 -0.265114
C104  C     C_3   0.059220 0.336467 0.139159 -0.408816
H70   H     H_    0.026742 0.338765 0.090871 0.146553
H71   H     H_    0.082804 0.244643 0.144325 0.152478
H72   H     H_    0.025972 0.352333 0.187076 0.170073
H73   H     H_    0.142684 0.436375 0.186009 0.178289
H74   H     H_    0.092128 0.524767 0.128089 0.162579
H75   H     H_    0.147106 0.465832 0.025251 0.150712
H76   H     H_    0.162620 0.313084 0.053475 0.137065
N1    N     N_R   0.849010 0.457334 0.525876 0.050148
O53   O     O_R   0.863445 0.386526 0.579409 -0.343341
O54   O     O_R   0.806301 0.546745 0.537496 -0.406936
N2    N     N_R   0.088200 0.429752 0.561757 0.092177
O55   O     O_R   0.101447 0.328938 0.595166 -0.380991
O56   O     O_R   0.136921 0.505639 0.543008 -0.397247
N3    N     N_R   0.411800 0.929752 0.438243 0.092179
O57   O     O_R   0.398553 0.828938 0.404834 -0.380994
O58   O     O_R   0.363079 0.005639 0.456992 -0.397242
N4    N     N_R   0.650990 0.957333 0.474123 0.050145
O59   O     O_R   0.636554 0.886524 0.420590 -0.343377
O60   O     O_R   0.693699 0.046745 0.462502 -0.406945

loop_
_geom_bond_atom_site_label_1
_geom_bond_atom_site_label_2
_geom_bond_distance
_ccdc_geom_bond_type
C45   C54   1.419042 A    
C18   O42   1.263546 A    
C62   N1    1.430420 S    
Cr11  O51   1.983358 S    
O4    C12   1.262201 A    
N1    O54   1.297843 A    
O47   Cr11  1.926053 S    
C76   H40   1.085288 S    
N1    O53   1.303824 A    
O39   C19   1.276214 A    
O20   Cr12  2.044399 S    
C35   C39   1.498150 S    
C59   C60   1.364550 A    
C36   C40   1.474306 S    
C92   H44   1.087262 S    
C71   C83   1.352710 D    
C96   H62   1.110518 S    
C82   H34   1.089079 S    
O26   C22   1.258090 A    
C57   C58   1.364549 A    
C30   H10   1.081760 S    
O1    C9    1.262199 A    
C55   C56   1.426466 A    
C5    C25   1.449894 S    
C93   C94   1.543544 S    
O45   C21   1.266065 A    
C98   H58   1.110708 S    
O7    C3    1.299452 A    
C43   C60   1.423736 A    
O39   Cr7   1.938067 S    
C78   H30   1.086484 S    
C99   H69   1.110500 S    
O24   C12   1.277458 A    
C11   C44   1.470556 S    
O40   C20   1.268993 A    
C99   C100  1.540963 S    
C66   H26   1.074704 S    
O25   C21   1.264584 A    
C78   C82   1.441279 S    
C31   C35   1.338994 D    
N3    O58   1.300205 A    
C80   H32   1.086374 S    
C46   C50   1.389245 A    
C37   H5    1.086734 S    
C100  H66   1.110931 S    
C26   H14   1.080429 S    
O21   C9    1.277455 A    
O8    Cr4   1.931083 S    
C1    O9    1.256035 A    
C103  C104  1.528557 S    
C39   H7    1.085658 S    
O30   C14   1.279008 A    
C42   C57   1.423738 A    
C103  H74   1.105808 S    
O32   Cr4   1.969193 S    
C61   C65   1.410833 A    
C97   H59   1.110977 S    
O44   Cr12  2.084300 S    
C57   C61   1.426149 A    
N4    O60   1.297844 A    
C86   C89   1.344022 D    
C87   C92   1.344015 D    
C3    O11   1.264850 A    
C85   C90   1.331598 D    
C26   C38   1.349482 D    
C16   C73   1.446297 S    
C64   C68   1.410833 A    
C46   C53   1.416844 A    
C45   H21   1.068204 S    
C95   H51   1.109190 S    
C102  C103  1.543548 S    
C93   H54   1.110842 S    
C81   H33   1.086592 S    
C7    O19   1.305561 A    
C41   C54   1.440768 A    
O14   C6    1.320684 A    
O3    Cr3   2.092700 S    
Cr4   O52   1.982607 S    
O47   C23   1.269087 A    
O2    Cr2   2.092695 S    
O8    C4    1.305766 A    
C33   H1    1.082819 S    
O2    C10   1.329757 A    
O42   Cr10  2.084300 S    
Cr5   O49   2.007685 S    
O18   Cr10  2.044399 S    
C58   C62   1.386618 A    
C104  H70   1.110380 S    
C72   C102  1.527582 S    
O17   Cr9   2.044395 S    
C69   C93   1.527588 S    
C8    C28   1.449893 S    
C77   H29   1.086375 S    
N2    O56   1.300205 A    
O6    Cr2   1.931083 S    
C91   H43   1.086636 S    
C70   C96   1.518292 S    
C73   C77   1.349654 D    
O24   Cr12  1.967851 S    
C44   C59   1.373370 A    
O11   Cr7   2.054533 S    
C36   H4    1.082818 S    
O30   Cr2   1.969193 S    
C14   C75   1.443226 S    
O22   C10   1.279602 A    
C67   H27   1.074705 S    
C95   H49   1.110379 S    
O48   Cr12  1.926051 S    
C88   C91   1.331596 D    
C4    O12   1.256036 A    
N3    O57   1.299587 A    
C12   C43   1.466718 S    
C19   C71   1.436643 S    
C47   C56   1.416845 A    
C2    O10   1.264852 A    
C48   C55   1.419040 A    
C31   H11   1.081760 S    
C40   H8    1.086734 S    
C15   C74   1.443160 S    
O16   Cr8   1.936369 S    
C94   C95   1.528557 S    
O7    Cr3   1.931088 S    
O26   Cr2   2.047868 S    
C98   H56   1.109829 S    
Cr10  O50   1.983354 S    
C79   C83   1.441347 S    
C46   H22   1.077699 S    
O13   C5    1.273165 A    
O28   Cr4   2.047868 S    
O43   Cr11  2.084297 S    
C10   C41   1.470554 S    
O12   Cr8   2.054537 S    
Cr12  O52   1.983354 S    
C103  H73   1.109211 S    
O22   Cr10  1.967851 S    
O15   C7    1.320686 A    
C96   C97   1.541079 S    
C42   C53   1.430158 A    
O5    C1    1.305764 A    
N4    O59   1.303825 A    
C15   O35   1.277023 A    
O46   Cr10  1.926051 S    
C69   C81   1.337742 D    
C33   C37   1.474307 S    
O45   Cr9   1.926053 S    
C101  H63   1.109810 S    
O3    C11   1.329757 A    
O40   Cr8   1.938065 S    
O48   C24   1.266057 A    
C75   H39   1.088209 S    
O13   Cr5   1.936369 S    
C13   O33   1.265980 A    
C6    C26   1.461867 S    
O23   Cr11  1.967850 S    
C17   C69   1.459004 S    
C100  C101  1.530778 S    
C47   H23   1.077699 S    
O29   C13   1.289051 A    
C97   C98   1.530859 S    
C94   H52   1.109210 S    
C48   H24   1.068203 S    
C1    C32   1.461716 S    
C102  H75   1.110841 S    
Cr7   O51   2.007685 S    
C63   N4    1.430423 S    
C3    C30   1.470844 S    
Cr3   O51   1.982604 S    
O14   Cr6   1.936369 S    
C101  H64   1.108028 S    
C25   H13   1.084621 S    
C93   H55   1.111170 S    
C74   C78   1.328730 D    
C61   N2    1.395613 S    
O27   Cr3   2.047868 S    
C104  H71   1.111109 S    
O9    Cr5   2.054533 S    
C62   C66   1.397078 A    
C53   C54   1.426465 A    
C8    O20   1.277254 A    
C7    C27   1.461869 S    
C4    C29   1.461715 S    
C38   H6    1.085659 S    
C52   H20   1.077219 S    
C87   H48   1.085487 S    
C21   C85   1.442316 S    
C51   C52   1.384239 A    
C18   C70   1.436624 S    
C29   C33   1.327315 D    
O34   Cr6   2.057467 S    
C89   H41   1.087259 S    
N2    O55   1.299585 A    
C22   C86   1.442660 S    
O31   Cr3   1.969195 S    
C83   H35   1.089080 S    
C49   C50   1.384240 A    
O38   C18   1.276246 A    
C76   C80   1.349653 D    
C19   O43   1.263579 A    
C84   H36   1.086592 S    
C5    O17   1.277255 A    
C48   C52   1.390933 A    
O37   C17   1.268991 A    
O28   C24   1.264581 A    
C44   C55   1.440769 A    
C25   C37   1.356887 D    
C74   H38   1.088267 S    
O36   Cr8   2.057467 S    
O21   Cr9   1.967850 S    
O5    Cr1   1.931088 S    
C60   C64   1.426151 A    
C27   C39   1.349481 D    
C96   H61   1.105827 S    
O6    C2    1.299454 A    
C9    C42   1.466720 S    
C86   H45   1.085485 S    
C17   O41   1.281095 A    
C70   C82   1.352637 D    
C68   H28   1.082825 S    
C85   H46   1.086750 S    
Cr2   O50   1.982607 S    
C35   H3    1.080283 S    
C14   O34   1.277065 A    
O25   Cr1   2.047868 S    
C63   C67   1.397078 A    
C34   H2    1.080284 S    
C75   C79   1.328650 D    
C43   C56   1.430158 A    
C20   O44   1.281088 A    
C99   H68   1.105757 S    
C79   H31   1.086330 S    
C47   C51   1.389245 A    
C73   H37   1.085288 S    
O38   Cr6   1.938065 S    
C28   H16   1.084621 S    
O15   Cr7   1.936369 S    
Cr1   O49   1.982604 S    
Cr8   O52   2.007683 S    
O32   C16   1.289051 A    
C34   C38   1.498148 S    
C24   C88   1.442295 S    
C77   C81   1.448345 S    
Cr6   O50   2.007683 S    
C90   H42   1.086634 S    
C2    C31   1.470846 S    
C100  H67   1.110497 S    
C59   C63   1.386617 A    
C32   C36   1.327315 D    
O23   C11   1.279601 A    
O19   Cr11  2.044395 S    
C20   C72   1.459002 S    
C88   H47   1.086753 S    
O33   Cr5   2.057473 S    
C72   C84   1.337741 D    
C27   H15   1.080428 S    
O10   Cr6   2.054537 S    
C94   H53   1.105806 S    
C65   H25   1.082825 S    
C98   H57   1.108050 S    
C13   C76   1.446296 S    
O35   Cr7   2.057473 S    
C102  H76   1.111170 S    
O4    Cr4   2.092695 S    
C97   H60   1.110491 S    
C51   H19   1.082802 S    
C28   C40   1.356887 D    
O29   Cr1   1.969195 S    
C91   C92   1.441642 S    
C45   C49   1.390931 A    
C16   O36   1.265983 A    
C101  H65   1.110671 S    
C49   H17   1.077219 S    
O46   C22   1.269093 A    
C29   H9    1.088092 S    
C89   C90   1.441667 S    
C6    O18   1.305560 A    
C104  H72   1.109190 S    
C67   C68   1.389752 A    
C95   H50   1.111108 S    
C30   C34   1.338993 D    
C41   C58   1.373369 A    
C32   H12   1.088090 S    
O41   Cr9   2.084297 S    
C23   C87   1.442640 S    
O37   Cr5   1.938067 S    
C71   C99   1.518291 S    
O31   C15   1.279023 A    
O1    Cr1   2.092700 S    
O16   C8    1.273164 A    
C64   N3    1.395612 S    
Cr9   O49   1.983358 S    
C80   C84   1.448340 S    
C65   C66   1.389752 A    
O27   C23   1.258087 A    
C50   H18   1.082803 S    
