data_mof_unit_31269.cif
_audit_creation_date              2012-12-10T19:46:23-0500
_audit_creation_method            fapswitch 2.2
_symmetry_space_group_name_H-M    P1
_symmetry_Int_Tables_number       1
_space_group_crystal_system       triclinic
_cell_length_a                    10.997462
_cell_length_b                    11.005618
_cell_length_c                    10.584024
_cell_angle_alpha                 91.933044
_cell_angle_beta                  90.99309
_cell_angle_gamma                 89.154355
_cell_volume                      1279.97525282

loop_
_atom_site_label
_atom_site_type_symbol
_atom_type_description
_atom_site_fract_x
_atom_site_fract_y
_atom_site_fract_z
_atom_type_partial_charge
C1    C     C_R   0.497294 0.261932 0.497521 0.828112
C2    C     C_R   0.493523 0.738453 0.501656 0.818497
C3    C     C_R   0.873574 0.513217 0.502370 -0.241985
C4    C     C_R   0.128387 0.492496 0.494221 -0.215782
C5    C     C_R   0.941591 0.479605 0.609728 -0.071188
C6    C     C_R   0.062330 0.541868 0.391690 -0.098028
C7    C     C_R   0.378620 0.212250 0.087707 -0.173723
C8    C     C_R   0.441239 0.911482 0.956787 -0.186396
C9    C     C_R   0.382948 0.163024 0.207742 -0.106378
C10   C     C_R   0.487519 0.894309 0.835256 -0.025300
C11   C     C_R   0.491366 0.110075 0.253616 0.027205
C12   C     C_R   0.410406 0.905598 0.729472 0.012797
C13   C     C_R   0.594942 0.107141 0.178624 -0.194748
C14   C     C_R   0.285622 0.930365 0.747817 -0.142644
C15   C     C_R   0.590133 0.154822 0.057596 0.441245
C16   C     C_R   0.240926 0.949441 0.870271 0.536898
C17   C     C_R   0.481564 0.206807 0.012042 -0.224467
C18   C     C_R   0.319493 0.941049 0.973861 -0.239546
C19   C     C_R   0.499949 0.930306 0.386511 -0.171926
C20   C     C_R   0.473126 0.071795 0.606622 -0.115472
C21   C     C_R   0.486007 0.872685 0.502235 -0.076342
C22   C     C_R   0.490264 0.128602 0.492991 -0.069195
C23   C     C_R   0.262141 0.494216 0.498232 0.870842
C24   C     C_R   0.738544 0.505837 0.501191 0.893490
C25   C     C_R   0.462907 0.946254 0.611621 0.001817
C26   C     C_R   0.495753 0.056955 0.379902 0.019309
C27   C     C_1   0.498868 0.500037 0.072413 0.153241
C28   C     C_1   0.498658 0.499993 0.927579 0.142716
C29   C     C_R   0.231249 0.681094 0.126788 -0.171304
C30   C     C_R   0.782430 0.536011 0.916602 -0.114769
C31   C     C_R   0.190301 0.659819 0.247696 -0.102176
C32   C     C_R   0.841592 0.474596 0.818012 -0.158029
C33   C     C_R   0.118778 0.557979 0.267913 0.104135
C34   C     C_R   0.904286 0.539630 0.729321 0.029418
C35   C     C_R   0.093182 0.475381 0.166862 0.242733
C36   C     C_R   0.908768 0.667845 0.742092 0.267863
C37   C     C_R   0.127455 0.502326 0.045012 -0.214163
C38   C     C_R   0.843020 0.728401 0.836592 -0.135613
C39   C     C_R   0.194914 0.605894 0.024459 0.285095
C40   C     C_R   0.779385 0.663037 0.923212 0.259724
C41   C     C_R   0.935919 0.559009 0.399532 0.428896
C42   C     C_R   0.065198 0.450291 0.598058 0.415558
Cu1   Cu    Cu3+1 0.500000 0.500000 0.625300 1.077877
Cu2   Cu    Cu3+1 0.500000 0.500000 0.374700 1.067326
H1    H     H_    0.678538 0.066714 0.214260 0.190997
H2    H     H_    0.226356 0.945623 0.666926 0.216464
H3    H     H_    0.510228 0.876836 0.299312 0.189413
H4    H     H_    0.459289 0.126301 0.692715 0.189506
H5    H     H_    0.289060 0.757059 0.113233 0.163477
H6    H     H_    0.733244 0.484223 0.982961 0.213432
H7    H     H_    0.212708 0.722922 0.325117 0.163875
H8    H     H_    0.829305 0.377943 0.804828 0.245650
H9    H     H_    0.100099 0.443513 0.966652 0.212758
H10   H     H_    0.838347 0.826486 0.840189 0.239485
H11   H     H_    0.476302 0.242367 0.918027 0.183758
H12   H     H_    0.286401 0.959121 0.068462 0.176652
H13   H     H_    0.294996 0.252871 0.052496 0.211470
H14   H     H_    0.500018 0.910580 0.038921 0.203880
H15   H     H_    0.302173 0.166096 0.264968 0.182013
H16   H     H_    0.584725 0.883943 0.823185 0.192984
N1    N     N_1   0.500010 0.499990 0.186410 -0.115020
N2    N     N_1   0.499990 0.500010 0.813590 -0.109530
O1    O     O_R   0.499990 0.319650 0.605810 -0.562416
O2    O     O_R   0.500010 0.680350 0.394190 -0.563670
O3    O     O_R   0.499990 0.319640 0.394190 -0.586585
O4    O     O_R   0.500010 0.680360 0.605810 -0.572972
O5    O     O_R   0.319640 0.500010 0.605810 -0.494558
O6    O     O_R   0.680360 0.499990 0.394190 -0.495152
O7    O     O_R   0.319650 0.500010 0.394190 -0.616887
O8    O     O_R   0.680350 0.499990 0.605810 -0.598491
Br1   Br    Br    0.232926 0.646076 0.856598 -0.461460
Br2   Br    Br    0.682741 0.749210 0.043931 -0.468138
S1    S     S_3+6 0.719807 0.146191 0.963454 -0.015010
O9    O     O_2   0.685477 0.152635 0.825782 -0.312290
O10   O     O_2   0.801029 0.250376 0.999717 -0.282051
O11   O     O_3   0.794560 0.014949 0.988825 -0.498315
H17   H     H_    0.843658 0.030141 0.066935 0.414205
S2    S     S_3+6 0.088537 0.987766 0.897904 0.056374
O12   O     O_2   0.032742 0.885144 0.965354 -0.292428
O13   O     O_2   0.083049 0.100468 0.981747 -0.263501
O14   O     O_3   0.013288 0.011492 0.761319 -0.434817
H18   H     H_    0.927712 0.026848 0.785210 0.427829
Br3   Br    Br    0.011259 0.325793 0.192325 -0.397985
Br4   Br    Br    0.993817 0.765045 0.626055 -0.436567
S3    S     S_3+6 0.858290 0.649519 0.287937 0.064502
O15   O     O_2   0.804517 0.561339 0.192385 -0.290308
O16   O     O_2   0.758457 0.723186 0.350146 -0.235605
O17   O     O_3   0.948719 0.747178 0.216418 -0.471445
H19   H     H_    0.951207 0.718703 0.126788 0.387582
S4    S     S_3+6 0.125721 0.327204 0.684834 0.034706
O18   O     O_2   0.186169 0.237463 0.595068 -0.277495
O19   O     O_2   0.218618 0.368986 0.781788 -0.310651
O20   O     O_3   0.013032 0.256763 0.756393 -0.463996
H20   H     H_    0.021036 0.280899 0.846940 0.390709

loop_
_geom_bond_atom_site_label_1
_geom_bond_atom_site_label_2
_ccdc_geom_bond_type
C13   H1    S    
C5    C42   A    
O20   H20   S    
S1    O9    D    
C23   O7    A    
O14   H18   S    
Cu2   O3    S    
Cu1   O1    S    
C14   H2    S    
C29   H5    S    
S3    O15   D    
Cu2   O2    S    
C19   C21   A    
S2    O13   D    
C20   C25   A    
C7    C9    A    
C23   O5    A    
C19   C26   A    
C32   H8    S    
C27   N1    T    
C8    H14   S    
C7    C17   A    
C6    C41   A    
C1    O3    A    
C31   C33   A    
C30   C32   A    
C17   H11   S    
C16   S2    S    
C18   H12   S    
C37   H9    S    
C30   H6    S    
C1    C22   S    
S1    O10   D    
C3    C24   S    
C1    O1    A    
C2    O2    A    
S3    O16   D    
C24   O8    A    
O11   H17   S    
C4    C6    A    
C4    C23   S    
C35   Br3   S    
S2    O12   D    
C11   C26   S    
C3    C5    A    
C8    C18   A    
C9    H15   S    
C32   C34   A    
C10   H16   S    
Cu1   Cu2   S    
S4    O19   D    
C38   H10   S    
C29   C31   A    
C5    C34   S    
C29   C39   A    
C2    C21   S    
C30   C40   A    
Cu2   O7    S    
C16   C18   A    
C9    C11   A    
C20   H4    S    
C10   C12   A    
C8    C10   A    
C15   S1    S    
C12   C14   A    
Cu1   O8    S    
C13   C15   A    
S1    O11   S    
C14   C16   A    
Cu2   O6    S    
C20   C22   A    
S4    O20   S    
S3    O17   S    
C15   C17   A    
C21   C25   A    
C3    C41   A    
C40   Br2   S    
C35   C37   A    
C31   H7    S    
C2    O4    A    
Cu2   N1    S    
C41   S3    S    
C6    C33   S    
C12   C25   S    
C36   C38   A    
C37   C39   A    
C38   C40   A    
C11   C13   A    
S2    O14   S    
S4    O18   D    
C4    C42   A    
C36   Br4   S    
Cu1   O4    S    
C33   C35   A    
C34   C36   A    
C24   O6    A    
O17   H19   S    
Cu1   O5    S    
C22   C26   A    
C19   H3    S    
C27   C28   S    
C39   Br1   S    
C42   S4    S    
C7    H13   S    
Cu1   N2    S    
C28   N2    T    
