data_mof_unit_5732.cif
_audit_creation_date              2012-12-10T19:16:06-0500
_audit_creation_method            fapswitch 2.2
_symmetry_space_group_name_H-M    P1
_symmetry_Int_Tables_number       1
_space_group_crystal_system       triclinic
_cell_length_a                    14.749995
_cell_length_b                    15.572309
_cell_length_c                    15.992717
_cell_angle_alpha                 89.554167
_cell_angle_beta                  89.919196
_cell_angle_gamma                 69.693201
_cell_volume                      3444.97380686

loop_
_atom_site_label
_atom_site_type_symbol
_atom_type_description
_atom_site_fract_x
_atom_site_fract_y
_atom_site_fract_z
_atom_type_partial_charge
C1    C     C_R   0.499927 0.500292 0.340832 0.800697
C2    C     C_R   0.499745 0.500533 0.659162 0.821941
C3    C     C_R   0.626146 0.893274 0.556894 0.407553
C4    C     C_R   0.405225 0.089467 0.595706 0.347725
C5    C     C_R   0.694873 0.935289 0.540751 0.073124
C6    C     C_R   0.334040 0.048517 0.598535 0.096125
C7    C     C_R   0.557360 0.546536 0.955425 0.048820
C8    C     C_R   0.424675 0.486366 0.044034 0.026349
C9    C     C_R   0.490705 0.516736 0.912470 -0.074749
C10   C     C_R   0.491738 0.515039 0.087250 -0.071297
C11   C     C_R   0.421450 0.490828 0.956322 0.340417
C12   C     C_R   0.555126 0.549405 0.043568 0.381261
C13   C     C_1   0.494735 0.510463 0.822904 0.048734
C14   C     C_1   0.496023 0.508547 0.176876 0.076396
C15   C     C_1   0.498510 0.504011 0.251813 -0.185543
C16   C     C_1   0.497627 0.505298 0.748072 -0.192019
C17   C     C_R   0.933031 0.547882 0.562076 0.455387
C18   C     C_R   0.069118 0.444449 0.445286 0.443319
C19   C     C_R   0.903554 0.497760 0.501442 -0.197615
C20   C     C_R   0.097396 0.499256 0.502510 -0.197829
C21   C     C_R   0.972502 0.445831 0.443017 0.019737
C22   C     C_R   0.027903 0.552152 0.560833 0.012010
C23   C     C_R   0.558767 0.325946 0.499189 0.819848
C24   C     C_R   0.441328 0.674136 0.500997 0.819193
C25   C     C_1   0.802957 0.499045 0.500349 0.220901
C26   C     C_1   0.197442 0.499785 0.500801 0.200529
C27   C     C_R   0.597034 0.224537 0.503752 -0.256891
C28   C     C_R   0.405293 0.774720 0.513717 -0.231499
C29   C     C_R   0.730830 0.078389 0.509212 0.115813
C30   C     C_R   0.284739 0.914330 0.567564 0.113624
C31   C     C_R   0.696427 0.173525 0.495785 0.461255
C32   C     C_R   0.308380 0.825011 0.535379 0.388061
C33   C     C_R   0.533038 0.178732 0.520590 -0.256873
C34   C     C_R   0.473259 0.818456 0.514367 -0.265103
C35   C     C_R   0.565237 0.084477 0.538892 0.026163
C36   C     C_R   0.452255 0.906487 0.547198 -0.006127
C37   C     C_R   0.665139 0.031737 0.529098 -0.042046
C38   C     C_R   0.355701 0.957196 0.570980 0.013666
C39   C     C_R   0.498082 0.041289 0.561843 -0.103971
C40   C     C_R   0.525728 0.945848 0.554153 -0.115174
Cu1   Cu    Cu3+1 0.589210 0.500030 0.500000 0.972846
Cu2   Cu    Cu3+1 0.410790 0.499970 0.500000 0.973431
H1    H     H_    0.543694 0.782377 0.488383 0.227709
H2    H     H_    0.456792 0.217901 0.517481 0.227311
N1    N     N_1   0.276700 0.500030 0.499980 -0.161642
N2    N     N_1   0.723300 0.499970 0.500020 -0.160719
O1    O     O_R   0.575310 0.500040 0.380310 -0.581291
O2    O     O_R   0.424690 0.499960 0.619690 -0.569441
O3    O     O_R   0.424640 0.500000 0.380310 -0.563728
O4    O     O_R   0.575360 0.500000 0.619690 -0.571345
O5    O     O_R   0.617590 0.370200 0.500000 -0.543704
O6    O     O_R   0.382410 0.629800 0.500000 -0.552387
O7    O     O_R   0.466910 0.370160 0.500000 -0.577255
O8    O     O_R   0.533090 0.629840 0.500000 -0.569278
N3    N     N_3   0.794494 0.878035 0.534029 -0.614437
H3    H     H_    0.817600 0.844639 0.591056 0.238220
H4    H     H_    0.800785 0.828766 0.488193 0.254128
N4    N     N_3   0.239030 0.101969 0.627038 -0.539071
H5    H     H_    0.244035 0.122143 0.688535 0.229355
H6    H     H_    0.212645 0.160735 0.589509 0.229478
O9    O     O_3   0.237759 0.784955 0.535050 -0.614805
C41   C     C_3   0.208508 0.776105 0.451986 0.109480
H7    H     H_    0.193092 0.711198 0.449365 0.183233
H8    H     H_    0.265223 0.770554 0.403935 0.110881
C42   C     C_3   0.116017 0.855478 0.429169 -0.401882
H9    H     H_    0.062559 0.866525 0.480687 0.235616
H10   H     H_    0.133388 0.918810 0.419882 0.207665
C43   C     C_3   0.070983 0.836445 0.348747 -0.903168
H11   H     H_    0.122916 0.825442 0.296109 0.254719
H12   H     H_    0.005191 0.895941 0.333381 0.254595
H13   H     H_    0.050024 0.774883 0.356657 0.259246
O10   O     O_3   0.762730 0.216266 0.478741 -0.581724
C44   C     C_3   0.763497 0.235616 0.391960 0.089233
H14   H     H_    0.756582 0.308689 0.384986 0.175218
H15   H     H_    0.702611 0.226730 0.355724 0.099073
C45   C     C_3   0.859794 0.176223 0.353716 -0.351072
H16   H     H_    0.920543 0.181694 0.391764 0.234017
H17   H     H_    0.864379 0.103551 0.353776 0.222103
C46   C     C_3   0.869976 0.205606 0.263975 -0.911274
H18   H     H_    0.810642 0.199514 0.224475 0.257765
H19   H     H_    0.940139 0.160842 0.237934 0.260093
H20   H     H_    0.868001 0.277563 0.262203 0.266054
N5    N     N_3   0.833417 0.032760 0.503319 -0.567119
H21   H     H_    0.849120 0.985493 0.454632 0.234072
H22   H     H_    0.860312 0.001245 0.560453 0.245469
N6    N     N_3   0.189732 0.959070 0.600917 -0.542422
H23   H     H_    0.138890 0.969754 0.553169 0.223633
H24   H     H_    0.175996 0.916631 0.646461 0.239950
O11   O     O_3   0.660541 0.800276 0.576151 -0.612099
C47   C     C_3   0.637804 0.784669 0.659880 0.111217
H25   H     H_    0.643217 0.711887 0.664797 0.182424
H26   H     H_    0.562439 0.825920 0.677920 0.122947
C48   C     C_3   0.709155 0.801161 0.721923 -0.366110
H27   H     H_    0.784295 0.761147 0.702992 0.250784
H28   H     H_    0.700306 0.874998 0.721730 0.201320
C49   C     C_3   0.692644 0.772600 0.810506 -0.956905
H29   H     H_    0.617477 0.810739 0.830979 0.255367
H30   H     H_    0.743481 0.787742 0.854187 0.262181
H31   H     H_    0.705974 0.697967 0.813108 0.260009
O12   O     O_3   0.382784 0.176340 0.628843 -0.633224
C50   C     C_3   0.429270 0.169896 0.707123 0.042877
H32   H     H_    0.506098 0.122915 0.705659 0.146789
H33   H     H_    0.389921 0.144562 0.755279 0.137468
C51   C     C_3   0.428420 0.264742 0.731813 -0.307578
H34   H     H_    0.464753 0.291568 0.682359 0.226190
H35   H     H_    0.352545 0.312360 0.737520 0.222448
C52   C     C_3   0.480930 0.261003 0.814629 -0.876070
H36   H     H_    0.442731 0.239315 0.866031 0.259608
H37   H     H_    0.483092 0.329710 0.829013 0.290142
H38   H     H_    0.556503 0.212426 0.810719 0.242285
O13   O     O_3   0.620945 0.577966 0.086697 -0.606216
C53   C     C_3   0.574371 0.667015 0.118959 0.064193
H39   H     H_    0.611895 0.671981 0.177942 0.174240
H40   H     H_    0.496971 0.681708 0.135692 0.118497
C54   C     C_3   0.582602 0.739901 0.057478 -0.375236
H41   H     H_    0.659642 0.724453 0.040239 0.230542
H42   H     H_    0.540932 0.739217 0.999866 0.207797
C55   C     C_3   0.543176 0.835385 0.095307 -0.912856
H43   H     H_    0.465753 0.852826 0.111992 0.253048
H44   H     H_    0.549615 0.886536 0.049085 0.256707
H45   H     H_    0.584896 0.838843 0.152175 0.257338
O14   O     O_3   0.355364 0.462437 0.913788 -0.609106
C56   C     C_3   0.274847 0.540362 0.892366 0.055764
H46   H     H_    0.296251 0.586004 0.848639 0.146061
H47   H     H_    0.241762 0.579815 0.949266 0.130235
C57   C     C_3   0.199298 0.509430 0.849156 -0.315087
H48   H     H_    0.230110 0.473089 0.790470 0.222413
H49   H     H_    0.179548 0.461244 0.890849 0.221806
C58   C     C_3   0.108467 0.590787 0.828391 -0.915415
H50   H     H_    0.075475 0.627193 0.886387 0.250596
H51   H     H_    0.055102 0.566041 0.797382 0.259708
H52   H     H_    0.126149 0.639193 0.785536 0.266663
N7    N     N_3   0.627071 0.572624 0.908427 -0.582530
H53   H     H_    0.678161 0.584451 0.947380 0.258438
H54   H     H_    0.589888 0.634295 0.877707 0.203134
N8    N     N_3   0.360823 0.451541 0.089610 -0.560509
H55   H     H_    0.289597 0.492768 0.076329 0.227165
H56   H     H_    0.371226 0.385440 0.068456 0.247244
N9    N     N_3   0.050469 0.611045 0.619969 -0.585597
H57   H     H_    0.123347 0.604240 0.618591 0.231778
H58   H     H_    0.011112 0.678647 0.602715 0.237938
N10   N     N_3   0.946244 0.392860 0.380827 -0.550730
H59   H     H_    0.889618 0.436916 0.345057 0.227196
H60   H     H_    0.921066 0.345925 0.411340 0.214081
O15   O     O_3   0.866822 0.596813 0.621124 -0.592695
C59   C     C_3   0.886931 0.550757 0.699473 0.048311
H61   H     H_    0.880200 0.602839 0.748375 0.169925
H62   H     H_    0.961610 0.499389 0.705305 0.138469
C60   C     C_3   0.813343 0.503815 0.717512 -0.345363
H63   H     H_    0.738974 0.555043 0.714480 0.234066
H64   H     H_    0.819943 0.450617 0.669769 0.222057
C61   C     C_3   0.829944 0.458267 0.803670 -0.878185
H65   H     H_    0.902356 0.403746 0.806630 0.248729
H66   H     H_    0.774118 0.426838 0.815843 0.280446
H67   H     H_    0.825102 0.509612 0.852858 0.257415
O16   O     O_3   0.134485 0.393496 0.386773 -0.579022
C62   C     C_3   0.181828 0.304756 0.419824 0.071695
H68   H     H_    0.128853 0.272922 0.441840 0.142971
H69   H     H_    0.229465 0.307625 0.472962 0.147430
C63   C     C_3   0.243792 0.244554 0.351256 -0.306526
H70   H     H_    0.196438 0.240271 0.298612 0.229335
H71   H     H_    0.296110 0.275888 0.327435 0.228893
C64   C     C_3   0.299393 0.148136 0.383529 -0.928372
H72   H     H_    0.351509 0.150749 0.432427 0.264222
H73   H     H_    0.340343 0.105284 0.331401 0.257272
H74   H     H_    0.249012 0.115955 0.409839 0.258812

loop_
_geom_bond_atom_site_label_1
_geom_bond_atom_site_label_2
_ccdc_geom_bond_type
C24   O6    A    
N3    H3    S    
C48   H27   S    
C5    C37   A    
C8    N8    S    
C18   C21   A    
C44   H15   S    
Cu1   Cu2   S    
C6    N4    S    
C17   O15   S    
C64   H72   S    
C45   C46   S    
C53   H40   S    
O15   C59   S    
C56   H46   S    
C27   C33   A    
C57   H48   S    
O16   C62   S    
C35   C37   A    
C45   H17   S    
C32   O9    S    
C29   N5    S    
C53   C54   S    
C60   H64   S    
Cu2   O7    S    
N6    H24   S    
C56   H47   S    
C42   H10   S    
C24   O8    A    
C54   H41   S    
C49   H31   S    
C30   C38   A    
C44   H14   S    
C9    C13   S    
C55   H43   S    
C53   H39   S    
C41   H8    S    
C2    O4    A    
C26   N1    T    
C17   C19   A    
C23   O5    A    
C62   H68   S    
O13   C53   S    
C43   H11   S    
C54   H42   S    
C49   H30   S    
C52   H36   S    
C6    C38   A    
C1    C15   S    
C23   C27   S    
C30   N6    S    
C2    C16   S    
C18   C20   A    
C58   H52   S    
C42   C43   S    
C28   C34   A    
C50   H33   S    
C52   H37   S    
C51   H35   S    
C51   H34   S    
C23   O7    A    
C59   H62   S    
O14   C56   S    
C7    C12   A    
C8    C11   A    
C27   C31   A    
C50   H32   S    
C28   C32   A    
C64   H74   S    
C45   H16   S    
C4    C6    A    
C1    O3    A    
C10   C14   S    
C60   C61   S    
C39   C40   A    
C46   H19   S    
N6    H23   S    
C1    O1    A    
C56   C57   S    
C57   C58   S    
C2    O2    A    
N4    H5    S    
C22   N9    S    
Cu2   N1    S    
C63   H71   S    
C35   C39   A    
C63   C64   S    
C41   H7    S    
C59   C60   S    
C47   H26   S    
N5    H21   S    
C61   H67   S    
C36   C40   A    
Cu1   N2    S    
C54   C55   S    
C49   H29   S    
Cu1   O1    S    
Cu2   O2    S    
C9    C11   A    
C10   C12   A    
N8    H56   S    
C31   O10   S    
N5    H22   S    
C20   C22   A    
C3    C40   A    
C62   C63   S    
N3    H4    S    
N7    H53   S    
C44   C45   S    
N10   H60   S    
C11   O14   S    
Cu1   O4    S    
C18   O16   S    
C47   C48   S    
C59   H61   S    
C7    C9    A    
C57   H49   S    
C41   C42   S    
C64   H73   S    
C14   C15   T    
C33   H2    S    
C5    N3    S    
C8    C10   A    
C34   H1    S    
C24   C28   S    
C61   H66   S    
O10   C44   S    
C3    C5    A    
C21   N10   S    
C46   H20   S    
N9    H57   S    
C7    N7    S    
C48   C49   S    
C4    C39   A    
C17   C22   A    
C3    O11   S    
C52   H38   S    
C63   H70   S    
C4    O12   S    
C58   H50   S    
C29   C31   A    
C60   H63   S    
C30   C32   A    
N9    H58   S    
C47   H25   S    
C48   H28   S    
C20   C26   S    
C43   H13   S    
C36   C38   A    
O12   C50   S    
C33   C35   A    
C34   C36   A    
C51   C52   S    
O9    C41   S    
C19   C25   S    
C55   H44   S    
Cu1   O8    S    
Cu2   O3    S    
C46   H18   S    
C55   H45   S    
C61   H65   S    
C62   H69   S    
C42   H9    S    
C13   C16   T    
C29   C37   A    
N7    H54   S    
C43   H12   S    
N10   H59   S    
N8    H55   S    
C50   C51   S    
C58   H51   S    
O11   C47   S    
N4    H6    S    
C25   N2    T    
Cu1   O5    S    
C12   O13   S    
Cu2   O6    S    
C19   C21   A    
