data_mof_unit_38842.cif
_audit_creation_date              2012-12-10T18:48:42-0500
_audit_creation_method            fapswitch 2.2
_symmetry_space_group_name_H-M    P1
_symmetry_Int_Tables_number       1
_space_group_crystal_system       triclinic
_cell_length_a                    15.796482
_cell_length_b                    14.700593
_cell_length_c                    10.019501
_cell_angle_alpha                 89.475208
_cell_angle_beta                  89.919618
_cell_angle_gamma                 89.150001
_cell_volume                      2326.34951674

loop_
_atom_site_label
_atom_site_type_symbol
_atom_type_description
_atom_site_fract_x
_atom_site_fract_y
_atom_site_fract_z
_atom_type_partial_charge
C1    C     C_R   0.125735 0.387202 0.501372 0.872672
C2    C     C_R   0.004748 0.419862 0.929904 0.195865
C3    C     C_R   0.002625 0.419694 0.073014 0.212187
C4    C     C_R   0.994957 0.580165 0.927352 0.212537
C5    C     C_R   0.495321 0.079639 0.070098 0.214957
C6    C     C_R   0.503302 0.919977 0.929868 0.208579
C7    C     C_R   0.501861 0.919824 0.072850 0.209654
C8    C     C_R   0.491125 0.079430 0.927830 0.207417
C9    C     C_R   0.765715 0.301377 0.376267 0.115829
C10   C     C_R   0.240710 0.700661 0.611777 0.112316
C11   C     C_R   0.224816 0.713289 0.369322 0.118284
C12   C     C_R   0.881502 0.621745 0.501244 0.869331
C13   C     C_R   0.769857 0.288151 0.619753 0.129807
C14   C     C_R   0.217690 0.281690 0.626267 0.110030
C15   C     C_R   0.825758 0.762762 0.403485 0.171896
C16   C     C_R   0.777446 0.719294 0.624742 0.102502
C17   C     C_R   0.268997 0.336888 0.412006 0.136312
C18   C     C_R   0.267602 0.796118 0.375390 0.155897
C19   C     C_R   0.692327 0.245853 0.608761 0.161079
C20   C     C_R   0.722160 0.219646 0.374045 0.107565
C21   C     C_R   0.316688 0.744953 0.593875 0.175284
C22   C     C_R   0.736625 0.803576 0.627161 0.131071
C23   C     C_R   0.877852 0.382455 0.500268 0.874973
C24   C     C_R   0.336963 0.275190 0.428953 0.142802
C25   C     C_R   0.258364 0.198655 0.607165 0.121682
C26   C     C_R   0.750604 0.811733 0.384840 0.094851
C27   C     C_R   0.196751 0.676329 0.493814 -0.223850
C28   C     C_R   0.804151 0.324085 0.499467 -0.202245
C29   C     C_R   0.824568 0.698847 0.507736 -0.156577
C30   C     C_R   0.204543 0.335026 0.510391 -0.177216
C31   C     C_R   0.678988 0.194930 0.493103 -0.192023
C32   C     C_R   0.318453 0.809378 0.490913 -0.177268
C33   C     C_R   0.321640 0.196023 0.506571 -0.153166
C34   C     C_R   0.122793 0.617280 0.498929 0.846828
C35   C     C_R   0.705045 0.835410 0.502877 -0.188858
C36   C     C_3   0.989600 0.669171 0.140310 -0.886021
C37   C     C_3   0.013822 0.329486 0.861279 -0.889432
C38   C     C_3   0.999883 0.328708 0.144939 -0.847465
C39   C     C_3   0.987107 0.671203 0.856475 -0.872017
C40   C     C_3   0.492176 0.169256 0.139036 -0.895063
C41   C     C_3   0.502172 0.829863 0.860779 -0.882797
C42   C     C_3   0.497169 0.829199 0.144047 -0.868702
C43   C     C_3   0.465879 0.166044 0.857328 -0.891616
C44   C     C_3   0.760666 0.364727 0.254606 -0.382191
C45   C     C_R   0.625124 0.886086 0.500220 0.869138
C46   C     C_3   0.722503 0.457673 0.290051 -0.824380
C47   C     C_3   0.204125 0.692017 0.751270 -0.351792
C48   C     C_3   0.239615 0.757541 0.854552 -0.935466
C49   C     C_3   0.218369 0.664319 0.235152 -0.369286
C50   C     C_3   0.303652 0.654466 0.164736 -0.951805
C51   C     C_3   0.819420 0.282700 0.749920 -0.340209
C52   C     C_3   0.788153 0.215629 0.856731 -0.940788
C53   C     C_3   0.231179 0.326960 0.761426 -0.396972
C54   C     C_3   0.317707 0.371428 0.768202 -0.897052
C55   C     C_3   0.908574 0.809294 0.370786 -0.394826
C56   C     C_R   0.380273 0.120392 0.500870 0.871274
C57   C     C_3   0.924523 0.889069 0.463546 -0.899092
C58   C     C_3   0.759595 0.652208 0.737708 -0.393850
C59   C     C_3   0.710060 0.571369 0.688342 -0.880658
C60   C     C_3   0.268298 0.403801 0.295769 -0.387350
C61   C     C_3   0.245646 0.356830 0.165880 -0.862453
C62   C     C_3   0.257858 0.864679 0.259925 -0.359090
C63   C     C_3   0.218198 0.954794 0.303487 -0.888194
C64   C     C_3   0.620388 0.267595 0.703249 -0.362320
C65   C     C_3   0.617393 0.365687 0.750655 -0.938113
C66   C     C_3   0.731758 0.159334 0.251683 -0.383995
C67   C     C_R   0.380289 0.880287 0.498442 0.867543
C68   C     C_3   0.780458 0.071643 0.285510 -0.851688
C69   C     C_3   0.397845 0.697282 0.638793 -0.385302
C70   C     C_3   0.412041 0.608666 0.563823 -0.926732
C71   C     C_3   0.734836 0.857804 0.756310 -0.387638
C72   C     C_3   0.769631 0.953498 0.738271 -0.832013
C73   C     C_3   0.426224 0.301154 0.386876 -0.411932
C74   C     C_3   0.458836 0.381824 0.465616 -0.932755
C75   C     C_3   0.235615 0.119976 0.700464 -0.392242
C76   C     C_3   0.201348 0.038579 0.626128 -0.884780
C77   C     C_3   0.713971 0.823263 0.245523 -0.343956
C78   C     C_R   0.618588 0.121464 0.498323 0.847345
C79   C     C_3   0.760796 0.775465 0.131720 -0.967353
C80   C     C_R   0.996175 0.579862 0.070173 0.208954
H1    H     H_    0.001143 0.661341 0.245404 0.297309
H2    H     H_    0.994936 0.668275 0.748842 0.289494
H3    H     H_    0.817777 0.813653 0.101817 0.256725
H4    H     H_    0.777326 0.704094 0.159517 0.275408
H5    H     H_    0.718458 0.773457 0.043511 0.242665
H6    H     H_    0.651757 0.790510 0.249916 0.223587
H7    H     H_    0.706075 0.896320 0.219341 0.237089
H8    H     H_    0.925161 0.703903 0.879215 0.216063
H9    H     H_    0.036698 0.717682 0.890697 0.212035
H10   H     H_    0.501358 0.161152 0.244454 0.295332
H11   H     H_    0.544396 0.213302 0.104286 0.205560
H12   H     H_    0.429851 0.202973 0.121193 0.231496
H13   H     H_    0.503427 0.837107 0.753874 0.295374
H14   H     H_    0.557870 0.787092 0.888559 0.206518
H15   H     H_    0.443508 0.793784 0.887595 0.220631
H16   H     H_    0.501815 0.832058 0.252024 0.293143
H17   H     H_    0.037608 0.717804 0.105323 0.203357
H18   H     H_    0.436341 0.797791 0.120694 0.212523
H19   H     H_    0.547940 0.782461 0.109630 0.215961
H20   H     H_    0.488248 0.164856 0.755687 0.287501
H21   H     H_    0.396233 0.174808 0.860756 0.234036
H22   H     H_    0.494312 0.227455 0.900183 0.221929
H23   H     H_    0.658124 0.449430 0.332633 0.241535
H24   H     H_    0.762106 0.493512 0.363354 0.265239
H25   H     H_    0.717625 0.500674 0.198591 0.240940
H26   H     H_    0.822631 0.372461 0.204885 0.236286
H27   H     H_    0.718147 0.336388 0.177630 0.183629
H28   H     H_    0.925779 0.698963 0.124933 0.233181
H29   H     H_    0.303242 0.735396 0.887859 0.257122
H30   H     H_    0.242106 0.827928 0.813462 0.273284
H31   H     H_    0.197727 0.758413 0.943531 0.249034
H32   H     H_    0.137288 0.713133 0.742780 0.226101
H33   H     H_    0.209567 0.620673 0.788248 0.229175
H34   H     H_    0.321754 0.720193 0.120774 0.257724
H35   H     H_    0.353280 0.629730 0.235080 0.267539
H36   H     H_    0.298744 0.605106 0.081823 0.261524
H37   H     H_    0.197761 0.594033 0.244503 0.247577
H38   H     H_    0.172478 0.699283 0.168732 0.196898
H39   H     H_    0.005056 0.333171 0.753845 0.295278
H40   H     H_    0.736365 0.246382 0.916782 0.256831
H41   H     H_    0.767428 0.151316 0.811027 0.273999
H42   H     H_    0.840251 0.198692 0.927296 0.242352
H43   H     H_    0.882972 0.256744 0.721396 0.206562
H44   H     H_    0.823904 0.351017 0.795580 0.237063
H45   H     H_    0.368798 0.320118 0.752795 0.268722
H46   H     H_    0.322424 0.425478 0.690784 0.266733
H47   H     H_    0.326452 0.402624 0.867646 0.249275
H48   H     H_    0.183768 0.380346 0.784264 0.251390
H49   H     H_    0.227520 0.276649 0.844353 0.189168
H50   H     H_    0.076666 0.298723 0.882855 0.213242
H51   H     H_    0.872005 0.939831 0.457503 0.270043
H52   H     H_    0.931020 0.864101 0.568040 0.260339
H53   H     H_    0.984250 0.922890 0.434320 0.248891
H54   H     H_    0.962808 0.762013 0.385140 0.201275
H55   H     H_    0.909299 0.834598 0.266489 0.222218
H56   H     H_    0.653029 0.594659 0.632082 0.255472
H57   H     H_    0.749685 0.526727 0.624173 0.266964
H58   H     H_    0.689332 0.531978 0.776816 0.253187
H59   H     H_    0.817386 0.628546 0.789785 0.243483
H60   H     H_    0.719510 0.684237 0.815944 0.187472
H61   H     H_    0.966042 0.281686 0.898989 0.224368
H62   H     H_    0.234811 0.408537 0.085974 0.247689
H63   H     H_    0.297804 0.310252 0.134580 0.246095
H64   H     H_    0.187391 0.316887 0.179265 0.270696
H65   H     H_    0.223295 0.459668 0.314478 0.220691
H66   H     H_    0.329752 0.437655 0.282179 0.209314
H67   H     H_    0.162503 0.942710 0.368728 0.253854
H68   H     H_    0.265206 0.996514 0.355515 0.279452
H69   H     H_    0.196782 0.994139 0.214254 0.247010
H70   H     H_    0.318366 0.876518 0.207499 0.237386
H71   H     H_    0.214991 0.838910 0.182166 0.196441
H72   H     H_    0.002202 0.332371 0.252915 0.296392
H73   H     H_    0.671351 0.379427 0.817530 0.272580
H74   H     H_    0.617879 0.412436 0.663052 0.275222
H75   H     H_    0.558029 0.378113 0.807585 0.252358
H76   H     H_    0.560582 0.259683 0.647459 0.202305
H77   H     H_    0.622653 0.220252 0.789484 0.233760
H78   H     H_    0.843417 0.087979 0.327561 0.250234
H79   H     H_    0.745584 0.029501 0.358870 0.261132
H80   H     H_    0.790428 0.031546 0.193303 0.244298
H81   H     H_    0.670282 0.144886 0.204433 0.236657
H82   H     H_    0.769574 0.193528 0.172919 0.187475
H83   H     H_    0.940344 0.293561 0.120261 0.202933
H84   H     H_    0.358116 0.562393 0.580230 0.263013
H85   H     H_    0.418894 0.622663 0.455312 0.259806
H86   H     H_    0.470854 0.574423 0.600344 0.260111
H87   H     H_    0.453768 0.739182 0.617226 0.202784
H88   H     H_    0.396365 0.681207 0.746677 0.218289
H89   H     H_    0.837529 0.950106 0.710349 0.246812
H90   H     H_    0.734416 0.992617 0.660714 0.270993
H91   H     H_    0.763912 0.990124 0.834306 0.239985
H92   H     H_    0.670966 0.861074 0.800457 0.236740
H93   H     H_    0.776000 0.824102 0.832328 0.187903
H94   H     H_    0.053915 0.284678 0.114703 0.212158
H95   H     H_    0.421188 0.444050 0.444855 0.267026
H96   H     H_    0.456613 0.367116 0.574113 0.273284
H97   H     H_    0.525532 0.394939 0.437301 0.258330
H98   H     H_    0.472282 0.246040 0.409127 0.206679
H99   H     H_    0.428667 0.317307 0.278792 0.221018
H100  H     H_    0.154245 0.060933 0.549953 0.257302
H101  H     H_    0.253920 0.000524 0.578881 0.263747
H102  H     H_    0.170121 0.991615 0.697669 0.248901
H103  H     H_    0.289630 0.098226 0.763730 0.236163
H104  H     H_    0.184573 0.141589 0.770320 0.192888
N1    N     N_R   1.000000 0.500000 0.857200 -0.124445
N2    N     N_R   0.000000 0.500000 0.142800 -0.121883
N3    N     N_R   0.500000 0.000000 0.857200 -0.118473
N4    N     N_R   0.500000 0.000000 0.142800 -0.121392
O1    O     O_R   0.091610 0.408380 0.614620 -0.631670
O2    O     O_R   0.408390 0.091620 0.385380 -0.627961
O3    O     O_R   0.408390 0.091620 0.614620 -0.621280
O4    O     O_R   0.591610 0.908380 0.385380 -0.645068
O5    O     O_R   0.408390 0.908380 0.385380 -0.618605
O6    O     O_R   0.591610 0.091620 0.614620 -0.636142
O7    O     O_R   0.591610 0.091620 0.385380 -0.627355
O8    O     O_R   0.408390 0.908380 0.614620 -0.621520
O9    O     O_R   0.908390 0.591620 0.385380 -0.624730
O10   O     O_R   0.908390 0.591620 0.614620 -0.616921
O11   O     O_R   0.091610 0.408380 0.385380 -0.622766
O12   O     O_R   0.908390 0.408380 0.385380 -0.612762
O13   O     O_R   0.091610 0.591620 0.614620 -0.635895
O14   O     O_R   0.091610 0.591620 0.385380 -0.652633
O15   O     O_R   0.908390 0.408380 0.614620 -0.639992
O16   O     O_R   0.591610 0.908380 0.614620 -0.618544
Zn1   Zn    Zn3+2 0.000000 0.500000 0.653120 0.910042
Zn2   Zn    Zn3+2 0.000000 0.500000 0.346880 0.914486
Zn3   Zn    Zn3+2 0.500000 0.000000 0.653120 0.915354
Zn4   Zn    Zn3+2 0.500000 0.000000 0.346880 0.911525

loop_
_geom_bond_atom_site_label_1
_geom_bond_atom_site_label_2
_ccdc_geom_bond_type
C10   C27   A    
C58   H59   S    
C66   C68   S    
C11   C18   A    
C17   C30   A    
C12   C29   S    
C36   H28   S    
C51   H43   S    
C73   C74   S    
C63   H68   S    
C57   H52   S    
C48   H30   S    
C8    C43   S    
C19   C31   A    
C43   H21   S    
C53   C54   S    
C22   C35   A    
C54   H46   S    
C62   C63   S    
C37   H61   S    
C42   H16   S    
C20   C66   S    
C4    C80   A    
C42   H18   S    
C79   H4    S    
C76   H102  S    
C24   C73   S    
C38   H94   S    
C59   H57   S    
C34   O13   A    
C47   H32   S    
C46   H25   S    
C59   H56   S    
C37   H50   S    
C66   H82   S    
C50   H35   S    
C78   O6    A    
C7    C42   S    
C38   H72   S    
C63   H69   S    
C65   H73   S    
C9    C20   A    
C13   C51   S    
C52   H42   S    
C61   H63   S    
C49   H37   S    
O7    Zn4   S    
C49   H38   S    
C3    C38   S    
O1    Zn1   S    
C79   H3    S    
C6    C41   S    
C64   H77   S    
C47   C48   S    
O12   Zn2   S    
C12   O9    A    
O16   Zn3   S    
C13   C28   A    
C36   H17   S    
C68   H79   S    
C19   C64   S    
C33   C56   S    
C48   H29   S    
C56   O3    A    
C75   H103  S    
C8    N3    A    
O5    Zn4   S    
O10   Zn1   S    
C51   H44   S    
O4    Zn4   S    
C57   H53   S    
O9    Zn2   S    
C1    O11   A    
C60   H66   S    
C39   H8    S    
C14   C30   A    
C68   H78   S    
C75   H104  S    
C40   H10   S    
C63   H67   S    
C21   C32   A    
C44   C46   S    
C15   C29   A    
C80   N2    A    
C77   C79   S    
C27   C34   S    
C54   H45   S    
C56   O2    A    
C26   C77   S    
C62   H71   S    
N2    Zn2   S    
C72   H90   S    
C51   C52   S    
C17   C24   A    
C72   H91   S    
N1    Zn1   S    
C7    N4    A    
C43   H20   S    
C2    N1    A    
C36   C80   S    
C70   H85   S    
C13   C19   A    
C18   C62   S    
C15   C26   A    
O3    Zn3   S    
C59   H58   S    
C16   C29   A    
C46   H24   S    
C6    N3    A    
O11   Zn2   S    
C71   H93   S    
C66   H81   S    
C21   C69   S    
C60   C61   S    
C50   H34   S    
C15   C55   S    
C4    N1    A    
C75   C76   S    
C69   H87   S    
C74   H96   S    
C65   H74   S    
O6    Zn3   S    
C53   H48   S    
O15   Zn1   S    
C52   H41   S    
C26   C35   A    
C61   H64   S    
C41   H14   S    
C37   H39   S    
C4    C39   S    
C11   C27   A    
C36   H1    S    
C14   C53   S    
C16   C58   S    
C23   C28   S    
C40   H12   S    
C32   C67   S    
O13   Zn1   S    
C73   H98   S    
C52   H40   S    
O2    Zn4   S    
C38   H83   S    
C77   H6    S    
C55   C57   S    
C18   C32   A    
C60   H65   S    
N3    Zn3   S    
C67   O8    A    
C35   C45   S    
C3    N2    A    
C22   C71   S    
C79   H5    S    
C31   C78   S    
C54   H47   S    
C44   H27   S    
C58   H60   S    
C47   H33   S    
C11   C49   S    
N4    Zn4   S    
C9    C44   S    
C16   C22   A    
C62   H70   S    
C57   H51   S    
C39   H2    S    
C76   H100  S    
C70   H84   S    
C10   C21   A    
C5    C8    A    
C6    C7    A    
C44   H26   S    
C55   H54   S    
C46   H23   S    
C64   H76   S    
C24   C33   A    
C41   H13   S    
C64   C65   S    
O8    Zn3   S    
C70   H86   S    
C2    C3    A    
C58   C59   S    
C43   H22   S    
C71   C72   S    
C65   H75   S    
C68   H80   S    
C45   O4    A    
C42   H19   S    
C72   H89   S    
C2    C37   S    
C41   H15   S    
C74   H97   S    
C34   O14   A    
C45   O16   A    
C55   H55   S    
C23   O12   A    
C1    C30   S    
C50   H36   S    
C78   O7    A    
C40   H11   S    
C69   C70   S    
C69   H88   S    
C17   C60   S    
C73   H99   S    
C61   H62   S    
C74   H95   S    
C48   H31   S    
C53   H49   S    
C14   C25   A    
C77   H7    S    
C49   C50   S    
O14   Zn2   S    
C5    C40   S    
C23   O15   A    
C10   C47   S    
C12   O10   A    
C71   H92   S    
C5    N4    A    
C25   C75   S    
C67   O5    A    
C39   H9    S    
C76   H101  S    
C9    C28   A    
C25   C33   A    
C20   C31   A    
C1    O1    A    
