data_mof_unit_34604.cif
_audit_creation_date              2012-12-10T16:52:16-0500
_audit_creation_method            fapswitch 2.2
_symmetry_space_group_name_H-M    P1
_symmetry_Int_Tables_number       1
_space_group_crystal_system       triclinic
_cell_length_a                    11.034305
_cell_length_b                    10.944249
_cell_length_c                    9.750028
_cell_angle_alpha                 89.397308
_cell_angle_beta                  102.911328
_cell_angle_gamma                 91.499721
_cell_volume                      1147.25930141

loop_
_atom_site_label
_atom_site_type_symbol
_atom_type_description
_atom_site_fract_x
_atom_site_fract_y
_atom_site_fract_z
_atom_type_partial_charge
C1    C     C_R   0.494761 0.265427 0.499114 0.845652
C2    C     C_2   0.517769 0.866279 0.499548 0.140725
C3    C     C_2   0.480021 0.064848 0.384317 0.402406
C4    C     C_2   0.475132 0.133622 0.496494 -0.396223
C5    C     C_2   0.402906 0.509072 0.899619 -0.182902
C6    C     C_2   0.404310 0.472100 0.049467 0.588940
C7    C     C_R   0.263026 0.504401 0.442707 0.774498
C8    C     C_R   0.501469 0.734280 0.499561 0.822453
C9    C     C_R   0.737156 0.499328 0.557377 0.817521
C10   C     C_2   0.129526 0.526705 0.412072 0.268407
C11   C     C_2   0.064033 0.487992 0.505345 -0.244018
C12   C     C_2   0.871896 0.488997 0.588319 -0.382781
C13   C     C_2   0.933585 0.518411 0.488965 -0.097690
C14   C     C_2   0.454716 0.932016 0.390029 0.259048
Cu1   Cu    Cu3+1 0.500020 0.500020 0.638640 0.936146
Cu2   Cu    Cu3+1 0.499980 0.499980 0.361360 1.011968
H1    H     H_    0.885425 0.560826 0.391323 0.199519
H2    H     H_    0.570323 0.448242 0.903368 0.251913
H3    H     H_    0.106727 0.430387 0.593766 0.129950
H4    H     H_    0.919238 0.449463 0.687844 0.160271
H5    H     H_    0.452569 0.091489 0.589452 0.162574
H6    H     H_    0.316178 0.538149 0.832687 0.158284
N1    N     N_2   0.498650 0.498660 0.846590 -0.281193
N2    N     N_2   0.498620 0.498630 0.152710 -0.030500
O1    O     O_R   0.500020 0.321960 0.617050 -0.594540
O2    O     O_R   0.499980 0.321920 0.382890 -0.507301
O3    O     O_R   0.320700 0.500020 0.574050 -0.607763
O4    O     O_R   0.320660 0.499980 0.339890 -0.528211
O5    O     O_R   0.500020 0.678080 0.617110 -0.551884
O6    O     O_R   0.499980 0.678040 0.382950 -0.628098
O7    O     O_R   0.679340 0.500020 0.660110 -0.581708
O8    O     O_R   0.679300 0.499980 0.425950 -0.572778
O9    O     O_3   0.295811 0.424797 0.080897 -0.592734
C15   C     C_3   0.252194 0.322386 0.994650 0.027665
H7    H     H_    0.326048 0.253142 0.005443 0.181023
H8    H     H_    0.221699 0.349256 0.882097 0.130174
C16   C     C_3   0.139948 0.263284 0.038236 -0.840905
H9    H     H_    0.059170 0.324169 0.012109 0.230608
H10   H     H_    0.112846 0.176842 0.979688 0.209775
H11   H     H_    0.162266 0.243325 0.152953 0.255758
O10   O     O_3   0.605859 0.535081 0.117847 -0.552282
C17   C     C_3   0.627248 0.660177 0.149191 0.193555
H12   H     H_    0.683672 0.671871 0.257772 0.160143
H13   H     H_    0.539637 0.709913 0.136634 0.117643
C18   C     C_3   0.698794 0.718239 0.047894 -0.883872
H14   H     H_    0.641576 0.714883 0.938660 0.278925
H15   H     H_    0.722509 0.815220 0.076937 0.200728
H16   H     H_    0.785623 0.668427 0.052466 0.256867
O11   O     O_3   0.082138 0.614510 0.312362 -0.598800
C19   C     C_3   0.046490 0.560536 0.178359 0.049023
H17   H     H_    0.948640 0.526096 0.161755 0.144150
H18   H     H_    0.105729 0.483197 0.165314 0.198542
C20   C     C_3   0.057331 0.657317 0.067396 -0.284376
H19   H     H_    0.000968 0.737457 0.079773 0.218185
H20   H     H_    0.155888 0.688433 0.083022 0.234146
C21   C     C_3   0.014130 0.607187 0.918871 -0.953586
H21   H     H_    0.073109 0.530490 0.902600 0.268860
H22   H     H_    0.022223 0.680014 0.841312 0.259842
H23   H     H_    0.915535 0.575096 0.900353 0.264583
O12   O     O_3   0.353953 0.878141 0.296304 -0.613303
C22   C     C_3   0.370675 0.881191 0.156662 0.119475
H24   H     H_    0.350248 0.787879 0.112991 0.138028
H25   H     H_    0.467206 0.905682 0.147719 0.133373
C23   C     C_3   0.278026 0.966701 0.066245 -0.332962
H26   H     H_    0.181566 0.932710 0.062737 0.210502
H27   H     H_    0.289239 0.058692 0.114060 0.259565
C24   C     C_3   0.298639 0.975382 0.916641 -0.920929
H28   H     H_    0.394975 0.008307 0.917993 0.266329
H29   H     H_    0.233259 0.041023 0.854138 0.247441
H30   H     H_    0.282400 0.884556 0.865013 0.265067
O13   O     O_3   0.601677 0.922245 0.609781 -0.638272
C25   C     C_3   0.724128 0.893661 0.602683 0.034645
H31   H     H_    0.738922 0.906543 0.493863 0.106810
H32   H     H_    0.743946 0.797437 0.636921 0.151821
C26   C     C_3   0.814403 0.979144 0.701261 -0.304680
H33   H     H_    0.788697 0.075546 0.674901 0.216212
H34   H     H_    0.807495 0.960828 0.811688 0.222436
C27   C     C_3   0.948237 0.962410 0.688703 -0.926122
H35   H     H_    0.976489 0.866804 0.713999 0.262901
H36   H     H_    0.010717 0.024441 0.763605 0.250642
H37   H     H_    0.958141 0.985165 0.580380 0.258961
O14   O     O_3   0.503444 0.116811 0.262357 -0.576250
C28   C     C_3   0.630819 0.104843 0.263870 0.076805
H38   H     H_    0.655491 0.006896 0.262981 0.097863
H39   H     H_    0.690376 0.149955 0.358157 0.149567
C29   C     C_3   0.658423 0.166264 0.133172 -0.768454
H40   H     H_    0.635956 0.264666 0.131753 0.268649
H41   H     H_    0.758493 0.157909 0.133117 0.193861
H42   H     H_    0.601848 0.121996 0.037153 0.233694

loop_
_geom_bond_atom_site_label_1
_geom_bond_atom_site_label_2
_ccdc_geom_bond_type
Cu2   O4    S    
C7    C10   S    
C15   C16   S    
O10   C17   S    
C18   H14   S    
C11   H3    S    
C8    O5    A    
C16   H11   S    
C5    C6    S    
C29   H41   S    
Cu1   O1    S    
Cu2   O6    S    
Cu1   Cu2   S    
C7    O3    A    
C21   H21   S    
C15   H7    S    
C18   H15   S    
C22   H25   S    
C9    O8    A    
C5    H6    S    
C19   H18   S    
Cu1   O5    S    
Cu1   N1    S    
Cu2   N2    S    
C1    O1    A    
N2    O10   S    
C17   H13   S    
C25   C26   S    
C9    C12   S    
O9    C15   S    
C20   H20   S    
Cu2   O2    S    
C19   C20   S    
C24   H28   S    
C23   C24   S    
C25   H32   S    
C27   H35   S    
C18   H16   S    
C20   H19   S    
C7    O4    A    
H2    N1    S    
O12   C22   S    
C24   H29   S    
C17   C18   S    
C23   H27   S    
C22   C23   S    
C26   H33   S    
C16   H9    S    
Cu1   O3    S    
C28   H38   S    
C5    N1    D    
C6    N2    D    
C12   H4    S    
C3    O14   S    
C19   H17   S    
C27   H36   S    
C26   H34   S    
C3    C14   S    
C28   H39   S    
O14   C28   S    
C1    O2    A    
C17   H12   S    
C3    C4    D    
C20   C21   S    
C29   H40   S    
C2    C8    S    
C25   H31   S    
C29   H42   S    
C21   H23   S    
Cu1   O7    S    
Cu2   O8    S    
C14   O12   S    
C6    O9    S    
C13   H1    S    
C1    C4    S    
C8    O6    A    
C23   H26   S    
C24   H30   S    
O13   C25   S    
C16   H10   S    
C4    H5    S    
C11   C13   S    
C27   H37   S    
C21   H22   S    
C15   H8    S    
C22   H24   S    
C2    C14   D    
C26   C27   S    
C10   C11   D    
C9    O7    A    
C28   C29   S    
C12   C13   D    
O11   C19   S    
C10   O11   S    
C2    O13   S    
