data_mof_unit_5040.cif
_audit_creation_date              2012-12-11T14:29:32-0500
_audit_creation_method            fapswitch 2.2
_symmetry_space_group_name_H-M    P1
_symmetry_Int_Tables_number       1
_space_group_crystal_system       triclinic
_cell_length_a                    6.934916
_cell_length_b                    14.734261
_cell_length_c                    16.285663
_cell_angle_alpha                 90.533323
_cell_angle_beta                  90.038463
_cell_angle_gamma                 89.661059
_cell_volume                      1663.98156729

loop_
_atom_site_label
_atom_site_type_symbol
_atom_type_description
_atom_site_fract_x
_atom_site_fract_y
_atom_site_fract_z
_atom_type_partial_charge
O1    O     O_R   0.494400 0.416610 0.413880 -0.546746
O2    O     O_R   0.823920 0.406790 0.585520 -0.543220
O3    O     O_R   0.994250 0.583390 0.586120 -0.537643
C1    C     C_R   0.654929 0.385041 0.613546 0.734468
O4    O     O_R   0.824110 0.405730 0.414490 -0.511271
O5    O     O_R   0.994440 0.582310 0.413870 -0.538784
C2    C     C_R   0.655847 0.383050 0.386611 0.761829
O6    O     O_R   0.494210 0.417690 0.586130 -0.547830
O7    O     O_3   0.660810 0.557940 0.500000 -0.372140
V1    V     V_3+5 0.935650 0.489250 0.500000 1.434565
O8    O     O_R   0.324160 0.593210 0.414480 -0.542192
C3    C     C_R   0.154452 0.615932 0.387689 0.722492
O9    O     O_R   0.323970 0.594270 0.585510 -0.539984
C4    C     C_R   0.154808 0.616423 0.613656 0.689948
V2    V     V_3+5 0.435660 0.510750 0.500000 1.414427
O10   O     O_3   0.160630 0.442060 0.500000 -0.368663
H1    H     H_    0.850828 0.898438 0.518259 0.111695
C5    C     C_R   0.299844 0.575847 0.776121 -0.141451
C6    C     C_R   0.368563 0.553492 0.853758 -0.119844
C7    C     C_R   0.354658 0.615733 0.918078 -0.126370
C8    C     C_R   0.272669 0.700991 0.905163 -0.134599
C9    C     C_R   0.204255 0.726313 0.826774 0.072826
C10   C     C_R   0.217260 0.662200 0.760849 0.069820
C11   C     C_R   0.119782 0.813025 0.814055 -0.187283
C12   C     C_R   0.046349 0.835041 0.735270 0.068889
C13   C     C_R   0.058432 0.770742 0.669396 0.069611
C14   C     C_R   0.144224 0.684279 0.682061 -0.184213
C15   C     C_R   0.963509 0.921333 0.720040 -0.141011
C16   C     C_R   0.892869 0.943348 0.642604 -0.126075
C17   C     C_R   0.904700 0.880732 0.578462 -0.123676
C18   C     C_R   0.987218 0.795575 0.591229 -0.132497
H2    H     H_    0.310878 0.524235 0.728693 0.109142
H3    H     H_    0.431331 0.487138 0.864215 0.114626
H4    H     H_    0.406371 0.597507 0.978458 0.108739
H5    H     H_    0.261329 0.746352 0.957434 0.101654
H6    H     H_    0.953403 0.973069 0.767406 0.108845
H7    H     H_    0.829764 0.009649 0.632215 0.117030
H8    H     H_    0.995789 0.749984 0.538908 0.103751
C19   C     C_2   0.994353 0.700283 0.275268 -0.116148
C20   C     C_2   0.144895 0.689058 0.326888 -0.279076
H9    H     H_    0.870384 0.656048 0.280810 0.128050
H10   H     H_    0.265522 0.735171 0.327053 0.172277
C21   C     C_2   0.982072 0.771979 0.211067 -0.173697
C22   C     C_2   0.135113 0.809855 0.173128 0.139923
H11   H     H_    0.837661 0.791361 0.191934 0.106975
C23   C     C_2   0.778828 0.207210 0.781057 -0.137716
C24   C     C_2   0.613550 0.179496 0.816508 -0.313076
H12   H     H_    0.914951 0.178719 0.801866 0.134962
H13   H     H_    0.475437 0.206311 0.797062 0.127002
C25   C     C_2   0.791378 0.275492 0.714048 -0.137596
C26   C     C_2   0.638542 0.317677 0.679980 -0.312574
H14   H     H_    0.935136 0.291172 0.692109 0.133282
H15   H     H_    0.493631 0.303227 0.700524 0.127450
C27   C     C_2   0.779141 0.205649 0.214614 -0.205810
C28   C     C_2   0.613128 0.180981 0.177835 -0.355547
H16   H     H_    0.912913 0.174841 0.193195 0.148501
H17   H     H_    0.475915 0.209552 0.196756 0.128727
C29   C     C_2   0.798082 0.272384 0.283917 0.314441
C30   C     C_2   0.643728 0.314032 0.319852 -0.340389
H18   H     H_    0.498948 0.298436 0.299693 0.097079
O11   O     O_R   0.770210 0.079270 0.910680 -0.541038
O12   O     O_R   0.440150 0.091160 0.082270 -0.546903
O13   O     O_R   0.269970 0.914530 0.082860 -0.538692
C31   C     C_R   0.608362 0.113079 0.110567 0.762111
O14   O     O_R   0.440480 0.090100 0.911240 -0.545499
O15   O     O_R   0.270310 0.913460 0.910610 -0.535387
C32   C     C_R   0.608886 0.111727 0.883049 0.745577
O16   O     O_R   0.769870 0.080340 0.082930 -0.538693
O17   O     O_3   0.603660 0.938980 0.996790 -0.369100
V3    V     V_3+5 0.328750 0.007610 0.996740 1.401399
O18   O     O_R   0.940600 0.902510 0.911180 -0.538047
C33   C     C_R   0.109618 0.880844 0.882625 0.698008
O19   O     O_R   0.940270 0.903570 0.082200 -0.550537
C34   C     C_R   0.110982 0.881043 0.109666 0.661703
V4    V     V_3+5 0.828770 0.986010 0.996670 1.408083
O20   O     O_3   0.103730 0.054750 0.996710 -0.372552
N1    N     N_2   0.326731 0.780933 0.192277 -0.515418
H19   H     H_    0.425577 0.832719 0.197363 0.254968
C35   C     C_3   0.397929 0.705262 0.143796 -0.547108
H20   H     H_    0.532067 0.678466 0.172119 0.187574
H21   H     H_    0.432052 0.727973 0.080771 0.186304
H22   H     H_    0.290323 0.649693 0.141412 0.208380
N2    N     N_2   0.988791 0.291780 0.311485 -0.490421
H23   H     H_    0.086557 0.297783 0.264149 0.234862
C36   C     C_3   0.058561 0.231238 0.374476 -0.507056
H24   H     H_    0.201799 0.254520 0.396384 0.190672
H25   H     H_    0.073555 0.161097 0.349464 0.165905
H26   H     H_    0.958259 0.231100 0.427668 0.195000

loop_
_geom_bond_atom_site_label_1
_geom_bond_atom_site_label_2
_ccdc_geom_bond_type
O19   C34   A    
C6    C7    A    
C1    O6    A    
C19   H9    S    
N1    H19   S    
O11   V4    S    
O16   V4    S    
C13   C14   A    
C31   O16   A    
C22   N1    S    
O5    C3    A    
C17   C18   A    
O14   V3    S    
O12   V3    S    
C5    C6    A    
C2    C30   S    
O12   C31   A    
C27   C28   D    
O8    V2    S    
O15   C33   A    
O14   C32   A    
C25   H14   S    
O1    V2    S    
C10   C14   A    
C4    C14   S    
O7    V1    S    
C7    H4    S    
C20   H10   S    
C30   H18   S    
O9    C4    A    
H1    C17   S    
O19   V4    S    
C24   C32   S    
C23   H12   S    
N1    C35   S    
C27   H16   S    
C36   H25   S    
C5    C10   A    
C11   C12   A    
C24   H13   S    
C6    H3    S    
C19   C20   D    
C35   H21   S    
C19   C21   S    
C1    C26   S    
C29   C30   D    
C36   H24   S    
C26   H15   S    
C3    C20   S    
O2    C1    A    
V4    O20   S    
C16   C17   A    
O11   C32   A    
N2    H23   S    
O13   V3    S    
C28   C31   S    
C25   C26   D    
C22   C34   S    
C21   H11   S    
O3    C4    A    
N2    C36   S    
O6    V2    S    
C28   H17   S    
C21   C22   D    
V3    O20   S    
C9    C11   A    
C5    H2    S    
O2    V1    S    
C11   C33   S    
O4    C2    A    
C27   C29   S    
C36   H26   S    
C23   C24   D    
C15   C16   A    
O1    C2    A    
O5    V1    S    
C35   H22   S    
O8    C3    A    
C8    H5    S    
O13   C34   A    
C23   C25   S    
C18   H8    S    
O9    V2    S    
C12   C13   A    
O4    V1    S    
O3    V1    S    
V1    O10   S    
C29   N2    S    
O18   V4    S    
O15   V3    S    
O17   V4    S    
O7    V2    S    
O17   V3    S    
C12   C15   A    
C35   H20   S    
C13   C18   A    
O18   C33   A    
C7    C8    A    
C15   H6    S    
C16   H7    S    
C9    C10   A    
C8    C9    A    
V2    O10   S    
