data_mof_unit_67291.cif
_audit_creation_date              2013-03-05T16:02:14-0500
_audit_creation_method            fapswitch 2.2
_symmetry_space_group_name_H-M    P1
_symmetry_Int_Tables_number       1
_space_group_crystal_system       triclinic
_cell_length_a                    8.538243
_cell_length_b                    14.72392
_cell_length_c                    15.221255
_cell_angle_alpha                 96.939967
_cell_angle_beta                  96.661507
_cell_angle_gamma                 93.438975
_cell_volume                      1881.3955517

loop_
_atom_site_label
_atom_site_type_symbol
_atom_site_description
_atom_site_fract_x
_atom_site_fract_y
_atom_site_fract_z
_atom_type_partial_charge
P1    P     P_3+3 0.018600 0.416790 0.295970 0.619498
O1    O     O_2   0.841230 0.444160 0.280430 -0.381015
O2    O     O_3   0.112860 0.447350 0.393710 -0.309140
O3    O     O_3   0.597940 0.615700 0.327690 -0.303050
O4    O     O_2   0.670081 0.539223 0.174918 -0.330925
O5    O     O_3   0.002595 0.296929 0.261707 -0.523150
O6    O     O_3   0.620474 0.710943 0.178629 -0.623807
C1    C     C_3   0.534453 0.843613 0.114574 0.816974
H1    H     H_    0.560635 0.809484 0.049180 -0.041439
P2    P     P_3+3 0.635660 0.716530 0.560900 0.606750
P3    P     P_3+3 0.057366 0.782168 0.375427 0.617842
O7    O     O_2   0.802240 0.729740 0.532850 -0.229653
O8    O     O_3   0.017180 0.664790 0.371080 -0.389142
O9    O     O_2   0.935513 0.826638 0.430484 -0.253830
O10   O     O_3   0.679486 0.760937 0.674741 -0.539548
O11   O     O_3   0.995641 0.814627 0.271384 -0.435671
C2    C     C_3   0.047788 0.755916 0.203145 0.098164
H2    H     H_    0.993019 0.685015 0.201050 0.085059
H3    H     H_    0.177978 0.755180 0.213593 0.076213
C3    C     C_3   0.994479 0.791641 0.114279 0.345161
H4    H     H_    0.863753 0.790467 0.107129 0.059725
C4    C     C_3   0.229426 0.755146 0.677732 0.868052
H5    H     H_    0.350395 0.741192 0.663763 -0.108990
C5    C     C_3   0.224561 0.855213 0.719591 0.830934
H6    H     H_    0.102311 0.874606 0.716481 0.092470
Ba1   Ba    Ba6+2 0.833400 0.543310 0.453520 1.821941
C6    C     C_3   0.940345 0.243441 0.321776 0.431657
H7    H     H_    0.844042 0.276837 0.352717 -0.100553
C7    C     C_3   0.875520 0.149651 0.269506 0.792216
H8    H     H_    0.780940 0.161676 0.218657 0.031940
C8    C     C_3   0.656584 0.698337 0.734111 0.482601
H9    H     H_    0.546001 0.657261 0.713542 0.062782
C9    C     C_3   0.654309 0.750878 0.827493 0.543280
H10   H     H_    0.759667 0.800618 0.845540 0.142587
H11   H     H_    0.655316 0.702467 0.878081 0.074385
P4    P     P_3+3 0.171090 0.583290 0.704030 0.672894
O12   O     O_2   0.348480 0.555870 0.719620 -0.400358
O13   O     O_3   0.076830 0.552730 0.606300 -0.299714
O14   O     O_3   0.591760 0.384380 0.672320 -0.368050
O15   O     O_3   0.182075 0.701021 0.739915 -0.483174
P5    P     P_3+3 0.141525 0.216533 0.623045 0.673320
O16   O     O_3   0.629090 0.386350 0.459240 -0.262101
O17   O     O_3   0.172520 0.335290 0.628920 -0.340447
O18   O     O_2   0.279968 0.170734 0.582530 -0.351876
O19   O     O_3   0.154424 0.188916 0.731835 -0.423311
Ba2   Ba    Ba6+2 0.356420 0.456770 0.546480 1.850928
P6    P     P_3+3 0.553899 0.606646 0.211341 0.568613
C10   C     C_3   0.495719 0.769190 0.172908 0.897695
H12   H     H_    0.384258 0.732070 0.139865 -0.159954
O20   O     O_3   0.560610 0.613730 0.540770 -0.385550
C11   C     C_3   0.527618 0.279277 0.265883 0.407122
H13   H     H_    0.648671 0.302397 0.255468 0.014440
C12   C     C_3   0.439240 0.232379 0.173821 0.404035
P7    P     P_3+3 0.561087 0.267598 0.441507 0.607542
O21   O     O_2   0.387460 0.270290 0.467210 -0.250631
O22   O     O_3   0.535728 0.217438 0.329252 -0.591829
C13   C     C_3   0.204252 0.268114 0.791171 0.358453
H14   H     H_    0.327543 0.287791 0.783310 0.115043
H15   H     H_    0.138978 0.328203 0.777070 0.021482
C14   C     C_3   0.184898 0.255254 0.887885 0.281878
H16   H     H_    0.087748 0.296620 0.909034 0.025871
P8    P     P_3+3 0.642095 0.391993 0.788360 0.601163
C15   C     C_3   0.633353 0.211265 0.755225 0.394403
O23   O     O_2   0.519814 0.452971 0.828321 -0.345294
O24   O     O_3   0.598126 0.282245 0.819778 -0.472115
H17   H     H_    0.579560 0.221700 0.687456 0.023335
H18   H     H_    0.604960 0.064766 0.722664 0.049082
C16   C     C_3   0.563419 0.116774 0.771675 0.762862
C17   C     C_R   0.849313 0.440912 0.834660 0.301116
C18   C     C_R   0.911853 0.451508 0.927175 -0.268984
C19   C     C_R   0.043437 0.468673 0.113136 -0.117487
C20   C     C_R   0.896184 0.422440 0.081991 -0.159132
C21   C     C_R   0.829501 0.416798 0.993015 0.836778
C22   C     C_R   0.107802 0.478117 0.206309 0.294437
H19   H     H_    0.827810 0.390695 0.126536 0.222669
C23   C     C_R   0.253167 0.529064 0.231435 -0.397922
C24   C     C_R   0.089625 0.520810 0.796312 0.299443
C25   C     C_R   0.152209 0.534271 0.890414 -0.157349
C26   C     C_R   0.065495 0.495964 0.954899 -0.044178
C27   C     C_R   0.298797 0.583197 0.923700 0.900966
C28   C     C_R   0.364914 0.586045 0.012610 -0.219637
C29   C     C_R   0.281998 0.550217 0.076714 -0.030120
C30   C     C_R   0.129611 0.505786 0.048482 0.100986
C31   C     C_R   0.345433 0.560106 0.168630 0.211092
C32   C     C_R   0.946765 0.466892 0.772143 -0.334246
H20   H     H_    0.481091 0.620846 0.031084 0.144556
H21   H     H_    0.299993 0.539956 0.301273 0.172253
H22   H     H_    0.905247 0.448869 0.702109 0.222662
C33   C     C_R   0.707191 0.947091 0.552357 0.408886
C34   C     C_R   0.519078 0.802334 0.502032 0.202424
C35   C     C_R   0.368016 0.768436 0.459168 -0.373082
C36   C     C_R   0.260540 0.826312 0.422942 0.248967
C37   C     C_R   0.305342 0.918667 0.423699 -0.065710
C38   C     C_R   0.454558 0.956412 0.464054 0.061855
C39   C     C_R   0.563616 0.900276 0.506521 -0.081726
H23   H     H_    0.330482 0.696632 0.457469 0.141493
C40   C     C_R   0.636602 0.094889 0.504611 -0.113714
C41   C     C_R   0.747894 0.040083 0.543917 -0.086041
C42   C     C_R   0.678695 0.190738 0.505174 -0.044688
C43   C     C_R   0.830981 0.227014 0.540561 0.456683
C44   C     C_R   0.945030 0.169936 0.569595 0.193721
C45   C     C_R   0.902065 0.078983 0.574335 -0.166403
C46   C     C_R   0.490140 0.051640 0.465416 0.081683
H24   H     H_    0.221122 0.961937 0.394038 0.195151
H25   H     H_    0.991662 0.040418 0.604573 0.249144
H26   H     H_    0.403524 0.091410 0.433595 0.200454
F1    F     F_    0.472486 0.808520 0.257369 -0.680951
F2    F     F_    0.276079 0.867597 0.809960 -0.512790
N1    N     N_R   0.320510 0.915628 0.675418 0.196502
O25   O     O_R   0.472899 0.912669 0.686104 -0.389119
O26   O     O_R   0.255978 0.973032 0.626420 -0.386447
N2    N     N_R   0.064111 0.231182 0.391589 0.210811
O27   O     O_R   0.100598 0.297341 0.455955 -0.296469
O28   O     O_R   0.153506 0.162933 0.383771 -0.341208
N3    N     N_R   0.812337 0.086699 0.325894 0.183820
O29   O     O_R   0.907767 0.039988 0.372502 -0.339419
O30   O     O_R   0.663307 0.058728 0.310604 -0.332350
F3    F     F_    0.989800 0.108482 0.224894 -0.521353
N4    N     N_R   0.785844 0.640293 0.736602 0.159747
O31   O     O_R   0.907275 0.662958 0.796665 -0.435621
O32   O     O_R   0.797929 0.583248 0.666261 -0.385476
N5    N     N_R   0.669925 0.905972 0.154876 0.226052
O33   O     O_R   0.740289 0.899012 0.233897 -0.259110
O34   O     O_R   0.726130 0.966805 0.109313 -0.235392
F4    F     F_    0.522407 0.798688 0.830694 -0.566650
F5    F     F_    0.405073 0.893997 0.099013 -0.556240
N6    N     N_R   0.448865 0.359098 0.296378 0.212658
O35   O     O_R   0.312589 0.347154 0.323145 -0.353483
O36   O     O_R   0.523856 0.439533 0.309871 -0.357989
N7    N     N_R   0.311267 0.162831 0.183352 0.293917
O37   O     O_R   0.205463 0.136489 0.114901 -0.150660
O38   O     O_R   0.334418 0.104937 0.240858 -0.212254
N8    N     N_R   0.373051 0.305702 0.127284 0.222369
O39   O     O_R   0.221053 0.310209 0.110751 -0.378768
O40   O     O_R   0.466457 0.375647 0.116723 -0.323373
N9    N     N_R   0.551581 0.187943 0.119570 0.225093
O41   O     O_R   0.670244 0.236086 0.097371 -0.322134
O42   O     O_R   0.525120 0.102381 0.084976 -0.173797
N10   N     N_R   0.037738 0.731411 0.039074 0.187050
O43   O     O_R   0.929374 0.673907 0.992091 -0.444996
O44   O     O_R   0.167497 0.750546 0.005746 -0.318479
N11   N     N_R   0.329742 0.292326 0.942213 0.249606
O45   O     O_R   0.443546 0.239271 0.955647 -0.208791
O46   O     O_R   0.362943 0.380392 0.951065 -0.355855
N12   N     N_R   0.146144 0.160064 0.902427 0.309076
O47   O     O_R   0.238064 0.095360 0.882716 -0.158122
O48   O     O_R   0.027921 0.141872 0.945724 -0.196492
N13   N     N_R   0.803266 0.209043 0.755772 0.167816
O49   O     O_R   0.878193 0.275286 0.726175 -0.514171
O50   O     O_R   0.875498 0.135950 0.770382 -0.377776
F6    F     F_    0.402503 0.111147 0.753923 -0.622246
N14   N     N_R   0.609378 0.093450 0.861528 0.288994
O51   O     O_R   0.704272 0.148250 0.920515 -0.209228
O52   O     O_R   0.561645 0.013706 0.881262 -0.145265
F7    F     F_    0.682584 0.375573 0.973470 -0.562227
F8    F     F_    0.379891 0.632852 0.872926 -0.669803
F9    F     F_    0.867583 0.318851 0.548387 -0.644785
N15   N     N_R   0.807983 0.906560 0.615228 0.241210
O53   O     O_R   0.802013 0.931894 0.699627 -0.320778
O54   O     O_R   0.941422 0.881937 0.591549 -0.381659
N16   N     N_R   0.056971 0.886410 0.111901 0.313934
O55   O     O_R   0.143529 0.933221 0.180397 -0.185381
O56   O     O_R   0.020857 0.925814 0.040942 -0.172646
F10   F     F_    0.127537 0.738697 0.599042 -0.701971

loop_
_geom_bond_atom_site_label_1
_geom_bond_atom_site_label_2
_geom_bond_distance
_ccdc_geom_bond_type
C15   O24   1.416438 S    
C37   C38   1.400121 A    
C6    C7    1.545005 S    
P3    O8    1.733485 S    
C23   C31   1.407306 A    
N2    O28   1.300291 A    
C28   C29   1.404064 A    
C13   H14   1.098830 S    
C33   N15   1.421670 S    
C8    H9    1.082788 S    
C24   C25   1.455187 A    
O4    P6    1.545853 D    
O19   C13   1.397614 S    
C44   C45   1.379764 A    
C22   C23   1.399395 A    
P1    C22   1.927284 S    
C3    N10   1.457855 S    
P4    O12   1.589479 D    
N13   O50   1.301418 A    
C11   O22   1.403018 S    
P2    O10   1.765374 S    
Ba1   O20   2.989706 S    
N12   O47   1.299567 A    
C27   C28   1.399331 A    
P3    O9    1.537834 D    
C25   C27   1.413740 A    
C13   H15   1.103063 S    
C10   F1    1.385831 S    
N3    O29   1.300486 A    
C40   C41   1.410263 A    
C2    C3    1.539907 S    
C45   H25   1.073805 S    
C2    H2    1.113303 S    
P1    O1    1.589022 D    
O16   Ba2   2.988759 S    
C36   C37   1.388658 A    
P8    O23   1.547253 D    
C14   N11   1.443569 S    
C35   H23   1.082555 S    
P7    O21   1.578044 D    
C43   F9    1.357224 S    
C42   C43   1.396689 A    
C1    H1    1.112424 S    
N3    O30   1.299299 A    
Ba2   O21   2.902747 S    
C8    C9    1.536773 S    
P4    Ba2   3.446688 S    
C5    F2    1.381368 S    
C28   H20   1.079386 S    
C20   C21   1.397674 A    
P2    Ba1   3.489465 S    
C7    N3    1.458262 S    
C15   H17   1.111510 S    
C24   C32   1.400920 A    
N15   O54   1.293311 A    
P5    O17   1.742617 S    
C17   C18   1.433504 A    
C12   N9    1.469185 S    
C20   H19   1.074576 S    
P3    C36   1.847956 S    
C37   H24   1.084423 S    
N2    O27   1.291499 A    
N16   O56   1.301505 A    
C27   F8    1.345806 S    
C19   C30   1.434641 A    
N4    O32   1.296607 A    
P7    O22   1.761223 S    
N12   O48   1.299829 A    
H18   C16   1.106637 S    
P4    O15   1.746948 S    
C12   N8    1.466909 S    
C5    H6    1.095828 S    
N9    O42   1.301296 A    
C40   C42   1.434033 A    
C35   C36   1.400829 A    
C25   C26   1.442917 A    
O11   C2    1.400312 S    
C13   C14   1.533085 S    
C41   C45   1.406865 A    
C11   H13   1.103701 S    
P8    C17   1.892344 S    
O7    Ba1   2.902571 S    
C14   H16   1.112585 S    
P1    O2    1.606398 S    
O6    P6    1.753576 S    
C33   C39   1.431312 A    
N7    O38   1.300872 A    
C1    C10   1.535690 S    
N6    O36   1.294024 A    
C7    H8    1.089860 S    
C16   N14   1.465477 S    
N8    O39   1.300234 A    
C4    F10   1.383106 S    
P3    O11   1.741725 S    
O5    C6    1.405448 S    
N4    O31   1.298856 A    
C4    O15   1.388105 S    
C21   F7    1.344969 S    
C18   C21   1.415656 A    
C9    F4    1.365952 S    
C9    H10   1.111790 S    
O1    Ba1   2.863595 S    
P6    C31   1.880938 S    
N13   O49   1.289086 A    
C23   H21   1.080782 S    
C8    N4    1.435665 S    
C40   C46   1.401722 A    
P2    O7    1.539749 D    
O14   Ba2   2.949573 S    
C1    F5    1.380879 S    
C10   H12   1.103401 S    
N14   O52   1.300456 A    
C6    N2    1.444711 S    
C29   C31   1.427404 A    
P1    Ba1   3.446055 S    
P5    O18   1.548090 D    
N11   O46   1.297964 A    
O8    Ba1   2.810463 S    
C14   N12   1.469422 S    
N5    O34   1.299737 A    
N6    O35   1.285900 A    
P2    O20   1.587940 S    
C15   N13   1.452172 S    
C6    H7    1.105479 S    
C17   C32   1.406296 A    
Ba1   O16   2.826996 S    
C32   H22   1.079404 S    
O14   P8    1.757059 S    
C15   C16   1.540812 S    
P8    O24   1.771003 S    
C18   C26   1.424514 A    
C4    H5    1.104581 S    
O2    Ba1   3.019299 S    
Ba1   O13   2.917754 S    
C5    N1    1.448944 S    
N9    O41   1.301654 A    
C34   C39   1.460572 A    
C38   C46   1.413901 A    
C19   C22   1.447418 A    
O3    Ba1   2.950125 S    
N10   O43   1.300213 A    
O10   C8    1.387490 S    
C7    F3    1.380526 S    
Ba2   O20   2.826380 S    
O2    Ba2   2.918331 S    
C33   C41   1.416952 A    
P4    C24   1.940453 S    
C11   N6    1.443694 S    
O6    C10   1.408486 S    
N1    O26   1.298880 A    
N7    O37   1.301555 A    
O12   Ba2   2.864104 S    
C19   C20   1.396401 A    
C16   F6    1.364694 S    
N16   O55   1.301822 A    
N1    O25   1.296419 A    
O16   P7    1.787463 S    
C26   C30   1.452395 A    
N10   O44   1.300642 A    
C1    N5    1.459164 S    
C34   C35   1.409686 A    
N15   O53   1.301455 A    
C3    N16   1.469848 S    
P4    O13   1.606270 S    
C43   C44   1.392103 A    
C9    H11   1.110376 S    
P5    C44   1.832408 S    
C46   H26   1.077867 S    
C4    C5    1.537901 S    
C38   C39   1.431746 A    
P7    C42   1.844930 S    
O17   Ba2   2.811048 S    
O13   Ba2   3.020298 S    
Ba1   Ba2   4.621869 S    
C2    H3    1.105395 S    
N14   O51   1.300523 A    
P2    C34   1.899296 S    
C3    H4    1.107714 S    
C29   C30   1.416250 A    
P1    O5    1.771262 S    
N8    O40   1.301425 A    
P5    O19   1.745096 S    
N11   O45   1.296067 A    
C12   N7    1.483912 S    
C11   C12   1.571059 S    
N5    O33   1.299112 A    
O3    P6    1.754415 S    
