data_mof_unit_35212.cif
_audit_creation_date              2012-12-10T17:28:37-0500
_audit_creation_method            fapswitch 2.2
_symmetry_space_group_name_H-M    P1
_symmetry_Int_Tables_number       1
_space_group_crystal_system       triclinic
_cell_length_a                    10.615807
_cell_length_b                    11.961213
_cell_length_c                    12.790667
_cell_angle_alpha                 93.652536
_cell_angle_beta                  89.849851
_cell_angle_gamma                 87.432303
_cell_volume                      1619.18160683

loop_
_atom_site_label
_atom_site_type_symbol
_atom_type_description
_atom_site_fract_x
_atom_site_fract_y
_atom_site_fract_z
_atom_type_partial_charge
C1    C     C_R   0.496116 0.522328 0.700071 0.937792
C2    C     C_R   0.584711 0.529675 0.128348 -0.078190
C3    C     C_R   0.473261 0.456484 0.974823 0.069880
C4    C     C_R   0.573502 0.519775 0.018634 0.025647
C5    C     C_R   0.443593 0.945379 0.369271 0.087926
C6    C     C_R   0.555735 0.054706 0.630871 0.075210
C7    C     C_R   0.440641 0.831084 0.387219 0.050796
C8    C     C_R   0.559394 0.168906 0.612764 0.058949
C9    C     C_R   0.513797 0.862835 0.560878 -0.084715
C10   C     C_R   0.485180 0.137292 0.439385 -0.084454
C11   C     C_R   0.516834 0.979252 0.548983 0.011179
C12   C     C_R   0.505721 0.477493 0.299555 0.924916
C13   C     C_R   0.481798 0.020922 0.451348 0.017276
C14   C     C_R   0.738814 0.504475 0.515927 0.909661
C15   C     C_R   0.259628 0.496114 0.488298 0.908573
C16   C     C_R   0.892996 0.336796 0.624609 -0.233841
C17   C     C_R   0.100951 0.668991 0.391527 -0.212060
C18   C     C_R   0.957603 0.233882 0.639397 0.002611
C19   C     C_R   0.038188 0.774212 0.383680 -0.007335
C20   C     C_R   0.071145 0.207583 0.583207 0.154084
C21   C     C_R   0.927436 0.799550 0.443948 0.125314
C22   C     C_R   0.119307 0.287647 0.520254 -0.090993
C23   C     C_R   0.512549 0.460782 0.187692 -0.096252
C24   C     C_R   0.878934 0.716210 0.502873 -0.136119
C25   C     C_R   0.063338 0.397173 0.518394 0.073284
C26   C     C_R   0.934288 0.606331 0.499128 0.066844
C27   C     C_R   0.942500 0.415983 0.560139 0.067992
C28   C     C_R   0.053788 0.587776 0.455215 0.073973
C29   C     C_R   0.123625 0.488709 0.476694 -0.211608
C30   C     C_R   0.873039 0.513707 0.536105 -0.210559
C31   C     C_3   0.853804 0.910181 0.441378 -0.766541
C32   C     C_3   0.147305 0.099184 0.593266 -0.744573
C33   C     C_3   0.410003 0.983549 0.262341 -0.810755
C34   C     C_R   0.508579 0.535941 0.810527 -0.141972
C35   C     C_3   0.590204 0.016390 0.737534 -0.800887
C36   C     C_2   0.903778 0.157490 0.713749 0.915965
C37   C     C_2   0.090837 0.854024 0.312002 0.916606
C38   C     C_2   0.659755 0.618343 0.182045 0.945108
C39   C     C_2   0.298088 0.455332 0.841864 0.905264
C40   C     C_2   0.784016 0.605966 0.978692 0.937102
C41   C     C_2   0.351456 0.277859 0.984959 0.976210
C42   C     C_R   0.654110 0.574003 0.951024 -0.000475
C43   C     C_R   0.419127 0.374321 0.033676 -0.081213
C44   C     C_R   0.618970 0.582286 0.847593 -0.262944
C45   C     C_R   0.440248 0.377664 0.140397 -0.291925
C46   C     C_R   0.430605 0.477707 0.874132 -0.081491
H1    H     H_    0.804479 0.356568 0.665583 0.170739
H2    H     H_    0.411945 0.772310 0.325141 0.168388
H3    H     H_    0.827440 0.926045 0.359516 0.260422
H4    H     H_    0.765412 0.911013 0.487770 0.219781
H5    H     H_    0.909823 0.979320 0.475283 0.277980
H6    H     H_    0.094875 0.027127 0.560579 0.269043
H7    H     H_    0.238283 0.098053 0.550169 0.217050
H8    H     H_    0.169674 0.088354 0.676862 0.271336
H9    H     H_    0.384675 0.912481 0.207467 0.283244
H10   H     H_    0.328473 0.044970 0.268551 0.228888
H11   H     H_    0.491865 0.023381 0.228334 0.249175
H12   H     H_    0.186517 0.649682 0.346326 0.177151
H13   H     H_    0.615639 0.087389 0.792410 0.285955
H14   H     H_    0.508715 0.976338 0.771885 0.257301
H15   H     H_    0.671932 0.955179 0.730692 0.230988
H16   H     H_    0.891589 0.000461 0.761027 0.359677
H17   H     H_    0.105159 0.013852 0.272754 0.354260
H18   H     H_    0.793465 0.657005 0.288013 0.351094
H19   H     H_    0.114785 0.457850 0.884832 0.368351
H20   H     H_    0.922560 0.713550 0.961702 0.366895
H21   H     H_    0.211131 0.288811 0.093246 0.315443
H22   H     H_    0.199636 0.261951 0.471065 0.156703
H23   H     H_    0.797487 0.738124 0.552236 0.165244
H24   H     H_    0.395660 0.318480 0.187845 0.149248
H25   H     H_    0.682207 0.618326 0.793310 0.164240
H26   H     H_    0.455426 0.173145 0.367559 0.150357
H27   H     H_    0.543488 0.827014 0.632731 0.157608
H28   H     H_    0.588698 0.227610 0.674681 0.169550
N1    N     N_R   0.523130 0.207800 0.519340 -0.128743
N2    N     N_R   0.476870 0.792200 0.480660 -0.129539
O1    O     O_R   0.506170 0.421700 0.658830 -0.602459
O2    O     O_R   0.931617 0.041967 0.703765 -0.816753
O3    O     O_2   0.156830 0.818153 0.237671 -0.630115
O4    O     O_R   0.066713 0.969618 0.328807 -0.818797
O5    O     O_2   0.643448 0.716052 0.160320 -0.625850
O6    O     O_R   0.747896 0.589713 0.257946 -0.761937
O7    O     O_2   0.273950 0.420389 0.752586 -0.600646
O8    O     O_R   0.200286 0.475875 0.915039 -0.781729
O9    O     O_2   0.850429 0.546357 0.032351 -0.590162
O10   O     O_R   0.832543 0.701474 0.938846 -0.782518
O11   O     O_2   0.391789 0.230096 0.903636 -0.580851
O12   O     O_R   0.493830 0.578300 0.341170 -0.633940
O13   O     O_R   0.243408 0.239040 0.030995 -0.738885
O14   O     O_R   0.491330 0.609310 0.646410 -0.631304
O15   O     O_R   0.508670 0.390690 0.353590 -0.624347
O16   O     O_R   0.690650 0.406190 0.506220 -0.606193
O17   O     O_R   0.309350 0.593810 0.493780 -0.611011
O18   O     O_R   0.675800 0.593810 0.493800 -0.614359
O19   O     O_R   0.324200 0.406190 0.506200 -0.604775
O20   O     O_2   0.833604 0.196165 0.784350 -0.628139
Zn1   Zn    Zn3+2 0.509910 0.374730 0.508290 0.976990
Zn2   Zn    Zn3+2 0.490090 0.625270 0.491710 0.960689

loop_
_geom_bond_atom_site_label_1
_geom_bond_atom_site_label_2
_ccdc_geom_bond_type
C33   H9    S    
C41   O13   S    
C1    O14   A    
C23   C45   A    
C1    O1    A    
C12   O15   A    
N1    Zn1   S    
C21   C31   S    
C12   C23   S    
C3    C43   A    
C9    H27   S    
C28   C29   A    
C19   C21   A    
C31   H3    S    
C39   O8    S    
C15   O19   A    
O18   Zn2   S    
N2    Zn2   S    
H21   O13   S    
C6    C35   S    
C44   H25   S    
C35   H13   S    
C40   O10   S    
C2    C38   S    
C32   H6    S    
C19   C37   S    
C37   O3    D    
C22   C25   A    
C5    C33   S    
C24   H23   S    
O1    Zn1   S    
C34   C46   A    
C9    N2    A    
C5    C13   A    
C17   H12   S    
C16   C27   A    
C40   C42   S    
C38   O6    S    
C27   C30   A    
C41   C43   S    
C42   C44   A    
C14   C30   S    
C16   H1    S    
C32   H8    S    
C1    C34   S    
C15   C29   S    
H17   O4    S    
C25   C29   A    
C41   O11   D    
C37   O4    S    
C12   O12   A    
C34   C44   A    
C6    C11   A    
C5    C7    A    
H19   O8    S    
C6    C8    A    
C8    N1    A    
C35   H14   S    
H18   O6    S    
C40   O9    D    
C2    C4    A    
H20   O10   S    
C9    C11   A    
C10   N1    A    
C36   O20   D    
C14   O16   A    
C8    H28   S    
C35   H15   S    
O15   Zn1   S    
C43   C45   A    
C22   H22   S    
C39   C46   S    
C20   C22   A    
C26   C30   A    
C38   O5    D    
C31   H4    S    
C3    C4    A    
C32   H7    S    
C20   C32   S    
C33   H11   S    
C45   H24   S    
C17   C28   A    
H16   O2    S    
C24   C26   A    
C31   H5    S    
C10   C13   A    
C15   O17   A    
O19   Zn1   S    
C7    N2    A    
C25   C27   A    
C3    C46   A    
C26   C28   A    
C7    H2    S    
C39   O7    D    
C36   O2    S    
C11   C13   A    
C4    C42   A    
C33   H10   S    
C17   C19   A    
O14   Zn2   S    
C18   C20   A    
O16   Zn1   S    
C16   C18   A    
C21   C24   A    
C2    C23   A    
C18   C36   S    
O17   Zn2   S    
C14   O18   A    
O12   Zn2   S    
C10   H26   S    
