data_mof_unit_31833.cif
_audit_creation_date              2013-03-05T16:19:45-0500
_audit_creation_method            fapswitch 2.2
_symmetry_space_group_name_H-M    P1
_symmetry_Int_Tables_number       1
_space_group_crystal_system       triclinic
_cell_length_a                    10.631516
_cell_length_b                    9.716646
_cell_length_c                    27.735648
_cell_angle_alpha                 90.014684
_cell_angle_beta                  89.359931
_cell_angle_gamma                 89.965288
_cell_volume                      2864.98729137

loop_
_atom_site_label
_atom_site_type_symbol
_atom_site_description
_atom_site_fract_x
_atom_site_fract_y
_atom_site_fract_z
_atom_type_partial_charge
O1    O     O_R   0.314910 0.616040 0.499990 -0.597484
O2    O     O_R   0.314910 0.383960 0.499990 -0.593460
C1    C     C_R   0.257834 0.499766 0.499690 0.951451
O3    O     O_R   0.500140 0.616020 0.428740 -0.631579
O4    O     O_R   0.500140 0.383980 0.428740 -0.633909
C2    C     C_R   0.499762 0.499984 0.405994 0.873827
Zn1   Zn    Zn3+2 0.500150 0.654960 0.499980 0.957045
Zn2   Zn    Zn3+2 0.500150 0.345040 0.499980 0.956484
O5    O     O_R   0.685320 0.616040 0.499970 -0.640946
O6    O     O_R   0.685320 0.383960 0.499970 -0.643123
O7    O     O_R   0.500090 0.616050 0.571230 -0.596629
O8    O     O_R   0.500090 0.383950 0.571230 -0.592611
C3    C     C_R   0.742467 0.499719 0.499576 0.851464
C4    C     C_R   0.499662 0.500029 0.593986 0.936101
C5    C     C_R   0.383197 0.479830 0.178371 0.503182
O9    O     O_2   0.275630 0.462323 0.203960 -0.555727
N1    N     N_R   0.494112 0.499326 0.201712 -0.358399
C6    C     C_R   0.604966 0.517878 0.177292 0.502966
C7    C     C_R   0.485266 0.375334 0.278079 -0.105605
C8    C     C_R   0.487228 0.375229 0.328136 -0.224154
C9    C     C_R   0.506635 0.624530 0.327909 -0.226082
C10   C     C_R   0.505057 0.624184 0.277840 -0.104825
C11   C     C_R   0.494412 0.499676 0.253016 0.326715
C12   C     C_R   0.494018 0.497334 0.101822 -0.052086
C13   C     C_R   0.380949 0.478774 0.127961 -0.021050
C14   C     C_R   0.268632 0.458825 0.103418 -0.137026
C15   C     C_R   0.607118 0.516934 0.126877 -0.020561
C16   C     C_R   0.498022 0.499915 0.353373 -0.033299
H1    H     H_    0.515034 0.721960 0.346577 0.150291
H2    H     H_    0.512105 0.720322 0.258255 0.135911
H3    H     H_    0.180862 0.442052 0.122764 0.190996
C17   C     C_R   0.497935 0.500156 0.646641 -0.106167
C18   C     C_R   0.377823 0.489010 0.975039 0.046865
C19   C     C_R   0.610074 0.501586 0.974019 0.046542
C20   C     C_R   0.493934 0.495300 0.949305 0.070036
C21   C     C_R   0.264661 0.491360 0.948661 -0.214605
C22   C     C_R   0.265772 0.493839 0.898684 -0.134944
C23   C     C_R   0.379481 0.494694 0.873125 -0.022180
C24   C     C_R   0.493924 0.495531 0.898237 -0.051696
C25   C     C_R   0.608376 0.496739 0.872157 -0.019626
C26   C     C_R   0.606194 0.497539 0.821770 0.495392
N2    N     N_R   0.493958 0.498043 0.798396 -0.359442
C27   C     C_R   0.381698 0.496037 0.822702 0.500479
C28   C     C_R   0.495871 0.375409 0.722029 -0.114957
C29   C     C_R   0.497749 0.375203 0.671998 -0.185783
C30   C     C_R   0.495990 0.625318 0.671958 -0.158556
C31   C     C_R   0.494088 0.625979 0.722112 0.139870
C32   C     C_R   0.494164 0.500067 0.747089 0.278017
O10   O     O_2   0.272939 0.495586 0.798041 -0.544165
C33   C     C_R   0.378424 0.481965 0.026055 0.046527
C34   C     C_R   0.493995 0.496339 0.050752 0.070499
C35   C     C_R   0.609546 0.509833 0.025001 0.046913
C36   C     C_R   0.267144 0.460061 0.053448 -0.215684
H4    H     H_    0.499286 0.277401 0.653276 0.190480
H5    H     H_    0.496096 0.278766 0.741472 0.151449
H6    H     H_    0.176608 0.495428 0.880138 0.190590
H7    H     H_    0.172957 0.494614 0.965490 0.137821
H8    H     H_    0.177120 0.440432 0.037441 0.139891
O11   O     O_2   0.712628 0.536241 0.201832 -0.556072
C37   C     C_R   0.719429 0.535808 0.101278 -0.137590
H9    H     H_    0.480127 0.277876 0.346975 0.149504
H10   H     H_    0.477241 0.279058 0.258680 0.135770
H11   H     H_    0.807224 0.553305 0.119778 0.190360
C38   C     C_R   0.723223 0.498426 0.946686 -0.215473
C39   C     C_R   0.722097 0.496423 0.896729 -0.134662
O12   O     O_2   0.715006 0.498333 0.796206 -0.552324
C40   C     C_R   0.720868 0.532661 0.051319 -0.215961
H12   H     H_    0.814898 0.494450 0.962739 0.138348
H13   H     H_    0.496106 0.722711 0.652958 0.192842
H14   H     H_    0.811258 0.494728 0.877418 0.191830
H15   H     H_    0.810859 0.551792 0.034444 0.139641
C41   C     C_3   0.073507 0.583180 0.455259 -0.115894
C42   C     C_3   0.070488 0.569310 0.546387 -0.098605
H16   H     H_    0.103995 0.692288 0.459575 0.157414
H17   H     H_    0.100180 0.679271 0.545942 0.206239
C43   C     C_3   0.928241 0.581015 0.455095 -0.439716
C44   C     C_3   0.925351 0.566081 0.546579 -0.467219
H18   H     H_    0.892780 0.688848 0.456352 0.167097
H19   H     H_    0.889032 0.673273 0.549787 0.175214
H20   H     H_    0.891951 0.534305 0.421333 0.168072
H21   H     H_    0.887763 0.508097 0.578222 0.171679
H22   H     H_    0.107397 0.295672 0.463552 0.171403
H23   H     H_    0.103976 0.286211 0.527463 0.231421
H24   H     H_    0.895331 0.298406 0.462683 0.176041
H25   H     H_    0.893340 0.287374 0.527476 0.183268
C45   C     C_3   0.071266 0.348568 0.496468 -0.383807
C46   C     C_3   0.121437 0.499027 0.499422 0.124068
C47   C     C_3   0.878659 0.499052 0.499355 0.151215
C48   C     C_3   0.928640 0.348961 0.496263 -0.417683
C49   C     C_3   0.408477 0.081110 0.463941 -0.251690
C50   C     C_3   0.408648 0.918941 0.463870 -0.248360
H26   H     H_    0.431529 0.118990 0.427059 0.148808
H27   H     H_    0.432112 0.881289 0.426981 0.150293
H28   H     H_    0.312110 0.119314 0.472155 0.192137
H29   H     H_    0.312296 0.880520 0.471907 0.192332
H30   H     H_    0.653662 0.119670 0.449074 0.183104
H31   H     H_    0.653873 0.879877 0.449167 0.182387
C51   C     C_3   0.625035 0.081099 0.485334 -0.362975
C52   C     C_3   0.625080 0.918692 0.485390 -0.363335
C53   C     C_3   0.467321 0.081622 0.547514 0.326880
C54   C     C_3   0.467090 0.918446 0.547488 0.325675
N3    N     N_3   0.499750 0.138610 0.498940 -0.077416
N4    N     N_3   0.499750 0.861390 0.498940 -0.077923
H32   H     H_    0.540200 0.115795 0.573406 0.058762
H33   H     H_    0.539631 0.883876 0.573462 0.059970
H34   H     H_    0.697377 0.118616 0.510822 0.160321
H35   H     H_    0.697356 0.881212 0.510940 0.161615
N5    N     N_3   0.492381 0.754928 0.747112 -0.448945
H36   H     H_    0.571237 0.759312 0.769235 0.202471
H37   H     H_    0.412059 0.758034 0.769169 0.211320
N6    N     N_3   0.127245 0.532472 0.409541 -0.471243
H38   H     H_    0.106545 0.603796 0.382517 0.202902
H39   H     H_    0.084571 0.439888 0.399714 0.203148
N7    N     N_3   0.122235 0.506089 0.590036 -0.414888
H40   H     H_    0.099028 0.568665 0.619517 0.225430
H41   H     H_    0.080332 0.410407 0.596369 0.220710
Cl1   Cl    Cl    0.323492 0.155178 0.570820 -0.583667
Cl2   Cl    Cl    0.322792 0.845508 0.570505 -0.585686

loop_
_geom_bond_atom_site_label_1
_geom_bond_atom_site_label_2
_geom_bond_distance
_ccdc_geom_bond_type
C52   N4    1.488787 S    
C17   C29   1.403252 A    
C7    C11   1.396936 A    
N6    H38   1.046093 S    
C12   C15   1.408505 A    
C41   C43   1.544610 S    
N7    H40   1.046066 S    
Zn1   O7    2.012097 S    
N1    C11   1.422995 S    
C37   H11   1.083636 S    
C54   Cl2   1.800839 S    
C38   H12   1.076722 S    
C21   C22   1.386290 A    
C43   H18   1.113724 S    
C15   C37   1.394576 A    
C23   C24   1.408715 A    
O7    C4    1.292110 A    
C5    C13   1.398666 A    
C7    H10   1.082952 S    
C5    O9    1.350057 S    
C53   H32   1.113067 S    
C18   C21   1.415208 A    
N5    H36   1.045311 S    
C5    N1    1.364827 A    
C19   C20   1.420272 A    
C26   N2    1.364324 A    
C8    H9    1.083045 S    
O5    C3    1.282857 A    
C49   N3    1.489133 S    
C30   H13   1.083280 S    
C22   H6    1.083650 S    
C2    C16   1.459799 S    
C7    C8    1.388743 A    
C37   C40   1.385905 A    
H30   C51   1.112656 S    
C43   C47   1.551009 S    
C12   C34   1.416482 A    
C41   N6    1.469744 S    
C14   H3    1.083625 S    
C54   N4    1.493294 S    
Zn1   N4    2.006026 S    
C9    C10   1.388983 A    
C42   H17   1.114319 S    
O3    Zn1   2.011694 S    
C19   C38   1.415027 A    
H31   C52   1.112694 S    
C49   H28   1.110689 S    
C44   H19   1.113788 S    
C54   H33   1.113028 S    
C33   C36   1.415100 A    
C1    C46   1.450225 S    
C34   C35   1.420253 A    
C12   C13   1.408539 A    
C44   C47   1.549409 S    
O3    C2    1.291876 A    
C21   H7    1.076649 S    
C4    C17   1.460337 S    
C24   C25   1.408659 A    
H25   C48   1.114322 S    
C45   C46   1.558969 S    
C27   O10   1.350003 S    
C8    C16   1.404437 A    
C33   C34   1.420351 A    
C18   C33   1.416715 A    
H22   C45   1.112157 S    
C9    H1    1.083131 S    
C45   C48   1.516412 S    
C42   N7    1.469858 S    
O1    C1    1.282830 A    
C20   C24   1.416405 A    
C22   C23   1.394600 A    
C50   H27   1.112172 S    
C49   H26   1.112029 S    
C31   C32   1.406122 A    
C44   H21   1.113583 S    
Zn2   O8    2.011907 S    
C53   N3    1.493570 S    
N1    C6    1.364816 A    
N6    H39   1.045252 S    
N2    C32   1.423148 S    
C35   C40   1.415006 A    
C41   H16   1.115596 S    
C25   C26   1.397986 A    
C9    C16   1.404434 A    
O8    C4    1.292321 A    
C29   H4    1.082824 S    
C51   C52   1.578051 S    
C25   C39   1.394505 A    
N2    C27   1.364307 A    
C42   C46   1.562016 S    
C14   C36   1.386272 A    
C41   C46   1.562884 S    
C28   C29   1.387583 A    
Zn1   O5    2.004404 S    
C30   C31   1.390996 A    
C10   H2    1.082939 S    
O1    Zn1   2.005584 S    
C17   C30   1.404180 A    
O2    Zn2   2.005134 S    
C6    C15   1.398241 A    
C43   H20   1.113454 S    
C50   N4    1.489153 S    
O6    C3    1.278707 A    
O4    Zn2   2.011885 S    
N7    H41   1.045239 S    
C36   H8    1.076641 S    
C26   O12   1.350095 S    
C52   H35   1.112287 S    
C19   C35   1.416223 A    
C51   H34   1.111993 S    
C38   C39   1.385904 A    
O2    C1    1.278185 A    
C13   C14   1.394701 A    
C23   C27   1.398498 A    
C51   N3    1.488818 S    
C28   H5    1.083003 S    
C49   C50   1.575736 S    
O4    C2    1.291877 A    
C3    C47   1.447884 S    
C53   C54   1.585519 S    
C18   C20   1.420366 A    
N5    H37   1.045319 S    
C40   H15   1.076678 S    
C50   H29   1.110761 S    
C28   C32   1.396370 A    
C6    O11   1.350136 S    
H23   C45   1.110762 S    
C47   C48   1.553883 S    
Zn2   O6    2.004854 S    
C31   N5    1.431861 S    
H24   C48   1.114217 S    
C42   C44   1.543310 S    
C10   C11   1.397119 A    
C53   Cl1   1.800894 S    
Zn2   N3    2.006016 S    
C39   H14   1.083652 S    
