data_mof_unit_13852.cif
_audit_creation_date              2012-10-26T21:32:57-0400
_audit_creation_method            fapswitch 2.2
_symmetry_space_group_name_H-M    P1
_symmetry_Int_Tables_number       1
_space_group_crystal_system       triclinic
_cell_length_a                    28.127918
_cell_length_b                    18.372806
_cell_length_c                    16.906092
_cell_angle_alpha                 89.857751
_cell_angle_beta                  59.646716
_cell_angle_gamma                 89.590135
_cell_volume                      7539.08016401

loop_
_atom_site_label
_atom_site_type_symbol
_atom_type_description
_atom_site_fract_x
_atom_site_fract_y
_atom_site_fract_z
_atom_type_partial_charge
C1    C     C_R   0.703179 0.274624 0.675826 0.934193
C2    C     C_R   0.960213 0.627985 0.480833 -0.234246
C3    C     C_R   0.065430 0.891728 0.942343 0.852108
C4    C     C_R   0.578478 0.594217 0.928448 0.999821
C5    C     C_R   0.434096 0.392113 0.058314 0.846364
C6    C     C_R   0.421469 0.594332 0.071649 0.993831
C7    C     C_R   0.564515 0.391177 0.943170 0.849075
C8    C     C_R   0.527607 0.002050 0.567390 0.023874
C9    C     C_R   0.439902 0.002487 0.531965 0.023509
C10   C     C_R   0.028062 0.502253 0.567408 0.023886
C11   C     C_R   0.940848 0.502434 0.530782 0.023299
C12   C     C_R   0.508573 0.068246 0.550322 0.048601
C13   C     C_R   0.918840 0.378305 0.584088 -0.199442
C14   C     C_R   0.451703 0.938761 0.566670 0.046465
C15   C     C_R   0.469121 0.067140 0.522200 0.043668
C16   C     C_R   0.498946 0.936828 0.576775 0.049648
C17   C     C_R   0.008771 0.568498 0.550879 0.048738
C18   C     C_R   0.953322 0.438462 0.564144 0.046024
C19   C     C_R   0.969366 0.567419 0.522584 0.043973
C20   C     C_R   0.999976 0.436839 0.575591 0.048868
C21   C     C_R   0.600476 0.934898 0.576609 0.067829
C22   C     C_R   0.387057 0.064474 0.471432 0.072500
C23   C     C_R   0.367025 0.938801 0.521359 0.052319
C24   C     C_R   0.028798 0.633660 0.565461 -0.228094
C25   C     C_R   0.602091 0.067538 0.571042 0.063619
C26   C     C_R   0.100752 0.435178 0.577072 0.067400
C27   C     C_R   0.887257 0.564651 0.471696 0.071804
C28   C     C_R   0.868941 0.437964 0.517991 0.056870
C29   C     C_R   0.102140 0.567741 0.571939 0.062621
C30   C     C_R   0.655074 0.935102 0.562483 -0.116025
C31   C     C_R   0.341009 0.064090 0.457340 -0.130196
C32   C     C_R   0.329693 0.937468 0.487390 -0.098025
C33   C     C_R   0.655708 0.065696 0.560645 -0.133202
C34   C     C_R   0.155287 0.435269 0.562753 -0.116612
C35   C     C_R   0.519273 0.872166 0.594456 -0.212349
C36   C     C_R   0.841090 0.564134 0.457768 -0.129935
C37   C     C_R   0.830758 0.437121 0.485556 -0.102486
C38   C     C_R   0.155783 0.565854 0.561250 -0.131149
C39   C     C_R   0.680050 0.000130 0.559778 -0.283639
C40   C     C_R   0.317448 0.999658 0.455974 -0.302477
C41   C     C_R   0.180270 0.500275 0.560045 -0.283008
C42   C     C_R   0.817758 0.499651 0.455897 -0.302692
C43   C     C_R   0.576459 0.001438 0.572681 0.075059
C44   C     C_R   0.398354 0.001744 0.507603 0.070301
C45   C     C_R   0.076696 0.501689 0.573191 0.075197
C46   C     C_R   0.460496 0.127390 0.479337 -0.233040
C47   C     C_R   0.899313 0.501553 0.506260 0.072317
C48   C     C_R   0.069233 0.371637 0.595179 -0.181092
C49   C     C_R   0.921201 0.625798 0.453467 -0.164623
C50   C     C_R   0.877285 0.378555 0.563036 -0.185317
C51   C     C_R   0.072637 0.632800 0.581244 -0.162880
C52   C     C_R   0.568798 0.871347 0.594712 -0.181050
C53   C     C_R   0.421437 0.125242 0.452099 -0.164124
C54   C     C_R   0.373410 0.880569 0.569983 -0.155784
C55   C     C_R   0.572718 0.132625 0.579915 -0.163806
C56   C     C_3   0.678951 0.380858 0.072963 -0.386864
C57   C     C_R   0.415726 0.879600 0.589775 -0.222122
C58   C     C_3   0.722253 0.434390 0.007085 -0.841898
C59   C     C_3   0.358176 0.714172 0.894402 -0.400420
C60   C     C_3   0.388268 0.784098 0.890914 -0.865184
C61   C     C_3   0.319520 0.380063 0.925744 -0.405828
C62   C     C_3   0.277309 0.434753 0.992803 -0.856808
C63   C     C_3   0.641744 0.716151 0.106961 -0.379951
C64   C     C_3   0.611617 0.785985 0.107891 -0.855421
C65   C     C_3   0.182897 0.884948 0.068372 -0.381245
C66   C     C_3   0.227313 0.937085 0.002027 -0.871707
C67   C     C_3   0.857464 0.215564 0.894863 -0.388111
C68   C     C_R   0.528882 0.133443 0.564159 -0.229480
C69   C     C_3   0.886851 0.285770 0.892898 -0.846121
C70   C     C_3   0.819438 0.880182 0.925857 -0.404718
C71   C     C_3   0.777057 0.934812 0.992700 -0.858550
C72   C     C_3   0.141815 0.215956 0.106953 -0.379503
C73   C     C_3   0.111669 0.285795 0.107960 -0.855565
C74   C     C_3   0.764490 0.157287 0.864433 -0.388526
C75   C     C_3   0.714017 0.108064 0.908910 -0.854687
C76   C     C_3   0.181540 0.765133 0.203982 -0.391703
C77   C     C_3   0.168729 0.685159 0.231031 -0.821168
C78   C     C_3   0.235683 0.158343 0.137172 -0.394081
C79   C     C_R   0.714148 0.269886 0.964639 0.107787
C80   C     C_3   0.286824 0.109415 0.092248 -0.850143
C81   C     C_3   0.818126 0.759526 0.795055 -0.397501
C82   C     C_3   0.829923 0.679269 0.767981 -0.789754
C83   C     C_3   0.264264 0.657660 0.865176 -0.393399
C84   C     C_3   0.212707 0.610423 0.909932 -0.821526
C85   C     C_3   0.680464 0.261057 0.205904 -0.387855
C86   C     C_3   0.669053 0.180777 0.232220 -0.824610
C87   C     C_3   0.735555 0.658514 0.137305 -0.393779
C88   C     C_3   0.786628 0.609469 0.092381 -0.849168
C89   C     C_3   0.318164 0.259382 0.795029 -0.396868
C90   C     C_R   0.274831 0.738345 0.056760 0.119579
C91   C     C_3   0.329980 0.179114 0.768018 -0.790778
C92   C     C_R   0.284497 0.270879 0.036916 0.117503
C93   C     C_R   0.302484 0.740944 0.322794 0.912278
C94   C     C_R   0.725212 0.736540 0.944044 0.073286
C95   C     C_R   0.216319 0.772477 0.962485 0.057460
C96   C     C_R   0.773790 0.237134 0.057546 0.113631
C97   C     C_R   0.784454 0.770983 0.036963 0.116983
C98   C     C_R   0.225254 0.236407 0.944015 0.073035
C99   C     C_R   0.759017 0.219377 0.928250 0.127539
C100  C     C_R   0.222239 0.773239 0.101753 0.125816
C101  C     C_R   0.240180 0.220275 0.073608 0.129118
C102  C     C_R   0.778552 0.768487 0.897581 0.040385
C103  C     C_R   0.259802 0.719952 0.927953 0.055940
C104  C     C_R   0.296226 0.275284 0.324862 0.949366
C105  C     C_R   0.720506 0.270147 0.103580 0.121635
C106  C     C_R   0.740103 0.720428 0.073681 0.129206
C107  C     C_R   0.278585 0.268375 0.897548 0.040144
C108  C     C_R   0.795735 0.220996 0.962757 0.123094
C109  C     C_R   0.203453 0.806639 0.046639 0.157689
C110  C     C_R   0.203466 0.221157 0.038983 0.147816
C111  C     C_R   0.797881 0.802784 0.951173 0.149249
C112  C     C_R   0.296530 0.720856 0.962387 0.140251
C113  C     C_R   0.700739 0.303142 0.049563 0.125801
C114  C     C_R   0.703402 0.721327 0.039026 0.148350
C115  C     C_R   0.697805 0.740038 0.677160 0.914604
C116  C     C_R   0.297906 0.302693 0.951138 0.149185
C117  C     C_R   0.625172 0.301166 0.963342 0.310696
C118  C     C_R   0.336702 0.654094 0.086417 0.250399
C119  C     C_R   0.372936 0.303597 0.038564 0.314439
C120  C     C_R   0.662428 0.653975 0.915899 0.292284
C121  C     C_R   0.127677 0.804325 0.961619 0.348310
C122  C     C_R   0.836599 0.153693 0.086086 0.248495
C123  C     C_R   0.872933 0.803625 0.038547 0.313953
C124  C     C_R   0.162451 0.153886 0.915869 0.292349
C125  C     C_R   0.600191 0.326557 0.913296 -0.340110
C126  C     C_R   0.203294 0.774516 0.675592 0.985754
C127  C     C_R   0.377374 0.647456 0.112914 -0.258115
C128  C     C_R   0.397752 0.328818 0.088661 -0.334653
C129  C     C_R   0.622458 0.647042 0.887777 -0.266947
C130  C     C_R   0.101832 0.827975 0.912306 -0.338317
C131  C     C_R   0.877249 0.147295 0.112737 -0.257691
C132  C     C_R   0.897784 0.828797 0.088617 -0.334938
C133  C     C_R   0.122475 0.146993 0.887759 -0.266042
C134  C     C_R   0.621930 0.304634 0.823433 0.348870
C135  C     C_R   0.376183 0.693690 0.178734 0.340750
C136  C     C_R   0.376376 0.306679 0.178068 0.345107
C137  C     C_R   0.802393 0.240761 0.322747 0.914311
C138  C     C_R   0.624289 0.692590 0.820818 0.295309
C139  C     C_R   0.122750 0.804705 0.823288 0.301744
C140  C     C_R   0.875951 0.193598 0.178551 0.339205
C141  C     C_R   0.876406 0.806651 0.178031 0.345134
C142  C     C_R   0.124306 0.192558 0.820814 0.295450
C143  C     C_R   0.678116 0.290438 0.773582 -0.237006
C144  C     C_R   0.331784 0.740032 0.222292 -0.342224
C145  C     C_R   0.320347 0.292347 0.227933 -0.244425
C146  C     C_R   0.668747 0.738102 0.777389 -0.219233
C147  C     C_R   0.178792 0.790086 0.772809 -0.152077
C148  C     C_R   0.796237 0.775275 0.324853 0.949780
C149  C     C_R   0.831403 0.239650 0.222266 -0.343374
C150  C     C_R   0.820366 0.792354 0.227919 -0.244552
C151  C     C_R   0.168769 0.238058 0.777389 -0.219437
C152  C     C_R   0.709710 0.291832 0.818628 0.251456
C153  C     C_R   0.306163 0.765528 0.173107 0.323030
C154  C     C_R   0.288366 0.294055 0.183440 0.252763
C155  C     C_R   0.693440 0.764253 0.826786 0.313079
C156  C     C_R   0.211494 0.792857 0.815274 0.259308
C157  C     C_R   0.805431 0.264773 0.173415 0.322956
C158  C     C_R   0.788373 0.794126 0.183449 0.252800
C159  C     C_R   0.197811 0.240021 0.677164 0.914963
C160  C     C_R   0.193475 0.264175 0.826781 0.312991
C161  C     C_R   0.682539 0.286935 0.915393 0.052457
C162  C     C_R   0.306194 0.719681 0.105752 0.050062
C163  C     C_R   0.315663 0.289191 0.086474 0.046033
C164  C     C_R   0.693016 0.719161 0.896016 -0.034218
C165  C     C_R   0.185101 0.790428 0.912823 -0.030085
C166  C     C_R   0.805614 0.218910 0.105956 0.054000
C167  C     C_R   0.815650 0.789257 0.086488 0.046142
C168  C     C_R   0.193050 0.219059 0.895995 -0.034146
C169  C     C_R   0.690989 0.129509 0.536000 0.918945
C170  C     C_R   0.020197 0.372227 0.593728 -0.210802
C171  C     C_R   0.303076 0.872172 0.483416 0.876171
C172  C     C_R   0.308835 0.129127 0.466236 0.908431
C173  C     C_R   0.690622 0.870460 0.536905 0.857580
C174  C     C_R   0.190975 0.629614 0.536283 0.912653
C175  C     C_R   0.803519 0.372127 0.482372 0.862836
C176  C     C_R   0.808793 0.629081 0.466544 0.907737
C177  C     C_R   0.190686 0.370499 0.536895 0.857751
C178  C     C_R   0.078483 0.094201 0.928442 0.999151
C179  C     C_R   0.934175 0.892059 0.058234 0.848040
C180  C     C_R   0.921451 0.094303 0.071613 0.994624
H1    H     H_    0.721324 0.999716 0.549583 0.203768
H2    H     H_    0.419793 0.171173 0.413463 0.183763
H3    H     H_    0.358380 0.284855 0.775343 0.210383
H4    H     H_    0.554916 0.296361 0.077016 0.332299
H5    H     H_    0.338726 0.551654 0.056177 0.345000
H6    H     H_    0.443486 0.296847 0.925449 0.332541
H7    H     H_    0.660838 0.551722 0.946811 0.342191
H8    H     H_    0.057859 0.798735 0.076148 0.331178
H9    H     H_    0.839058 0.051344 0.055232 0.345473
H10   H     H_    0.943458 0.796909 0.925374 0.332957
H11   H     H_    0.160827 0.051617 0.946808 0.342905
H12   H     H_    0.550856 0.301647 0.830272 0.324611
H13   H     H_    0.345572 0.835209 0.595302 0.223754
H14   H     H_    0.413711 0.733557 0.238950 0.336643
H15   H     H_    0.447740 0.301622 0.170289 0.324385
H16   H     H_    0.586786 0.733092 0.760355 0.329352
H17   H     H_    0.051196 0.800877 0.831924 0.327324
H18   H     H_    0.913501 0.233872 0.238522 0.336864
H19   H     H_    0.947787 0.801566 0.170216 0.324529
H20   H     H_    0.086797 0.233102 0.760383 0.329171
H21   H     H_    0.774573 0.330362 0.715239 0.328813
H22   H     H_    0.292212 0.860965 0.229902 0.341670
H23   H     H_    0.220729 0.325290 0.291951 0.350071
H24   H     H_    0.582469 0.183885 0.599065 0.193167
H25   H     H_    0.715887 0.852203 0.861704 0.332495
H26   H     H_    0.283069 0.818878 0.797787 0.335732
H27   H     H_    0.790931 0.360151 0.230460 0.341993
H28   H     H_    0.720767 0.825413 0.291987 0.349973
H29   H     H_    0.215930 0.352106 0.861721 0.332395
H30   H     H_    0.000325 0.320370 0.603351 0.141780
H31   H     H_    0.984886 0.676567 0.464666 0.149441
H32   H     H_    0.922122 0.330474 0.618190 0.148509
H33   H     H_    0.009717 0.685583 0.567937 0.147519
H34   H     H_    0.498981 0.820543 0.604429 0.142829
H35   H     H_    0.485606 0.175626 0.462253 0.149662
H36   H     H_    0.418389 0.832583 0.625776 0.147794
H37   H     H_    0.286131 0.999041 0.436477 0.194009
H38   H     H_    0.509936 0.185392 0.566233 0.147732
H39   H     H_    0.761779 0.425831 0.005853 0.270029
H40   H     H_    0.729241 0.427421 0.936732 0.270181
H41   H     H_    0.707926 0.490958 0.030152 0.280589
H42   H     H_    0.640535 0.389944 0.071787 0.264299
H43   H     H_    0.669527 0.395420 0.143203 0.204978
H44   H     H_    0.369324 0.831420 0.875790 0.258654
H45   H     H_    0.386870 0.793555 0.956845 0.269273
H46   H     H_    0.432142 0.779685 0.835883 0.256316
H47   H     H_    0.377544 0.667495 0.908795 0.266929
H48   H     H_    0.221612 0.499830 0.549548 0.204001
H49   H     H_    0.365810 0.705279 0.823917 0.195727
H50   H     H_    0.236912 0.427210 0.997043 0.254854
H51   H     H_    0.272041 0.428066 0.062094 0.276028
H52   H     H_    0.291627 0.490955 0.968680 0.283022
H53   H     H_    0.359027 0.388557 0.923145 0.269991
H54   H     H_    0.326932 0.394213 0.856483 0.199983
H55   H     H_    0.630672 0.833826 0.120894 0.266636
H56   H     H_    0.612747 0.793611 0.041864 0.256701
H57   H     H_    0.567800 0.782884 0.163262 0.260647
H58   H     H_    0.622513 0.669007 0.094029 0.261986
H59   H     H_    0.786084 0.499145 0.437203 0.194454
H60   H     H_    0.634031 0.708984 0.177771 0.205887
H61   H     H_    0.213854 0.994096 0.023867 0.288800
H62   H     H_    0.266445 0.927508 0.001801 0.269866
H63   H     H_    0.234684 0.929649 0.931500 0.258810
H64   H     H_    0.144907 0.894954 0.066071 0.264183
H65   H     H_    0.173214 0.899962 0.138625 0.204712
H66   H     H_    0.867441 0.333106 0.878790 0.268607
H67   H     H_    0.885384 0.294499 0.959001 0.264350
H68   H     H_    0.930760 0.282319 0.837789 0.251931
H69   H     H_    0.877181 0.168892 0.908538 0.261893
H70   H     H_    0.081086 0.320718 0.612492 0.171236
H71   H     H_    0.865307 0.207459 0.824132 0.201296
H72   H     H_    0.736774 0.927160 0.996573 0.255066
H73   H     H_    0.771578 0.928169 0.062134 0.276193
H74   H     H_    0.791348 0.991031 0.968636 0.283610
H75   H     H_    0.858820 0.888794 0.923647 0.269920
H76   H     H_    0.827050 0.894275 0.856466 0.200195
H77   H     H_    0.130725 0.333625 0.120982 0.266616
H78   H     H_    0.112782 0.293455 0.041952 0.256597
H79   H     H_    0.067858 0.282672 0.163349 0.260758
H80   H     H_    0.122576 0.168824 0.094018 0.262107
H81   H     H_    0.919383 0.672033 0.415434 0.184497
H82   H     H_    0.134127 0.208752 0.177743 0.205890
H83   H     H_    0.721068 0.060349 0.863979 0.257401
H84   H     H_    0.706679 0.088125 0.976271 0.268806
H85   H     H_    0.676805 0.137507 0.918879 0.264202
H86   H     H_    0.771636 0.176430 0.797389 0.262505
H87   H     H_    0.800416 0.122092 0.849259 0.201902
H88   H     H_    0.154326 0.658208 0.188198 0.267815
H89   H     H_    0.205668 0.656011 0.222734 0.266660
H90   H     H_    0.135731 0.681315 0.304091 0.249691
H91   H     H_    0.141788 0.792082 0.222112 0.205420
H92   H     H_    0.852145 0.330838 0.584717 0.187383
H93   H     H_    0.195435 0.791050 0.247429 0.264085
H94   H     H_    0.280570 0.061805 0.137020 0.257458
H95   H     H_    0.294241 0.089308 0.024961 0.270182
H96   H     H_    0.323688 0.139196 0.082023 0.262865
H97   H     H_    0.228489 0.177540 0.204152 0.263354
H98   H     H_    0.200159 0.122964 0.152513 0.202976
H99   H     H_    0.845065 0.651329 0.809495 0.265174
H100  H     H_    0.792347 0.651554 0.778037 0.264910
H101  H     H_    0.862074 0.674712 0.694420 0.246748
H102  H     H_    0.803417 0.786505 0.753030 0.258650
H103  H     H_    0.082371 0.683974 0.600643 0.192717
H104  H     H_    0.858352 0.784963 0.775385 0.210413
H105  H     H_    0.204593 0.590749 0.977842 0.267267
H106  H     H_    0.176273 0.641289 0.918843 0.263489
H107  H     H_    0.218926 0.562490 0.865738 0.250203
H108  H     H_    0.272233 0.676533 0.797588 0.256161
H109  H     H_    0.299336 0.621165 0.851257 0.206198
H110  H     H_    0.654704 0.153268 0.189645 0.267004
H111  H     H_    0.706587 0.152711 0.222987 0.266752
H112  H     H_    0.636443 0.176147 0.305442 0.250514
H113  H     H_    0.640174 0.286834 0.225044 0.205153
H114  H     H_    0.580812 0.820283 0.611401 0.171691
H115  H     H_    0.694396 0.287538 0.248991 0.264142
H116  H     H_    0.780386 0.561972 0.137307 0.256877
H117  H     H_    0.793893 0.589193 0.025249 0.270820
H118  H     H_    0.823573 0.639215 0.081853 0.262615
H119  H     H_    0.728422 0.677729 0.204240 0.263279
H120  H     H_    0.699977 0.623211 0.152747 0.202853
H121  H     H_    0.345135 0.151227 0.809546 0.264761
H122  H     H_    0.292407 0.151363 0.778113 0.265127
H123  H     H_    0.362127 0.174529 0.694456 0.246874
H124  H     H_    0.303445 0.286304 0.752985 0.258666
O1    O     O_R   0.746490 0.236330 0.638080 -0.641367
O2    O     O_R   0.325830 0.813840 0.483730 -0.651975
O3    O     O_R   0.325830 0.186160 0.483730 -0.635483
O4    O     O_R   0.674170 0.813840 0.516270 -0.650455
O5    O     O_R   0.174170 0.686160 0.516270 -0.635756
O6    O     O_R   0.825830 0.313840 0.483730 -0.655657
O7    O     O_R   0.825830 0.686160 0.483730 -0.636050
O8    O     O_R   0.174170 0.313840 0.516270 -0.650117
O9    O     O_R   0.739960 0.127620 0.525000 -0.619001
O10   O     O_R   0.260040 0.872380 0.475000 -0.641277
O11   O     O_R   0.260040 0.127620 0.475000 -0.614923
O12   O     O_R   0.253510 0.763670 0.361920 -0.614619
O13   O     O_R   0.739960 0.872380 0.525000 -0.625044
O14   O     O_R   0.239960 0.627620 0.525000 -0.623635
O15   O     O_R   0.760040 0.372380 0.475000 -0.638220
O16   O     O_R   0.760040 0.627620 0.475000 -0.615283
O17   O     O_R   0.239960 0.372380 0.525000 -0.625520
O18   O     O_R   0.680700 0.294870 0.629350 -0.558441
O19   O     O_R   0.319300 0.705130 0.370650 -0.583230
O20   O     O_R   0.319300 0.294870 0.370650 -0.551961
O21   O     O_R   0.680700 0.705130 0.629350 -0.608330
O22   O     O_R   0.180700 0.794870 0.629350 -0.576886
O23   O     O_R   0.253510 0.236330 0.361920 -0.635369
O24   O     O_R   0.819300 0.205130 0.370650 -0.581615
O25   O     O_R   0.819300 0.794870 0.370650 -0.551855
O26   O     O_R   0.180700 0.205130 0.629350 -0.608032
O27   O     O_R   0.062020 0.072840 0.007170 -0.622613
O28   O     O_R   0.937980 0.927160 0.992830 -0.623567
O29   O     O_R   0.937980 0.072840 0.992830 -0.622189
O30   O     O_R   0.062020 0.927160 0.007170 -0.624556
O31   O     O_R   0.562020 0.572840 0.007170 -0.622395
O32   O     O_R   0.437980 0.427160 0.992830 -0.623803
O33   O     O_R   0.437980 0.572840 0.992830 -0.622352
O34   O     O_R   0.746490 0.763670 0.638080 -0.585023
O35   O     O_R   0.562020 0.427160 0.007170 -0.622319
O36   O     O_R   0.947860 0.073950 0.109290 -0.540736
O37   O     O_R   0.052140 0.926050 0.890710 -0.592598
O38   O     O_R   0.052140 0.073950 0.890710 -0.539847
O39   O     O_R   0.947860 0.926050 0.109290 -0.595030
O40   O     O_R   0.447860 0.573950 0.109290 -0.540634
O41   O     O_R   0.552140 0.426050 0.890710 -0.593407
O42   O     O_R   0.552140 0.573950 0.890710 -0.539705
O43   O     O_R   0.447860 0.426050 0.109290 -0.595459
O44   O     O_3   0.594473 0.289766 0.056779 -0.779042
O45   O     O_R   0.246490 0.736330 0.638080 -0.615187
O46   O     O_3   0.325249 0.598032 0.044370 -0.787092
O47   O     O_3   0.403994 0.290677 0.945440 -0.779215
O48   O     O_3   0.673572 0.598155 0.959166 -0.785708
O49   O     O_3   0.097612 0.793715 0.055298 -0.776101
O50   O     O_3   0.825632 0.097717 0.043310 -0.787800
O51   O     O_3   0.903957 0.790779 0.945401 -0.779084
O52   O     O_3   0.173577 0.098048 0.959140 -0.785980
O53   O     O_3   0.590314 0.303274 0.781934 -0.725577
O54   O     O_3   0.415507 0.688786 0.204794 -0.720822
O55   O     O_3   0.408363 0.304321 0.218923 -0.723931
O56   O     O_R   0.753510 0.263670 0.361920 -0.614738
O57   O     O_3   0.585389 0.687997 0.793887 -0.721206
O58   O     O_3   0.090514 0.802274 0.782946 -0.728969
O59   O     O_3   0.915363 0.189021 0.204449 -0.720785
O60   O     O_3   0.908407 0.804241 0.218862 -0.724220
O61   O     O_3   0.085398 0.187997 0.793899 -0.721159
O62   O     O_3   0.765822 0.302344 0.770858 -0.781122
O63   O     O_3   0.284104 0.834831 0.186836 -0.784889
O64   O     O_3   0.231815 0.303231 0.231625 -0.772768
O65   O     O_3   0.714447 0.833828 0.807961 -0.767209
O66   O     O_3   0.267823 0.800405 0.760224 -0.796942
O67   O     O_R   0.753510 0.736330 0.361920 -0.635138
O68   O     O_3   0.782634 0.333671 0.187839 -0.783634
O69   O     O_3   0.731829 0.803382 0.231656 -0.772870
O70   O     O_3   0.214496 0.333743 0.807968 -0.767558
O71   O     O_R   0.246490 0.263670 0.638080 -0.584936
O72   O     O_R   0.674170 0.186160 0.516270 -0.635635
Zn1   Zn    Zn3+2 0.792340 0.208750 0.507670 0.968940
Zn2   Zn    Zn3+2 0.494040 0.500000 0.919480 0.998196
Zn3   Zn    Zn3+2 0.005960 1.000000 0.080520 1.000648
Zn4   Zn    Zn3+2 0.994040 1.000000 0.919480 0.999166
Zn5   Zn    Zn3+2 0.207660 0.791250 0.492330 0.975766
Zn6   Zn    Zn3+2 0.207660 0.208750 0.492330 0.968183
Zn7   Zn    Zn3+2 0.792340 0.791250 0.507670 1.002258
Zn8   Zn    Zn3+2 0.292340 0.708750 0.507670 0.980357
Zn9   Zn    Zn3+2 0.707660 0.291250 0.492330 0.976703
Zn10  Zn    Zn3+2 0.707660 0.708750 0.492330 0.967756
Zn11  Zn    Zn3+2 0.292340 0.291250 0.507670 1.002418
Zn12  Zn    Zn3+2 0.505960 0.500000 0.080520 1.000436

loop_
_geom_bond_atom_site_label_1
_geom_bond_atom_site_label_2
_ccdc_geom_bond_type
C20   C170  A    
C28   C47   A    
C86   H110  S    
C177  O8    A    
C36   C42   A    
C96   C105  A    
C137  C149  S    
O36   Zn3   S    
C5    O43   A    
C124  C133  A    
C174  O5    A    
C79   C99   A    
O12   Zn5   S    
C148  O25   A    
C16   C35   A    
C73   H77   S    
C31   C172  S    
C178  O38   A    
H10   O51   S    
C93   O12   A    
C80   H96   S    
C37   C42   A    
C131  C140  A    
C89   H124  S    
C134  C143  A    
C124  C168  A    
C91   H122  S    
C10   C20   A    
C142  O61   S    
H9    O50   S    
H18   O59   S    
C119  C128  A    
C24   C51   A    
C96   C108  A    
C126  O45   A    
C100  C109  A    
C8    C16   A    
C78   C101  S    
O42   Zn2   S    
C13   H32   S    
C102  C111  A    
C79   C161  S    
O17   Zn11  S    
C158  C167  A    
C65   H64   S    
C75   H83   S    
C172  O11   A    
C78   H98   S    
C64   H55   S    
C95   C109  A    
C70   H76   S    
C171  O10   A    
C101  C110  A    
C3    O30   A    
C32   C171  S    
C29   C45   A    
C103  C112  A    
O11   Zn6   S    
C135  O54   S    
C142  C151  A    
C71   H74   S    
C37   C175  S    
C57   H36   S    
C22   C31   A    
C92   C116  A    
H11   O52   S    
C117  O44   S    
C141  O60   S    
C13   C18   A    
O22   Zn5   S    
C62   H52   S    
O2    Zn8   S    
O40   Zn12  S    
C152  O62   S    
C75   H85   S    
C14   C57   A    
C118  C162  A    
C173  O4    A    
C2    C19   A    
C82   H100  S    
C25   C55   A    
C72   C73   S    
C6    C127  S    
C126  C147  S    
C73   H79   S    
C76   C100  S    
C9    C15   A    
C97   C167  S    
O14   Zn8   S    
O26   Zn6   S    
O31   Zn12  S    
C155  O65   S    
C46   C53   A    
C76   H93   S    
C4    O42   A    
C160  C168  A    
C35   H34   S    
O34   Zn7   S    
O9    Zn1   S    
C94   C102  A    
C46   H35   S    
H20   O61   S    
C34   C177  S    
C88   H116  S    
C98   C168  S    
C148  O67   A    
O39   Zn3   S    
C11   C18   A    
C123  C132  A    
C61   H53   S    
C7    O35   A    
H4    O44   S    
C121  C130  A    
C25   C43   A    
C1    O18   A    
C83   H109  S    
C85   C86   S    
C99   C108  A    
C12   C68   A    
C115  C146  S    
C2    H31   S    
C83   C103  S    
C90   C162  S    
O27   Zn3   S    
C89   H3    S    
C105  C113  A    
C124  O52   S    
C148  C150  S    
C169  O72   A    
C78   C80   S    
C133  C178  S    
C38   C174  S    
C66   H63   S    
C76   H91   S    
C5    C128  S    
O37   Zn4   S    
C24   H33   S    
C26   C45   A    
C58   H40   S    
C69   H67   S    
O21   Zn10  S    
C62   H50   S    
C29   C38   A    
O8    Zn6   S    
C89   C91   S    
C60   H46   S    
C152  C161  A    
C137  O24   A    
C119  O47   S    
C41   H48   S    
C91   H123  S    
H21   O62   S    
H23   O64   S    
C58   H41   S    
C95   C103  A    
C141  C150  A    
C120  C129  A    
C122  O50   S    
C38   C41   A    
C1    O1    A    
C151  C159  S    
C3    O37   A    
C74   H87   S    
C83   C84   S    
C170  H30   S    
C8    C12   A    
C85   H113  S    
C10   C45   A    
C93   O19   A    
H26   O66   S    
C93   C144  S    
C145  C154  A    
C92   C163  S    
O56   Zn9   S    
C79   C113  A    
C77   H89   S    
C88   H118  S    
C118  C127  A    
C7    O41   A    
C122  C131  A    
C179  O28   A    
H8    O49   S    
C29   C51   A    
C27   C47   A    
C132  C141  A    
C159  O26   A    
C86   H111  S    
H29   O70   S    
C56   H43   S    
C131  C180  S    
C66   H61   S    
C121  C165  A    
C72   H82   S    
C77   H88   S    
O4    Zn10  S    
C139  O58   S    
C104  O20   A    
C53   H2    S    
C28   C37   A    
C138  C146  A    
C56   C58   S    
C30   C39   A    
C14   C16   A    
H5    O46   S    
C61   C62   S    
C107  C116  A    
C123  O51   S    
H7    O48   S    
C120  C164  A    
C13   C50   A    
C84   H105  S    
C59   C60   S    
C91   H121  S    
C4    O31   A    
C15   C46   A    
C117  C125  A    
C140  C149  A    
C27   C49   A    
C25   C33   A    
C54   C57   A    
C59   H49   S    
C125  C134  A    
C140  O59   S    
H17   O58   S    
C171  O2    A    
C98   C110  A    
C40   H37   S    
C11   C47   A    
C8    C43   A    
C33   C169  S    
C55   C68   A    
C120  O48   S    
C5    O32   A    
C11   C19   A    
C87   H120  S    
C173  O13   A    
C127  C135  A    
C64   H56   S    
C128  C136  A    
C97   C111  A    
C67   C108  S    
O41   Zn2   S    
C153  O63   S    
C85   H115  S    
C31   C40   A    
C71   H73   S    
C146  C155  A    
C176  O7    A    
C56   C113  S    
O23   Zn6   S    
C70   C71   S    
C59   H47   S    
C26   C48   A    
C34   C41   A    
C130  C139  A    
C95   C165  S    
C175  O15   A    
C176  O16   A    
C63   H60   S    
O3    Zn11  S    
C73   H78   S    
C115  O34   A    
C80   H95   S    
C23   C44   A    
O20   Zn11  S    
C9    C14   A    
C12   C15   A    
H6    O47   S    
O1    Zn1   S    
C89   C107  S    
C61   C116  S    
C59   C112  S    
C133  C142  A    
O13   Zn7   S    
H27   O68   S    
C7    C125  S    
C147  C156  A    
C65   C109  S    
C64   H57   S    
C92   C101  A    
C48   C170  A    
C97   C106  A    
C143  C152  A    
O6    Zn1   S    
O7    Zn7   S    
C36   C176  S    
C94   C164  S    
C71   H72   S    
H22   O63   S    
C65   H65   S    
C75   H84   S    
C49   H81   S    
C150  C158  A    
C81   H102  S    
C78   H97   S    
C70   H75   S    
C42   H59   S    
C74   C99   S    
C27   C36   A    
C21   C30   A    
C153  C162  A    
C23   C32   A    
O29   Zn4   S    
C56   H42   S    
C159  O71   A    
C156  O66   S    
C156  C165  A    
C175  O6    A    
C55   H24   S    
C172  O3    A    
C157  O68   S    
C104  O23   A    
C70   C111  S    
C98   C107  A    
C154  O64   S    
C69   H66   S    
C87   C88   S    
C62   H51   S    
C35   C52   A    
C149  C157  A    
C160  O70   S    
O67   Zn10  S    
C122  C166  A    
C158  O69   S    
O24   Zn1   S    
C3    C130  S    
C115  O21   A    
C82   H99   S    
C90   C112  A    
C63   H58   S    
C81   C82   S    
C94   C114  A    
C169  O9    A    
O32   Zn2   S    
C178  O27   A    
C139  C147  A    
C33   C39   A    
C106  C114  A    
C137  O56   A    
C136  O55   S    
C10   C17   A    
C60   H45   S    
C144  C153  A    
C138  O57   S    
C21   C43   A    
C63   C114  S    
C28   C50   A    
C26   C34   A    
C22   C44   A    
C129  C138  A    
O71   Zn11  S    
C118  O46   S    
H14   O54   S    
C30   C173  S    
C136  C145  A    
O18   Zn9   S    
C123  C167  A    
O15   Zn9   S    
C54   H13   S    
C61   H54   S    
C51   H103  S    
C81   H104  S    
C177  O17   A    
C174  O14   A    
C85   C105  S    
C60   H44   S    
C90   C100  A    
C22   C53   A    
C81   C102  S    
C72   C110  S    
C17   C24   A    
C86   H112  S    
C74   C75   S    
O72   Zn9   S    
O28   Zn4   S    
C154  C163  A    
C121  O49   S    
C76   C77   S    
H16   O57   S    
C134  O53   S    
C119  C163  A    
C180  O36   A    
O43   Zn12  S    
C66   H62   S    
C117  C161  A    
O25   Zn7   S    
C63   C64   S    
C67   C69   S    
C68   H38   S    
C1    C143  S    
C2    C49   A    
C58   H39   S    
C69   H68   S    
C126  O22   A    
C80   H94   S    
C4    C129  S    
H19   O60   S    
O30   Zn3   S    
C39   H1    S    
O5    Zn5   S    
O10   Zn5   S    
H25   O65   S    
C135  C144  A    
C50   H92   S    
C72   H80   S    
O38   Zn4   S    
H12   O53   S    
C96   C166  S    
C67   H69   S    
C6    O40   A    
C23   C54   A    
C179  O39   A    
C84   H106  S    
C9    C44   A    
C77   H90   S    
C104  C145  S    
C84   H107  S    
O16   Zn10  S    
C157  C166  A    
C155  C164  A    
O33   Zn2   S    
C87   H119  S    
C151  C160  A    
O45   Zn8   S    
O35   Zn12  S    
C6    O33   A    
O19   Zn8   S    
C74   H86   S    
C87   C106  S    
C17   C19   A    
C18   C20   A    
C32   C40   A    
C48   H70   S    
C132  C179  S    
H15   O55   S    
C180  O29   A    
C65   C66   S    
H28   O69   S    
C88   H117  S    
C52   H114  S    
C82   H101  S    
C21   C52   A    
C83   H108  S    
C67   H71   S    
