data_mof_unit_32376.cif
_audit_creation_date              2012-12-10T18:19:57-0500
_audit_creation_method            fapswitch 2.2
_symmetry_space_group_name_H-M    P1
_symmetry_Int_Tables_number       1
_space_group_crystal_system       triclinic
_cell_length_a                    10.654333
_cell_length_b                    10.661395
_cell_length_c                    9.488726
_cell_angle_alpha                 90.2746
_cell_angle_beta                  90.248942
_cell_angle_gamma                 89.217732
_cell_volume                      1077.702181

loop_
_atom_site_label
_atom_site_type_symbol
_atom_type_description
_atom_site_fract_x
_atom_site_fract_y
_atom_site_fract_z
_atom_type_partial_charge
C1    C     C_R   0.499359 0.259954 0.499441 0.828574
C2    C     C_R   0.500675 0.740052 0.500568 0.825532
C3    C     C_3   0.502412 0.961191 0.633628 -0.002591
C4    C     C_3   0.497668 0.038835 0.366435 -0.004080
C5    C     C_3   0.523345 0.611556 0.051795 -0.131835
C6    C     C_3   0.476773 0.388308 0.947978 -0.030668
C7    C     C_3   0.417171 0.575306 0.950767 0.187954
C8    C     C_3   0.583082 0.424517 0.049216 0.251623
C9    C     C_3   0.607403 0.533996 0.951571 0.005288
C10   C     C_3   0.392753 0.465876 0.048105 0.009239
C11   C     C_R   0.260075 0.501008 0.499776 0.858322
C12   C     C_R   0.739943 0.499077 0.500211 0.848513
C13   C     C_3   0.042905 0.505696 0.634880 -0.176991
C14   C     C_3   0.957169 0.494461 0.364983 -0.229106
C15   C     C_3   0.962218 0.399422 0.571494 -0.018329
C16   C     C_3   0.037861 0.600726 0.428382 -0.019686
C17   C     C_3   0.876237 0.497756 0.500392 -0.047032
C18   C     C_3   0.123815 0.502413 0.499512 -0.072081
C19   C     C_3   0.956619 0.602649 0.561238 0.125008
C20   C     C_3   0.043477 0.397520 0.438634 0.089488
C21   C     C_3   0.604228 0.042641 0.565145 -0.336751
C22   C     C_3   0.395853 0.957395 0.434914 -0.325231
C23   C     C_3   0.601937 0.957153 0.432937 0.035308
C24   C     C_3   0.398145 0.042875 0.567119 0.027511
C25   C     C_3   0.501420 0.876592 0.502026 -0.093321
C26   C     C_3   0.498657 0.123426 0.498025 -0.091339
Cu1   Cu    Cu3+1 0.500030 0.499990 0.643150 1.007999
Cu2   Cu    Cu3+1 0.499970 0.500010 0.356850 1.008452
H1    H     H_    0.076501 0.511115 0.745487 0.177025
H2    H     H_    0.923644 0.488987 0.254337 0.180703
H3    H     H_    0.689722 0.077062 0.618762 0.199498
H4    H     H_    0.310346 0.923087 0.381258 0.204430
H5    H     H_    0.541121 0.705435 0.098153 0.205166
H6    H     H_    0.459119 0.294471 0.901454 0.207441
N1    N     N_3   0.500090 0.499970 0.858290 -0.207699
N2    N     N_3   0.499910 0.500030 0.141710 -0.200392
O1    O     O_R   0.500060 0.316850 0.620870 -0.534584
O2    O     O_R   0.499940 0.683150 0.379130 -0.531502
O3    O     O_R   0.500000 0.316860 0.379090 -0.594511
O4    O     O_R   0.500000 0.683140 0.620910 -0.608159
O5    O     O_R   0.316880 0.499960 0.620870 -0.585634
O6    O     O_R   0.683120 0.500040 0.379130 -0.590509
O7    O     O_R   0.316830 0.499970 0.379090 -0.566613
O8    O     O_R   0.683170 0.500030 0.620910 -0.552426
C27   C     C_2   0.925680 0.285869 0.652928 0.366742
H7    H     H_    0.997228 0.218496 0.685182 0.088456
O9    O     O_2   0.816509 0.269318 0.684942 -0.548638
C28   C     C_2   0.074379 0.714354 0.347075 0.301665
H8    H     H_    0.002742 0.781422 0.314280 0.102504
O10   O     O_2   0.183655 0.731352 0.315857 -0.572222
N3    N     N_3   0.906975 0.715020 0.630046 -0.588147
H9    H     H_    0.982548 0.774075 0.649973 0.222744
H10   H     H_    0.848456 0.760869 0.557785 0.181733
N4    N     N_3   0.093417 0.285295 0.369777 -0.531640
H11   H     H_    0.017950 0.226187 0.349535 0.224836
H12   H     H_    0.151805 0.239405 0.442139 0.184167
C29   C     C_2   0.718390 0.910242 0.360892 0.379178
H13   H     H_    0.808899 0.947775 0.390553 0.034903
O11   O     O_2   0.711965 0.831997 0.267022 -0.535488
C30   C     C_2   0.281687 0.089808 0.639149 0.388379
H14   H     H_    0.191158 0.052411 0.609343 0.031580
O12   O     O_2   0.288127 0.167930 0.733146 -0.509702
C31   C     C_2   0.510472 0.917892 0.783590 0.493295
H15   H     H_    0.591205 0.863057 0.818259 0.043508
O13   O     O_2   0.427279 0.943946 0.867080 -0.495563
C32   C     C_2   0.489566 0.082224 0.216517 0.476838
H16   H     H_    0.409130 0.137647 0.182142 0.114796
O14   O     O_2   0.572417 0.055678 0.132784 -0.505360
N5    N     N_3   0.324299 0.662220 0.892467 -0.519341
H17   H     H_    0.249711 0.609145 0.854777 0.212439
H18   H     H_    0.288890 0.715755 0.976220 0.237477
N6    N     N_3   0.675059 0.336759 0.107727 -0.513870
H19   H     H_    0.712532 0.285079 0.023649 0.256652
H20   H     H_    0.748487 0.389114 0.149366 0.241382
C33   C     C_2   0.729963 0.579503 0.896968 0.465543
H21   H     H_    0.732641 0.666351 0.838253 0.080174
O15   O     O_2   0.826832 0.520254 0.918664 -0.553973
C34   C     C_2   0.266104 0.428247 0.098905 0.422216
H22   H     H_    0.203211 0.497712 0.145076 0.112335
O16   O     O_2   0.231464 0.320347 0.084471 -0.521603

loop_
_geom_bond_atom_site_label_1
_geom_bond_atom_site_label_2
_ccdc_geom_bond_type
C7    C10   S    
C32   O14   D    
C21   C26   S    
C31   O13   D    
C11   C18   S    
C16   C28   S    
C10   C34   S    
C27   H7    S    
C21   H3    S    
C22   H4    S    
C13   C18   S    
C13   H1    S    
C24   C26   S    
C34   O16   D    
C29   O11   D    
C5    N2    S    
C6    N1    S    
C30   O12   D    
C8    N2    S    
N5    H18   S    
C2    O2    A    
C12   O6    A    
Cu1   O8    S    
C8    C9    S    
C22   C25   S    
C5    H5    S    
C12   C17   S    
C11   O7    A    
C18   C20   S    
C1    O1    A    
C28   O10   D    
C32   H16   S    
C14   C17   S    
C3    C24   S    
C14   H2    S    
C27   O9    D    
C15   C20   S    
N4    H12   S    
C8    N6    S    
C13   C19   S    
N3    H9    S    
C14   C20   S    
C3    C25   S    
N6    H20   S    
C5    C7    S    
C4    C23   S    
C34   H22   S    
C6    C8    S    
Cu2   O3    S    
Cu1   N1    S    
C6    H6    S    
C30   H14   S    
N3    H10   S    
C33   H21   S    
C5    C9    S    
C2    O4    A    
C4    C22   S    
Cu1   O5    S    
Cu2   O2    S    
Cu1   O4    S    
C24   C30   S    
C33   O15   D    
C20   N4    S    
C28   H8    S    
C13   C15   S    
C1    C26   S    
C14   C16   S    
C3    C21   S    
C15   C27   S    
C23   C29   S    
N4    H11   S    
C7    N1    S    
N6    H19   S    
C6    C10   S    
C4    C26   S    
C15   C17   S    
C3    C31   S    
Cu2   O7    S    
C21   C23   S    
C7    N5    S    
C12   O8    A    
C4    C32   S    
C29   H13   S    
Cu1   O1    S    
C16   C19   S    
Cu2   O6    S    
C17   C19   S    
C11   O5    A    
C2    C25   S    
C22   C24   S    
C23   C25   S    
N5    H17   S    
C1    O3    A    
C31   H15   S    
C19   N3    S    
Cu2   N2    S    
C16   C18   S    
Cu1   Cu2   S    
C9    N1    S    
C10   N2    S    
C9    C33   S    
