data_mof_unit_29113.cif
_audit_creation_date              2012-12-11T16:20:27-0500
_audit_creation_method            fapswitch 2.2
_symmetry_space_group_name_H-M    P1
_symmetry_Int_Tables_number       1
_space_group_crystal_system       triclinic
_cell_length_a                    6.942777
_cell_length_b                    34.396024
_cell_length_c                    38.287118
_cell_angle_alpha                 99.69198
_cell_angle_beta                  89.563475
_cell_angle_gamma                 90.380266
_cell_volume                      9012.22023246

loop_
_atom_site_label
_atom_site_type_symbol
_atom_type_description
_atom_site_fract_x
_atom_site_fract_y
_atom_site_fract_z
_atom_type_partial_charge
O1    O     O_R   0.494320 0.461440 0.460990 -0.528730
O2    O     O_R   0.821450 0.462560 0.532500 -0.534623
O3    O     O_R   0.994330 0.538560 0.539010 -0.537029
C1    C     C_R   0.651820 0.455222 0.544879 0.740255
O4    O     O_R   0.823870 0.456770 0.460860 -0.545857
O5    O     O_R   0.996760 0.532730 0.466860 -0.536919
C2    C     C_R   0.654592 0.445506 0.448361 0.776501
O6    O     O_R   0.491880 0.467270 0.533140 -0.532436
O7    O     O_3   0.661650 0.524930 0.502050 -0.374708
V1    V     V_3+5 0.935500 0.495380 0.499620 1.442566
O8    O     O_R   0.326630 0.537440 0.467500 -0.544981
C3    C     C_R   0.158946 0.546015 0.456368 0.694136
O9    O     O_R   0.324210 0.543230 0.539140 -0.547479
C4    C     C_R   0.155220 0.553806 0.552058 0.701286
V2    V     V_3+5 0.435810 0.504620 0.500380 1.437954
O10   O     O_3   0.159790 0.475070 0.497950 -0.357610
C5    C     C_R   0.896738 0.817843 0.801675 0.603836
N1    N     N_R   0.050773 0.825386 0.823971 -0.564609
C6    C     C_R   0.214535 0.803147 0.818278 0.585240
C7    C     C_R   0.224887 0.770408 0.790233 -0.112164
C8    C     C_R   0.075522 0.765706 0.764690 -0.002035
C9    C     C_R   0.912211 0.790717 0.769534 -0.012110
C10   C     C_R   0.380237 0.742944 0.786061 -0.038116
C11   C     C_R   0.390663 0.713950 0.755505 -0.137657
C12   C     C_R   0.247260 0.710074 0.729628 -0.073988
C13   C     C_R   0.088756 0.735729 0.734316 -0.006615
C14   C     C_R   0.942988 0.731196 0.708596 -0.005847
C15   C     C_R   0.783971 0.756390 0.713248 -0.214698
C16   C     C_R   0.768589 0.786550 0.742650 -0.030148
C17   C     C_R   0.256457 0.680226 0.699419 0.571009
N2    N     N_R   0.116141 0.677061 0.674068 -0.559375
C18   C     C_R   0.961357 0.701917 0.678195 0.581387
O11   O     O_2   0.728937 0.836232 0.811101 -0.470207
O12   O     O_2   0.367803 0.813576 0.839199 -0.506737
H1    H     H_    0.509675 0.693391 0.752441 0.204842
O13   O     O_2   0.404160 0.654520 0.695500 -0.518850
O14   O     O_2   0.826408 0.698579 0.652752 -0.539774
H2    H     H_    0.672730 0.753459 0.693213 0.149170
C19   C     C_R   0.260764 0.649710 0.615102 0.154749
C20   C     C_R   0.270847 0.618466 0.585872 -0.186578
H3    H     H_    0.371781 0.619541 0.564419 0.133932
C21   C     C_R   0.145445 0.585888 0.583192 -0.097554
C22   C     C_R   0.009869 0.584263 0.610229 -0.195684
H4    H     H_    0.911359 0.559484 0.608681 0.142653
C23   C     C_R   0.003416 0.614032 0.639966 -0.089585
H5    H     H_    0.899924 0.611847 0.660861 0.155736
C24   C     C_R   0.128525 0.646649 0.642945 0.322146
C25   C     C_R   0.055553 0.846889 0.888673 -0.078905
H6    H     H_    0.079715 0.816398 0.891219 0.131250
C26   C     C_R   0.048509 0.875832 0.919209 0.096397
C27   C     C_R   0.007897 0.915312 0.916059 -0.138564
C28   C     C_R   0.975225 0.925198 0.882086 -0.088448
C29   C     C_R   0.008852 0.896506 0.851180 -0.015237
C30   C     C_R   0.037587 0.856561 0.854704 0.249812
C31   C     C_R   0.884232 0.849733 0.171590 0.581296
O15   O     O_2   0.733863 0.874403 0.171664 -0.525295
N3    N     N_R   0.029185 0.849485 0.146936 -0.553540
C32   C     C_R   0.184371 0.824970 0.147105 0.583326
C33   C     C_R   0.859062 0.875327 0.098757 -0.086833
C34   C     C_R   0.850173 0.900871 0.073887 -0.211731
C35   C     C_R   0.165875 0.926635 0.091916 -0.204682
C36   C     C_R   0.172872 0.901717 0.117260 -0.086495
C37   C     C_R   0.020117 0.875602 0.120886 0.353538
C38   C     C_R   0.052166 0.800166 0.198339 -0.048081
C39   C     C_R   0.892132 0.824842 0.197334 -0.039973
C40   C     C_R   0.744035 0.824459 0.222196 -0.127989
C41   C     C_R   0.199714 0.800423 0.172970 -0.031152
C42   C     C_R   0.003953 0.926714 0.070066 -0.052051
H7    H     H_    0.286174 0.946346 0.089842 0.132251
H8    H     H_    0.297614 0.902849 0.134215 0.158138
H9    H     H_    0.618556 0.842983 0.221988 0.172245
C43   C     C_R   0.153700 0.573007 0.430090 -0.070430
C44   C     C_R   0.924769 0.749999 0.275849 0.026293
C45   C     C_R   0.243572 0.726822 0.252180 0.029959
C46   C     C_R   0.090613 0.726207 0.277021 0.069638
C47   C     C_R   0.776501 0.747798 0.301104 -0.179627
C48   C     C_R   0.788697 0.722599 0.325902 -0.114827
C49   C     C_R   0.950840 0.699107 0.327264 -0.042703
C50   C     C_R   0.103741 0.701466 0.303388 -0.045577
C51   C     C_R   0.269549 0.678871 0.305866 -0.047091
C52   C     C_R   0.283088 0.655880 0.332956 0.597916
N4    N     N_R   0.130363 0.652946 0.355435 -0.537922
C53   C     C_R   0.963356 0.673184 0.352074 0.661381
C54   C     C_R   0.105295 0.639938 0.418197 0.025503
C55   C     C_R   0.100903 0.612378 0.441467 -0.307020
C56   C     C_R   0.210687 0.560493 0.394435 0.084783
C57   C     C_R   0.193844 0.587123 0.370347 -0.104137
C58   C     C_R   0.142815 0.626819 0.381589 0.320157
O16   O     O_2   0.809302 0.668283 0.372608 -0.499293
C59   C     C_R   0.912708 0.775063 0.249742 0.028111
C60   C     C_R   0.064773 0.775336 0.224651 0.065420
C61   C     C_R   0.229366 0.751107 0.225527 0.028447
C62   C     C_R   0.753275 0.800086 0.247705 -0.177058
H10   H     H_    0.066621 0.622099 0.469242 0.111922
H11   H     H_    0.669493 0.721744 0.344198 0.185184
H12   H     H_    0.646135 0.764701 0.302260 0.135333
H13   H     H_    0.631863 0.801821 0.265509 0.130712
O17   O     O_2   0.323148 0.823944 0.122096 -0.531538
C63   C     C_R   0.359421 0.776124 0.173804 -0.131512
H14   H     H_    0.723899 0.900031 0.057333 0.135539
H15   H     H_    0.740370 0.855213 0.100723 0.163366
H16   H     H_    0.475427 0.775723 0.154653 0.168204
C64   C     C_R   0.406142 0.702889 0.254996 -0.182287
C65   C     C_R   0.418649 0.679641 0.281306 -0.143203
O18   O     O_2   0.448571 0.636732 0.336774 -0.509866
C66   C     C_R   0.374392 0.752061 0.199432 -0.181615
H17   H     H_    0.529235 0.701713 0.237631 0.128095
H18   H     H_    0.547130 0.662150 0.282270 0.169343
H19   H     H_    0.225251 0.577693 0.342549 0.150168
H20   H     H_    0.502710 0.734484 0.197801 0.128410
C67   C     C_R   0.668181 0.311474 0.638744 0.579606
O19   O     O_2   0.721945 0.297360 0.605084 -0.520911
N5    N     N_R   0.619020 0.350463 0.648276 -0.551531
C68   C     C_R   0.557723 0.364572 0.682245 0.589351
C69   C     C_R   0.467323 0.400552 0.617951 -0.071685
C70   C     C_R   0.475335 0.428366 0.594895 -0.056395
C71   C     C_R   0.795850 0.404537 0.576363 -0.115297
C72   C     C_R   0.791067 0.379389 0.601472 -0.048686
C73   C     C_R   0.625680 0.376645 0.622211 0.304812
C74   C     C_R   0.589407 0.299402 0.698095 -0.045955
C75   C     C_R   0.659720 0.285672 0.663700 -0.030875
C76   C     C_R   0.717847 0.246399 0.654772 -0.121389
C77   C     C_R   0.533925 0.339023 0.707102 -0.029382
C78   C     C_R   0.639521 0.429317 0.572457 -0.138911
H21   H     H_    0.923876 0.404720 0.560049 0.162754
H22   H     H_    0.916879 0.361913 0.604642 0.148034
H23   H     H_    0.774730 0.235106 0.628631 0.172644
C79   C     C_R   0.512892 0.071349 0.928590 -0.131366
C80   C     C_R   0.614550 0.207773 0.739348 0.048568
C81   C     C_R   0.515792 0.263671 0.784436 0.032060
C82   C     C_R   0.561564 0.223316 0.774862 0.055166
C83   C     C_R   0.650695 0.166896 0.730628 -0.174036
C84   C     C_R   0.640953 0.142556 0.756105 -0.121861
C85   C     C_R   0.594251 0.157826 0.791318 -0.013735
C86   C     C_R   0.555757 0.198379 0.801081 -0.068612
C87   C     C_R   0.511816 0.213870 0.836939 -0.069564
C88   C     C_R   0.486031 0.186865 0.860969 0.570099
N6    N     N_R   0.526880 0.147611 0.850894 -0.547055
C89   C     C_R   0.584151 0.133097 0.816929 0.538612
C90   C     C_R   0.388336 0.088773 0.873224 0.119091
C91   C     C_R   0.402621 0.061355 0.897104 -0.093206
C92   C     C_R   0.629191 0.105890 0.933245 -0.083790
C93   C     C_R   0.635509 0.129145 0.906599 -0.210420
C94   C     C_R   0.515866 0.121518 0.876947 0.356292
O20   O     O_2   0.626592 0.094497 0.807681 -0.528374
C95   C     C_R   0.632080 0.233602 0.713994 0.045000
C96   C     C_R   0.574341 0.273583 0.723420 0.052525
C97   C     C_R   0.500028 0.287898 0.757823 0.039893
C98   C     C_R   0.706084 0.220965 0.679410 -0.170315
H24   H     H_    0.669464 0.111412 0.747904 0.176551
H25   H     H_    0.683425 0.152463 0.704080 0.126545
H26   H     H_    0.759601 0.191622 0.670579 0.125706
O21   O     O_2   0.520667 0.403340 0.692193 -0.516379
C99   C     C_R   0.445245 0.351889 0.739887 -0.202880
H27   H     H_    0.339472 0.398527 0.633956 0.173575
H28   H     H_    0.385931 0.381384 0.745673 0.165624
C100  C     C_R   0.503309 0.279403 0.820730 -0.093874
C101  C     C_R   0.498315 0.255545 0.847003 0.132122
O22   O     O_2   0.414354 0.199092 0.893729 -0.534247
C102  C     C_R   0.413551 0.326066 0.763951 -0.024571
H29   H     H_    0.503449 0.311004 0.829232 0.120819
H30   H     H_    0.729793 0.154727 0.909481 0.131847
C103  C     C_R   0.478020 0.166099 0.207827 0.544026
N7    N     N_R   0.500651 0.176432 0.174914 -0.551235
C104  C     C_R   0.517491 0.215337 0.171187 0.569166
C105  C     C_R   0.520610 0.245296 0.201208 -0.032824
C106  C     C_R   0.511860 0.234799 0.235176 -0.019811
C107  C     C_R   0.490066 0.194895 0.238618 -0.026374
C108  C     C_R   0.536226 0.285345 0.198101 -0.140531
C109  C     C_R   0.544944 0.314484 0.228299 -0.143328
C110  C     C_R   0.542094 0.304248 0.262354 -0.024887
C111  C     C_R   0.526065 0.264264 0.265769 -0.017118
C112  C     C_R   0.525856 0.253642 0.299687 -0.032933
C113  C     C_R   0.503965 0.213678 0.302811 -0.137302
C114  C     C_R   0.483977 0.184723 0.272670 -0.139824
C115  C     C_R   0.555751 0.333055 0.293119 0.562657
N8    N     N_R   0.564053 0.322314 0.326110 -0.546396
C116  C     C_R   0.550195 0.283234 0.329651 0.580576
O23   O     O_2   0.444662 0.128104 0.210775 -0.533211
O24   O     O_2   0.534960 0.224992 0.138583 -0.518294
H31   H     H_    0.542180 0.294324 0.172324 0.171515
H32   H     H_    0.557075 0.345012 0.224832 0.169871
O25   O     O_2   0.559325 0.371540 0.289971 -0.532518
O26   O     O_2   0.563361 0.272795 0.361966 -0.518894
H33   H     H_    0.501938 0.204620 0.328567 0.174611
H34   H     H_    0.467571 0.154268 0.276134 0.172342
C117  C     C_R   0.465826 0.354758 0.386414 -0.178814
H35   H     H_    0.348500 0.333674 0.385528 0.145161
C118  C     C_R   0.493329 0.382998 0.417050 -0.099095
C119  C     C_R   0.640637 0.412261 0.417747 -0.094132
C120  C     C_R   0.764066 0.410532 0.387595 0.062259
C121  C     C_R   0.741656 0.379795 0.358591 -0.120212
H36   H     H_    0.838616 0.377887 0.336069 0.141216
C122  C     C_R   0.590653 0.352407 0.357257 0.340025
C123  C     C_R   0.360225 0.143667 0.118806 -0.131522
H37   H     H_    0.246333 0.165184 0.122312 0.143137
C124  C     C_R   0.356870 0.113827 0.089252 -0.183393
H38   H     H_    0.237552 0.112540 0.071020 0.150502
C125  C     C_R   0.506589 0.086345 0.082995 -0.061094
C126  C     C_R   0.661868 0.089815 0.106733 -0.220849
H39   H     H_    0.778816 0.068850 0.101858 0.123196
C127  C     C_R   0.664798 0.119259 0.137300 0.157721
C128  C     C_R   0.508546 0.146066 0.143758 0.372013
O27   O     O_R   0.662230 0.032770 0.966890 -0.525504
O28   O     O_R   0.330090 0.043230 0.039150 -0.550615
O29   O     O_R   0.157350 0.967260 0.033130 -0.543465
C129  C     C_R   0.498662 0.054008 0.051984 0.742623
O30   O     O_R   0.332650 0.037450 0.967510 -0.541332
O31   O     O_R   0.159930 0.961430 0.960980 -0.516325
C130  C     C_R   0.502408 0.045932 0.956289 0.866525
O32   O     O_R   0.659640 0.038600 0.039040 -0.528040
O33   O     O_3   0.492510 0.975090 0.997960 -0.376417
V3    V     V_3+5 0.218600 0.004620 0.000380 1.465328
O34   O     O_R   0.830050 0.956730 0.960830 -0.544735
C131  C     C_R   0.998883 0.946255 0.948060 0.699200
O35   O     O_R   0.827490 0.962520 0.032470 -0.549024
C132  C     C_R   0.995651 0.953856 0.043728 0.682156
V4    V     V_3+5 0.718310 0.995320 0.999580 1.471530
O36   O     O_3   0.994270 0.024900 0.002040 -0.362461
C133  C     C_2   0.524872 0.740957 0.814152 0.445588
H40   H     H_    0.489420 0.750527 0.841845 0.098408
O37   O     O_2   0.684417 0.727085 0.806728 -0.537742
C134  C     C_3   0.079683 0.863383 0.954842 -0.367160
C135  C     C_3   0.293489 0.864093 0.963867 -0.691101
H41   H     H_    0.373816 0.843279 0.943659 0.233183
H42   H     H_    0.354019 0.894224 0.964955 0.240967
H43   H     H_    0.312773 0.855103 0.990143 0.210278
H44   H     H_    0.999979 0.882690 0.976246 0.161012
H45   H     H_    0.022270 0.833063 0.954478 0.181966
C136  C     C_2   0.895117 0.964773 0.879585 0.542945
H46   H     H_    0.919883 0.989730 0.900503 -0.022922
O38   O     O_2   0.791573 0.969526 0.855030 -0.474956
C137  C     C_2   0.033552 0.908205 0.815634 0.581858
H47   H     H_    0.012455 0.887103 0.791595 0.059095
O39   O     O_2   0.089565 0.941226 0.812675 -0.495170
C138  C     C_2   0.080056 0.682093 0.433776 0.470845
H48   H     H_    0.014896 0.689982 0.459854 0.032147
O40   O     O_2   0.138637 0.708415 0.418621 -0.513357
C139  C     C_3   0.300411 0.519953 0.383512 -0.357006
C140  C     C_3   0.318195 0.505294 0.343593 -0.754078
H49   H     H_    0.177914 0.507192 0.330285 0.229221
H50   H     H_    0.428943 0.522697 0.331786 0.241321
H51   H     H_    0.363145 0.473914 0.338845 0.232547
H52   H     H_    0.445746 0.520769 0.395338 0.188915
H53   H     H_    0.216040 0.497761 0.395012 0.168314
C141  C     C_2   0.312405 0.021405 0.887608 0.389041
H54   H     H_    0.192475 0.016455 0.869562 0.085005
O41   O     O_2   0.377919 0.992765 0.898337 -0.520667
C142  C     C_3   0.231950 0.084155 0.845172 -0.327601
C143  C     C_3   0.033656 0.091825 0.862357 -0.743892
H55   H     H_    0.005787 0.073341 0.882984 0.209954
H56   H     H_    0.022159 0.123361 0.874661 0.228719
H57   H     H_    0.921762 0.084989 0.841817 0.281584
H58   H     H_    0.248128 0.105300 0.826530 0.207069
H59   H     H_    0.237880 0.054454 0.828550 0.213322
C144  C     C_2   0.318066 0.457888 0.597301 0.404994
H60   H     H_    0.341130 0.486107 0.588934 0.049015
O42   O     O_2   0.161569 0.451670 0.610110 -0.539454
C145  C     C_2   0.606422 0.814218 0.742011 0.502439
H61   H     H_    0.466194 0.802907 0.732743 0.017430
O43   O     O_2   0.631083 0.849846 0.749056 -0.486496
C146  C     C_2   0.745106 0.119713 0.965483 0.385244
H62   H     H_    0.865515 0.139717 0.964065 0.060847
O44   O     O_2   0.703627 0.110733 0.994132 -0.532550
C147  C     C_3   0.491054 0.276816 0.885073 -0.316470
C148  C     C_3   0.283691 0.286021 0.897135 -0.644671
H63   H     H_    0.218288 0.306441 0.881028 0.226123
H64   H     H_    0.195079 0.258721 0.894338 0.254307
H65   H     H_    0.282096 0.300375 0.925367 0.208643
H66   H     H_    0.566699 0.260416 0.903364 0.215069
H67   H     H_    0.571885 0.305159 0.887465 0.156586
C149  C     C_2   0.264566 0.338431 0.791536 0.346661
H68   H     H_    0.243704 0.369523 0.801784 0.055822
O45   O     O_2   0.156222 0.314326 0.801479 -0.523285
C150  C     C_3   0.380582 0.687189 0.616880 -0.330889
C151  C     C_3   0.519193 0.688480 0.585843 -0.697912
H69   H     H_    0.626097 0.664309 0.583975 0.241145
H70   H     H_    0.438609 0.686263 0.560628 0.209154
H71   H     H_    0.598703 0.716989 0.590183 0.240678
H72   H     H_    0.281095 0.712631 0.618556 0.178302
H73   H     H_    0.466665 0.691548 0.641453 0.242901
C152  C     C_2   0.366731 0.379622 0.447838 0.417615
H74   H     H_    0.225310 0.366082 0.443479 0.046274
O46   O     O_2   0.421880 0.389721 0.478229 -0.523222
C153  C     C_3   0.910435 0.442438 0.383802 -0.361779
C154  C     C_3   0.810027 0.480593 0.379014 -0.728307
H75   H     H_    0.749260 0.495714 0.404503 0.207053
H76   H     H_    0.912660 0.501116 0.369329 0.227683
H77   H     H_    0.694100 0.474176 0.359063 0.240814
H78   H     H_    0.009000 0.447393 0.406756 0.180945
H79   H     H_    0.004076 0.433295 0.360189 0.188049
C155  C     C_3   0.834326 0.120775 0.162374 -0.339928
C156  C     C_3   0.935489 0.160955 0.168957 -0.710012
H80   H     H_    0.938369 0.174333 0.144519 0.235362
H81   H     H_    0.863046 0.181412 0.190407 0.221862
H82   H     H_    0.084946 0.157378 0.177874 0.227749
H83   H     H_    0.786365 0.113029 0.188034 0.221383
H84   H     H_    0.943141 0.098330 0.151398 0.178188

loop_
_geom_bond_atom_site_label_1
_geom_bond_atom_site_label_2
_ccdc_geom_bond_type
C115  O25   S    
C129  O32   A    
C57   C58   A    
C49   C50   A    
C20   H3    S    
O30   V3    S    
C9    C16   A    
C29   C137  S    
C67   C75   A    
C108  C109  A    
C155  H84   S    
C150  C151  S    
C32   O17   S    
C65   H18   S    
C8    C13   A    
C135  H41   S    
C133  O37   D    
C43   C55   A    
V4    O36   S    
N6    C89   A    
C86   C87   A    
C148  H65   S    
C48   C49   A    
C28   C29   A    
C25   C30   A    
C1    C78   S    
C152  H74   S    
C104  C105  A    
O33   V4    S    
C51   C65   A    
C81   C100  A    
C71   H21   S    
C15   C16   A    
C54   C138  S    
C71   C78   A    
O35   V4    S    
C44   C59   A    
N5    C68   A    
C156  H82   S    
C82   C86   A    
C113  H33   S    
O5    C3    A    
C17   N2    A    
C113  C114  A    
N4    C58   S    
C31   O15   S    
C123  C128  A    
C109  C110  A    
C143  H56   S    
C93   C94   A    
C12   C17   A    
C138  H48   S    
C36   H8    S    
C153  C154  S    
C5    N1    A    
N1    C6    A    
C97   C102  A    
C45   C61   A    
C76   H23   S    
C63   C66   A    
C103  O23   S    
C72   C73   A    
C84   C85   A    
C64   C65   A    
C79   C130  S    
N5    C73   S    
O8    V2    S    
C49   C53   A    
C100  C101  A    
C89   O20   S    
C96   C97   A    
C126  H39   S    
C144  O42   D    
C84   H24   S    
C10   C11   A    
C7    C10   A    
C11   C12   A    
N3    C37   S    
C139  H52   S    
O1    V2    S    
O30   C130  A    
C147  C148  S    
C93   H30   S    
C99   H28   S    
C154  H77   S    
C74   C77   A    
C41   C63   A    
C4    C21   S    
C80   C83   A    
C87   C101  A    
C143  H57   S    
C20   C21   A    
C3    C43   S    
O28   V3    S    
C125  C126  A    
O29   C132  A    
C101  C147  S    
C112  C113  A    
C8    C9    A    
C109  H32   S    
C127  C155  S    
C44   C46   A    
O34   V4    S    
N7    C104  A    
C155  H83   S    
C35   C36   A    
C5    O11   S    
C85   C89   A    
C104  O24   S    
O7    V1    S    
C125  C129  S    
C133  H40   S    
C31   C39   A    
C91   C141  S    
C52   N4    A    
C141  O41   D    
C23   C24   A    
C139  C140  S    
V3    O36   S    
C53   O16   S    
C52   O18   S    
C26   C134  S    
C102  C149  S    
C11   H1    S    
C75   C76   A    
C127  C128  A    
C88   O22   S    
C19   C20   A    
C81   C97   A    
C27   C28   A    
C33   H15   S    
C76   C98   A    
C54   C58   A    
C54   C55   A    
O35   C132  A    
C68   O21   S    
C134  C135  S    
N8    C122  S    
C98   H26   S    
C60   C61   A    
O4    C2    A    
O34   C131  A    
C83   C84   A    
C146  O44   D    
C145  O43   D    
C143  H55   S    
C23   H5    S    
C153  H78   S    
C48   H11   S    
C140  H51   S    
O31   V3    S    
C120  C121  A    
O27   V4    S    
C121  C122  A    
C110  C115  A    
O2    C1    A    
C147  H66   S    
C38   C41   A    
C119  C120  A    
C99   C102  A    
C156  H80   S    
N7    C128  S    
C137  H47   S    
C95   C98   A    
C137  O39   D    
C55   H10   S    
C62   H13   S    
C150  H72   S    
C40   H9    S    
C151  H71   S    
C15   H2    S    
C144  H60   S    
C7    C8    A    
C36   C37   A    
C140  H50   S    
C26   C27   A    
C142  C143  S    
C67   N5    A    
C33   C34   A    
O31   C131  A    
C18   O14   S    
C47   C48   A    
C124  C125  A    
C136  O38   D    
C22   C23   A    
C110  C111  A    
C108  H31   S    
C80   C95   A    
C106  C111  A    
O3    C4    A    
C148  H64   S    
C74   C96   A    
C40   C62   A    
N2    C24   S    
C68   C77   A    
O29   V3    S    
C61   C66   A    
C115  N8    A    
C151  H70   S    
C142  H59   S    
O6    V2    S    
C69   C73   A    
C31   N3    A    
C117  C122  A    
C13   C14   A    
C105  C106  A    
C44   C47   A    
C123  C124  A    
C50   C51   A    
C21   C22   A    
C149  H68   S    
C145  H61   S    
O2    V1    S    
C135  H43   S    
C100  H29   S    
C45   C46   A    
C106  C107  A    
C111  C112  A    
C56   C57   A    
C59   C62   A    
C19   C24   A    
C95   C96   A    
C66   H20   S    
C27   C131  S    
C118  C119  A    
C136  H46   S    
O32   V4    S    
C141  H54   S    
C25   H6    S    
C70   C78   A    
C67   O19   S    
C69   H27   S    
C14   C18   A    
O1    C2    A    
C33   C37   A    
N2    C18   A    
C90   C142  S    
C90   C94   A    
C70   C144  S    
C64   H17   S    
C51   C52   A    
C34   H14   S    
C6    O12   S    
C135  H42   S    
O5    V1    S    
C43   C56   A    
O8    C3    A    
C1    O6    A    
C29   C30   A    
C146  H62   S    
C57   H19   S    
C72   H22   S    
C10   C133  S    
C155  C156  S    
C88   N6    A    
C153  H79   S    
C85   C86   A    
C152  O46   D    
C5    C9    A    
C56   C139  S    
C17   O13   S    
C139  H53   S    
C34   C42   A    
C35   H7    S    
C121  H36   S    
C6    C7    A    
O9    V2    S    
C81   C82   A    
C12   C13   A    
C103  C107  A    
O4    V1    S    
C156  H81   S    
O3    V1    S    
V1    O10   S    
C71   C72   A    
C47   H12   S    
C114  H34   S    
C154  H76   S    
C151  H69   S    
C134  H44   S    
C35   C42   A    
C28   C136  S    
C59   C60   A    
C154  H75   S    
C79   C92   A    
C112  C116  A    
C22   H4    S    
C90   C91   A    
V2    O10   S    
C38   C39   A    
C25   C26   A    
C140  H49   S    
C138  O40   D    
C42   C132  S    
C107  C114  A    
C79   C91   A    
C39   C40   A    
C147  H67   S    
C124  H38   S    
C150  H73   S    
C117  C118  A    
C103  N7    A    
C148  H63   S    
N1    C30   S    
C123  H37   S    
C16   C145  S    
C118  C152  S    
C134  H45   S    
C32   C41   A    
C142  H58   S    
C63   H16   S    
O33   V3    S    
C117  H35   S    
C105  C108  A    
C149  O45   D    
N8    C116  A    
O27   C130  A    
C14   C15   A    
C92   C93   A    
C83   H25   S    
C120  C153  S    
C74   C75   A    
C87   C88   A    
N6    C94   S    
C2    C119  S    
C92   C146  S    
C38   C60   A    
N4    C53   A    
N3    C32   A    
O9    C4    A    
O28   C129  A    
C46   C50   A    
C126  C127  A    
C116  O26   S    
C69   C70   A    
O7    V2    S    
C19   C150  S    
C45   C64   A    
C80   C82   A    
C77   C99   A    
