data_mof_unit_52772.cif
_audit_creation_date              2012-12-10T17:22:41-0500
_audit_creation_method            fapswitch 2.2
_symmetry_space_group_name_H-M    P1
_symmetry_Int_Tables_number       1
_space_group_crystal_system       triclinic
_cell_length_a                    10.643114
_cell_length_b                    10.810298
_cell_length_c                    9.67301
_cell_angle_alpha                 90.983085
_cell_angle_beta                  89.871828
_cell_angle_gamma                 95.574181
_cell_volume                      1107.50445775

loop_
_atom_site_label
_atom_site_type_symbol
_atom_type_description
_atom_site_fract_x
_atom_site_fract_y
_atom_site_fract_z
_atom_type_partial_charge
C1    C     C_R   0.503820 0.261699 0.499173 0.869886
C2    C     C_3   0.959812 0.496990 0.367552 -0.223562
C3    C     C_3   0.032438 0.396195 0.435732 -0.189493
C4    C     C_3   0.123311 0.500387 0.500642 -0.128428
C5    C     C_R   0.570902 0.114006 0.744947 0.539496
C6    C     C_R   0.545802 0.059064 0.874314 0.233827
C7    C     C_R   0.466143 0.948987 0.880506 0.551723
C8    C     C_R   0.423761 0.885784 0.760213 0.289986
C9    C     C_R   0.462135 0.934989 0.629861 -0.194671
C10   C     C_R   0.512735 0.059669 0.623765 -0.171157
C11   C     C_R   0.499824 0.124334 0.498192 -0.140099
C12   C     C_R   0.259812 0.499410 0.500161 0.778126
C13   C     C_R   0.456227 0.056758 0.377594 0.405967
C14   C     C_R   0.433774 0.926603 0.381453 0.312372
C15   C     C_R   0.452757 0.865214 0.505443 -0.243149
C16   C     C_R   0.651953 0.696496 0.142936 0.423681
C17   C     C_R   0.697068 0.801537 0.069293 -0.338121
C18   C     C_R   0.701095 0.796711 0.929168 0.523903
C19   C     C_R   0.651098 0.691515 0.859251 0.563402
C20   C     C_R   0.574041 0.593733 0.926063 -0.056003
C21   C     C_R   0.574400 0.594685 0.075991 0.011641
C22   C     C_R   0.427829 0.414060 0.071891 0.720462
C23   C     C_R   0.482588 0.734544 0.501429 0.864457
C24   C     C_R   0.428648 0.413684 0.924854 -0.094576
C25   C     C_R   0.740356 0.500543 0.499756 0.959980
C26   C     C_3   0.041998 0.504596 0.632419 -0.270355
C27   C     C_3   0.949322 0.402324 0.565807 0.624775
C28   C     C_3   0.877388 0.501153 0.498549 -0.141489
C29   C     C_3   0.970361 0.602600 0.561431 0.386429
C30   C     C_3   0.053600 0.601271 0.431670 -0.214386
Cu1   Cu    Cu3+1 0.499990 0.499990 0.640660 1.079170
Cu2   Cu    Cu3+1 0.500010 0.500010 0.359340 1.089588
H1    H     H_    0.746412 0.881800 0.120819 0.213206
H2    H     H_    0.369505 0.342635 0.869091 0.151512
H3    H     H_    0.076550 0.508512 0.740769 0.190842
H4    H     H_    0.098990 0.684174 0.378416 0.156946
H5    H     H_    0.924272 0.493802 0.259596 0.202357
H6    H     H_    0.060746 0.310292 0.384949 0.190092
N1    N     N_R   0.501210 0.501210 0.147910 -0.218929
N2    N     N_R   0.501250 0.501290 0.852040 -0.180084
O1    O     O_R   0.499990 0.319640 0.618810 -0.569465
O2    O     O_R   0.500000 0.319660 0.381240 -0.498128
O3    O     O_R   0.316850 0.499960 0.618770 -0.594552
O4    O     O_R   0.316860 0.499980 0.381190 -0.553670
O5    O     O_R   0.500000 0.680340 0.618760 -0.502772
O6    O     O_R   0.500010 0.680360 0.381190 -0.529109
O7    O     O_R   0.683140 0.500020 0.618810 -0.470298
O8    O     O_R   0.683150 0.500040 0.381230 -0.555097
F1    F     F_    0.893933 0.299590 0.633680 -0.578180
F2    F     F_    0.433453 0.899556 0.004317 -0.589285
O9    O     O_3   0.337544 0.782699 0.774409 -0.655942
H7    H     H_    0.290982 0.767282 0.686181 0.308221
O10   O     O_3   0.388319 0.862158 0.264868 -0.639686
H8    H     H_    0.331608 0.789108 0.294351 0.325507
F3    F     F_    0.350279 0.327411 0.137743 -0.623047
O11   O     O_3   0.700420 0.689417 0.273000 -0.666201
H9    H     H_    0.752272 0.766895 0.301739 0.327249
F4    F     F_    0.766664 0.890517 0.860100 -0.577189
F5    F     F_    0.693317 0.688861 0.729622 -0.574866
O12   O     O_3   0.935402 0.710805 0.625696 -0.615087
H10   H     H_    0.015450 0.756792 0.657720 0.339180
O13   O     O_3   0.434628 0.120049 0.258206 -0.616325
H11   H     H_    0.391104 0.063652 0.188232 0.421928
F6    F     F_    0.659720 0.212663 0.736641 -0.584924
O14   O     O_3   0.595693 0.110860 0.996097 -0.633986
H12   H     H_    0.645338 0.190944 0.976473 0.376403

loop_
_geom_bond_atom_site_label_1
_geom_bond_atom_site_label_2
_ccdc_geom_bond_type
C8    C9    A    
C1    O1    A    
C4    C26   S    
C24   H2    S    
C16   O11   S    
C6    C7    A    
C23   O5    A    
C4    C12   S    
C29   C30   S    
C11   C13   A    
C9    C10   A    
C25   O7    A    
C19   C20   A    
C21   N1    A    
C29   O12   S    
C30   H4    S    
C2    C30   S    
O13   H11   S    
C15   C23   S    
C17   C18   A    
Cu2   O4    S    
C22   F3    S    
C5    C10   A    
C12   O4    A    
C23   O6    A    
Cu1   O7    S    
O10   H8    S    
C20   C21   A    
C25   C28   S    
C17   H1    S    
Cu2   O8    S    
C2    H5    S    
C26   C27   S    
C16   C21   A    
Cu1   O3    S    
C22   N1    A    
C3    C27   S    
C28   C29   S    
C24   N2    A    
C2    C3    S    
C12   O3    A    
C25   O8    A    
C9    C15   A    
C5    C6    A    
C20   N2    A    
C22   C24   A    
C16   C17   A    
C10   C11   A    
C3    C4    S    
C27   F1    S    
C1    O2    A    
C7    C8    A    
C14   O10   S    
O9    H7    S    
Cu1   N2    S    
C7    F2    S    
C26   C29   S    
O14   H12   S    
Cu1   O5    S    
Cu2   N1    S    
C8    O9    S    
C26   H3    S    
O11   H9    S    
Cu2   O2    S    
C14   C15   A    
C18   C19   A    
C2    C28   S    
Cu1   O1    S    
C19   F5    S    
C13   C14   A    
Cu2   O6    S    
C18   F4    S    
C6    O14   S    
C4    C30   S    
C13   O13   S    
Cu1   Cu2   S    
C5    F6    S    
C3    H6    S    
O12   H10   S    
C27   C28   S    
C1    C11   S    
