data_mof_unit_18646.cif
_audit_creation_date              2012-12-10T17:34:58-0500
_audit_creation_method            fapswitch 2.2
_symmetry_space_group_name_H-M    P1
_symmetry_Int_Tables_number       1
_space_group_crystal_system       triclinic
_cell_length_a                    12.429247
_cell_length_b                    13.257626
_cell_length_c                    13.88945
_cell_angle_alpha                 106.447323
_cell_angle_beta                  74.245901
_cell_angle_gamma                 116.711057
_cell_volume                      1932.84149058

loop_
_atom_site_label
_atom_site_type_symbol
_atom_type_description
_atom_site_fract_x
_atom_site_fract_y
_atom_site_fract_z
_atom_type_partial_charge
C1    C     C_R   0.144115 0.714562 0.513598 0.777418
C2    C     C_1   0.979834 0.512032 0.791608 -0.144948
C3    C     C_R   0.727872 0.964208 0.489444 0.199185
C4    C     C_R   0.775076 0.162158 0.482170 -0.105679
C5    C     C_R   0.184579 0.909379 0.490098 -0.192377
C6    C     C_R   0.266737 0.016885 0.466160 0.233993
C7    C     C_R   0.392025 0.052958 0.462554 -0.167939
C8    C     C_R   0.436945 0.986172 0.489941 0.061427
C9    C     C_R   0.351376 0.881219 0.520802 0.076946
C10   C     C_R   0.564010 0.019241 0.487888 0.049002
C11   C     C_R   0.602515 0.940534 0.504011 0.105565
C12   C     C_R   0.984932 0.505023 0.686204 0.801237
C13   C     C_R   0.515075 0.844944 0.544648 -0.180191
C14   C     C_R   0.392620 0.822080 0.560570 -0.158070
C15   C     C_R   0.652807 0.128935 0.475083 -0.291845
C16   C     C_R   0.814297 0.078624 0.487826 0.162692
C17   C     C_R   0.226375 0.838132 0.513155 -0.143504
C18   C     C_R   0.637999 0.676150 0.662324 0.084501
C19   C     C_R   0.255134 0.360467 0.355676 0.031815
C20   C     C_R   0.362217 0.343362 0.310289 0.099248
C21   C     C_R   0.467920 0.406824 0.356824 0.163954
C22   C     C_R   0.456847 0.470744 0.458377 -0.038030
C23   C     C_R   0.856347 0.285824 0.487327 0.812518
C24   C     C_R   0.346414 0.489123 0.496667 0.208613
C25   C     C_R   0.551294 0.523946 0.521755 -0.075900
C26   C     C_R   0.536815 0.601667 0.613902 0.007853
C27   C     C_R   0.422129 0.604935 0.653138 0.115432
C28   C     C_R   0.335653 0.558657 0.591389 -0.224184
C29   C     C_R   0.656257 0.499366 0.502184 -0.011515
C30   C     C_R   0.743135 0.653556 0.634666 0.308394
C31   C     C_R   0.014767 0.494458 0.313733 0.825647
C32   C     C_1   0.018389 0.484324 0.207977 -0.182067
C33   C     C_2   0.018719 0.460238 0.012712 0.188975
C34   C     C_2   0.980508 0.526094 0.984745 -0.145336
C35   C     C_1   0.978643 0.518604 0.879890 0.043704
C36   C     C_1   0.019328 0.473665 0.118974 0.004717
Cu1   Cu    Cu3+1 0.899780 0.525060 0.522890 0.938908
Cu2   Cu    Cu3+1 0.100220 0.474940 0.477110 0.937156
H1    H     H_    0.951564 0.588556 0.041558 0.130653
H2    H     H_    0.329650 0.758714 0.605424 0.156837
H3    H     H_    0.663818 0.427037 0.445931 0.152818
H4    H     H_    0.176323 0.316740 0.317703 0.145083
H5    H     H_    0.261481 0.582253 0.621110 0.208523
H6    H     H_    0.541434 0.792096 0.571084 0.185061
H7    H     H_    0.627132 0.193325 0.467293 0.162995
H8    H     H_    0.088846 0.879546 0.486149 0.162713
H9    H     H_    0.452002 0.132903 0.437245 0.127564
N1    N     N_R   0.748810 0.563010 0.557590 -0.189729
N2    N     N_R   0.250540 0.437620 0.443020 -0.214464
O1    O     O_R   0.025040 0.682470 0.528790 -0.587140
O2    O     O_R   0.194310 0.640150 0.490130 -0.576870
O3    O     O_R   0.903380 0.524130 0.659910 -0.575287
O4    O     O_R   0.072660 0.481800 0.621240 -0.591002
O5    O     O_R   0.805690 0.359850 0.509870 -0.582495
O6    O     O_R   0.974960 0.317530 0.471210 -0.584818
O7    O     O_R   0.927340 0.518200 0.378760 -0.576247
O8    O     O_R   0.096620 0.475870 0.340090 -0.571965
C37   C     C_3   0.846603 0.732683 0.693249 -0.726371
H10   H     H_    0.917330 0.703413 0.686721 0.259877
H11   H     H_    0.891540 0.817658 0.669596 0.210616
H12   H     H_    0.810307 0.743953 0.776161 0.222178
I1    I     I_    0.351357 0.645798 0.810718 -0.353908
I2    I     I_    0.650105 0.841145 0.756473 -0.385020
C38   C     C_3   0.590389 0.417680 0.290912 -0.854046
H13   H     H_    0.665056 0.500395 0.315868 0.231731
H14   H     H_    0.609957 0.343236 0.289121 0.223403
H15   H     H_    0.591465 0.420573 0.211659 0.245276
C39   C     C_3   0.362458 0.259525 0.210721 -0.858964
H16   H     H_    0.268406 0.205519 0.193954 0.223459
H17   H     H_    0.415977 0.306256 0.146975 0.247601
H18   H     H_    0.402326 0.200945 0.214378 0.250032
C40   C     C_3   0.057921 0.371038 0.937217 -0.765804
H19   H     H_    0.088182 0.327703 0.975703 0.226200
H20   H     H_    0.980269 0.304881 0.899184 0.228060
H21   H     H_    0.135129 0.412016 0.878843 0.254889
C41   C     C_3   0.944719 0.111720 0.498015 -0.823999
H22   H     H_    0.970636 0.183428 0.563681 0.247530
H23   H     H_    0.958915 0.042015 0.514134 0.229867
H24   H     H_    0.007071 0.136558 0.426560 0.239274
C42   C     C_3   0.769319 0.867713 0.471997 -0.877077
H25   H     H_    0.697200 0.781613 0.450056 0.231337
H26   H     H_    0.846581 0.876980 0.407251 0.236773
H27   H     H_    0.798686 0.869512 0.541215 0.250495
C43   C     C_3   0.220737 0.092333 0.442306 -0.895336
H28   H     H_    0.168647 0.124091 0.513026 0.244225
H29   H     H_    0.296867 0.168266 0.414073 0.241859
H30   H     H_    0.161733 0.043455 0.383079 0.236300

loop_
_geom_bond_atom_site_label_1
_geom_bond_atom_site_label_2
_ccdc_geom_bond_type
C2    C35   T    
C19   C20   A    
C18   C26   A    
C43   H30   S    
C2    C12   S    
C7    C8    A    
Cu2   N2    S    
C26   C27   A    
C32   C36   T    
C30   N1    A    
C43   H29   S    
C10   C15   A    
C42   H27   S    
C5    C6    A    
C42   H25   S    
C18   I2    S    
C5    C17   A    
C37   H11   S    
C33   C36   S    
C34   C35   S    
C21   C38   S    
C33   C40   S    
Cu1   O7    S    
Cu2   O6    S    
C8    C9    A    
C22   C25   A    
C41   H24   S    
C18   C30   A    
C31   O7    A    
C1    O1    A    
C12   O4    A    
C19   H4    S    
C37   H12   S    
C13   C14   A    
C40   H21   S    
C3    C42   S    
C12   O3    A    
C25   C29   A    
C6    C43   S    
C29   N1    A    
C34   H1    S    
C38   H15   S    
C43   H28   S    
C42   H26   S    
C4    C23   S    
C39   H16   S    
Cu2   O2    S    
C37   H10   S    
C38   H14   S    
C4    C16   A    
C9    C14   A    
Cu1   Cu2   S    
C27   I1    S    
Cu2   O8    S    
C19   N2    A    
C31   C32   S    
C33   C34   D    
C41   H22   S    
Cu1   N1    S    
C1    O2    A    
Cu1   O5    S    
C40   H20   S    
C22   C24   A    
C15   H7    S    
C23   O5    A    
C9    C17   A    
C24   N2    A    
Cu1   O3    S    
C29   H3    S    
C16   C41   S    
C20   C39   S    
C24   C28   A    
C41   H23   S    
C40   H19   S    
C23   O6    A    
C6    C7    A    
C5    H8    S    
C28   H5    S    
C1    C17   S    
C38   H13   S    
C31   O8    A    
C4    C15   A    
C25   C26   A    
Cu1   O1    S    
C11   C13   A    
Cu2   O4    S    
C39   H18   S    
C30   C37   S    
C3    C11   A    
C10   C11   A    
C14   H2    S    
C20   C21   A    
C8    C10   A    
C27   C28   A    
C39   H17   S    
C21   C22   A    
C13   H6    S    
C3    C16   A    
C7    H9    S    
