data_mof_unit_63433.cif
_audit_creation_date              2013-03-05T17:03:32-0500
_audit_creation_method            fapswitch 2.2
_symmetry_space_group_name_H-M    P1
_symmetry_Int_Tables_number       1
_space_group_crystal_system       triclinic
_cell_length_a                    23.638717
_cell_length_b                    23.862596
_cell_length_c                    16.063432
_cell_angle_alpha                 89.960414
_cell_angle_beta                  92.640056
_cell_angle_gamma                 89.963423
_cell_volume                      9051.45773696

loop_
_atom_site_label
_atom_site_type_symbol
_atom_site_description
_atom_site_fract_x
_atom_site_fract_y
_atom_site_fract_z
_atom_type_partial_charge
O1    O     O_R   0.554580 0.058040 0.577230 -0.583199
O2    O     O_R   0.445420 0.941960 0.422770 -0.583296
O3    O     O_R   0.445420 0.058040 0.422770 -0.577155
O4    O     O_R   0.554580 0.941960 0.577230 -0.577181
O5    O     O_R   0.054580 0.558040 0.577230 -0.574573
O6    O     O_R   0.945420 0.441960 0.422770 -0.574576
O7    O     O_R   0.945420 0.558040 0.422770 -0.586999
O8    O     O_R   0.054580 0.441960 0.577230 -0.586997
O9    O     O_R   0.560810 0.058060 0.438340 -0.625598
O10   O     O_R   0.439190 0.941940 0.561660 -0.625474
O11   O     O_R   0.439190 0.058060 0.561660 -0.634240
O12   O     O_R   0.560810 0.941940 0.438340 -0.634244
O13   O     O_R   0.060810 0.558060 0.438340 -0.635367
O14   O     O_R   0.939190 0.441940 0.561660 -0.635387
O15   O     O_R   0.939190 0.558060 0.561660 -0.623187
O16   O     O_R   0.060810 0.441940 0.438340 -0.623183
C1    C     C_R   0.575495 0.077303 0.510438 0.935486
C2    C     C_R   0.424501 0.922704 0.489559 0.935642
C3    C     C_R   0.423560 0.077303 0.489244 0.922338
C4    C     C_R   0.576443 0.922699 0.510756 0.922240
C5    C     C_R   0.076363 0.577309 0.510726 0.922443
C6    C     C_R   0.923636 0.422692 0.489275 0.922478
C7    C     C_R   0.924533 0.577359 0.489535 0.935339
C8    C     C_R   0.075468 0.422642 0.510465 0.935344
Zn1   Zn    Zn3+2 0.495820 1.000000 0.592740 1.020780
Zn2   Zn    Zn3+2 0.504180 0.000000 0.407260 1.020673
Zn3   Zn    Zn3+2 0.995820 0.500000 0.592740 1.021339
Zn4   Zn    Zn3+2 0.004180 0.500000 0.407260 1.021347
C9    C     C_R   0.624551 0.883299 0.516282 -0.277806
C10   C     C_R   0.375458 0.116711 0.483720 -0.277796
C11   C     C_R   0.384807 0.876349 0.486751 -0.265826
C12   C     C_R   0.615197 0.123657 0.513235 -0.266019
C13   C     C_R   0.114844 0.375949 0.513285 -0.265928
C14   C     C_R   0.885160 0.624055 0.486716 -0.265944
C15   C     C_R   0.875886 0.383017 0.483775 -0.277537
C16   C     C_R   0.124109 0.616991 0.516231 -0.277506
C17   C     C_R   0.638935 0.852955 0.444271 -0.203916
C18   C     C_R   0.361092 0.147068 0.555728 -0.203930
C19   C     C_R   0.396017 0.830230 0.539918 -0.203057
C20   C     C_R   0.604113 0.169671 0.459800 -0.203131
C21   C     C_R   0.103060 0.329713 0.460697 -0.201887
C22   C     C_R   0.896942 0.670287 0.539314 -0.201892
C23   C     C_R   0.862258 0.351932 0.555481 -0.203126
C24   C     C_R   0.137708 0.648109 0.444544 -0.203088
C25   C     C_R   0.691697 0.826569 0.442046 0.239541
C26   C     C_R   0.308335 0.173461 0.557966 0.239574
C27   C     C_R   0.352525 0.792863 0.556477 0.241461
C28   C     C_R   0.647657 0.206990 0.443288 0.241319
C29   C     C_R   0.146200 0.291912 0.444039 0.242486
C30   C     C_R   0.853803 0.708091 0.555967 0.242481
C31   C     C_R   0.809842 0.324965 0.557869 0.240374
C32   C     C_R   0.190121 0.675083 0.442142 0.240427
C33   C     C_R   0.728756 0.827968 0.512992 0.097893
C34   C     C_R   0.271260 0.172051 0.487036 0.097922
C35   C     C_R   0.298969 0.799790 0.515278 0.092582
C36   C     C_R   0.701103 0.200167 0.484857 0.092645
C37   C     C_R   0.200019 0.298609 0.484476 0.092556
C38   C     C_R   0.799989 0.701404 0.515512 0.092562
C39   C     C_R   0.772411 0.326610 0.487317 0.097303
C40   C     C_R   0.227593 0.673379 0.512645 0.097275
C41   C     C_R   0.714188 0.855722 0.585630 0.178911
C42   C     C_R   0.285813 0.144288 0.414399 0.178990
C43   C     C_R   0.288118 0.845049 0.460771 0.192438
C44   C     C_R   0.711822 0.155030 0.539636 0.192422
C45   C     C_R   0.211417 0.343954 0.538496 0.193348
C46   C     C_R   0.788594 0.656064 0.461480 0.193344
C47   C     C_R   0.786241 0.355196 0.414981 0.178785
C48   C     C_R   0.213780 0.644775 0.584975 0.178760
C49   C     C_R   0.661345 0.882129 0.588543 0.212012
C50   C     C_R   0.338653 0.117876 0.411471 0.212099
C51   C     C_R   0.331401 0.883357 0.446109 0.174477
C52   C     C_R   0.668511 0.116737 0.554206 0.174522
C53   C     C_R   0.168466 0.382637 0.553297 0.175339
C54   C     C_R   0.831542 0.617376 0.446688 0.175356
C55   C     C_R   0.838737 0.382169 0.411912 0.209161
C56   C     C_R   0.161278 0.617817 0.588071 0.209188
N1    N     N_2   0.774874 0.790974 0.516702 -0.047247
N2    N     N_2   0.225140 0.209043 0.483336 -0.047276
N3    N     N_2   0.256138 0.759382 0.521690 -0.070247
N4    N     N_2   0.743938 0.240573 0.478508 -0.070231
N5    N     N_2   0.242681 0.258011 0.477713 -0.071035
N6    N     N_2   0.757329 0.742004 0.522270 -0.071008
N7    N     N_2   0.726378 0.289582 0.483661 -0.047705
N8    N     N_2   0.273654 0.710374 0.516270 -0.047635
N9    N     N_R   0.509690 1.000000 0.283730 -0.132192
N10   N     N_R   0.490310 1.000000 0.716270 -0.132209
N11   N     N_R   0.009690 0.500000 0.283730 -0.130851
N12   N     N_R   0.990310 0.500000 0.716270 -0.130853
C57   C     C_R   0.460460 0.002069 0.236486 0.023910
C58   C     C_R   0.539536 0.997889 0.763520 0.024113
C59   C     C_R   0.960446 0.502155 0.236496 0.025016
C60   C     C_R   0.039554 0.497847 0.763503 0.025007
C61   C     C_R   0.460431 0.007525 0.149116 0.198042
C62   C     C_R   0.539555 0.992436 0.850889 0.198022
C63   C     C_R   0.960411 0.507526 0.149104 0.194252
C64   C     C_R   0.039590 0.492475 0.850895 0.194246
C65   C     C_R   0.513099 0.008153 0.109876 0.222082
C66   C     C_R   0.486885 0.991854 0.890123 0.222044
C67   C     C_R   0.013074 0.508295 0.109868 0.224808
C68   C     C_R   0.986927 0.491704 0.890132 0.224809
C69   C     C_R   0.563011 0.005841 0.160664 -0.230541
C70   C     C_R   0.436977 0.994207 0.839330 -0.230571
C71   C     C_R   0.062990 0.506213 0.160670 -0.231673
C72   C     C_R   0.937010 0.493785 0.839331 -0.231648
C73   C     C_R   0.560519 0.001752 0.247520 -0.012758
C74   C     C_R   0.439477 0.998293 0.752475 -0.012713
C75   C     C_R   0.060512 0.502040 0.247523 -0.011939
C76   C     C_R   0.939488 0.497959 0.752478 -0.011947
N13   N     N_2   0.518214 0.013206 0.021571 -0.079667
N14   N     N_2   0.481765 0.986801 0.978427 -0.079638
N15   N     N_2   0.018162 0.513305 0.021546 -0.075486
N16   N     N_2   0.981840 0.486695 0.978453 -0.075478
H1    H     H_    0.579060 0.997729 0.732513 0.231076
H2    H     H_    0.420936 0.002191 0.267497 0.231019
H3    H     H_    0.079093 0.497812 0.732501 0.229686
H4    H     H_    0.920907 0.502191 0.267498 0.229689
H5    H     H_    0.603864 0.007255 0.132874 0.218656
H6    H     H_    0.396122 0.992828 0.867116 0.218680
H7    H     H_    0.103839 0.507842 0.132890 0.219415
H8    H     H_    0.896162 0.492155 0.867110 0.219419
H9    H     H_    0.599227 0.000697 0.286141 0.167065
H10   H     H_    0.400772 0.999381 0.713850 0.167093
H11   H     H_    0.099223 0.501205 0.286148 0.167547
H12   H     H_    0.900777 0.498792 0.713852 0.167542
C77   C     C_1   0.400158 0.151681 0.627800 0.381788
N17   N     N_1   0.431333 0.155352 0.685261 -0.105954
C78   C     C_1   0.599883 0.848347 0.372183 0.381833
N18   N     N_1   0.568720 0.844679 0.314709 -0.105995
C79   C     C_1   0.548706 0.177058 0.418433 0.348282
N19   N     N_1   0.504507 0.182921 0.385512 -0.086229
C80   C     C_1   0.451512 0.822772 0.580973 0.348071
N20   N     N_1   0.495780 0.816849 0.613646 -0.086618
C81   C     C_1   0.952664 0.677441 0.579720 0.349188
N21   N     N_1   0.997110 0.683138 0.611884 -0.088918
C82   C     C_1   0.047335 0.322550 0.420306 0.349182
N22   N     N_1   0.002885 0.316847 0.388155 -0.088950
C83   C     C_1   0.098219 0.652823 0.372958 0.377929
N23   N     N_1   0.066702 0.656566 0.315890 -0.110519
C84   C     C_1   0.901723 0.347245 0.627101 0.378040
N24   N     N_1   0.933219 0.343524 0.684195 -0.110532
N25   N     N_R   0.291988 0.203015 0.631371 0.231476
O17   O     O_R   0.240857 0.197915 0.657169 -0.293951
O18   O     O_R   0.326504 0.238247 0.668963 -0.273693
N26   N     N_R   0.708064 0.797033 0.368636 0.231472
O19   O     O_R   0.759200 0.802144 0.342868 -0.293982
O20   O     O_R   0.673559 0.761805 0.331010 -0.273691
N27   N     N_R   0.639251 0.249199 0.380164 0.239443
O21   O     O_R   0.671986 0.250455 0.317279 -0.267564
O22   O     O_R   0.597508 0.284612 0.383120 -0.273027
N28   N     N_R   0.361116 0.750481 0.619292 0.239445
O23   O     O_R   0.328690 0.749145 0.682523 -0.267361
O24   O     O_R   0.402762 0.715007 0.615720 -0.273036
N29   N     N_R   0.863019 0.750640 0.618259 0.239738
O25   O     O_R   0.831312 0.752153 0.682285 -0.262559
O26   O     O_R   0.904620 0.786008 0.613488 -0.273552
N30   N     N_R   0.136980 0.249353 0.381764 0.239741
O27   O     O_R   0.168674 0.247838 0.317723 -0.262550
O28   O     O_R   0.095385 0.213980 0.386561 -0.273556
N31   N     N_R   0.205782 0.705311 0.368927 0.231082
O29   O     O_R   0.256795 0.700842 0.342444 -0.297302
O30   O     O_R   0.170672 0.740377 0.332030 -0.274951
N32   N     N_R   0.794132 0.294807 0.631124 0.231122
O31   O     O_R   0.743091 0.299286 0.657499 -0.297284
O32   O     O_R   0.829231 0.259804 0.668184 -0.274887
N33   N     N_R   0.752476 0.854898 0.657598 0.276055
O33   O     O_R   0.735344 0.838526 0.729499 -0.213183
O34   O     O_R   0.804907 0.870183 0.651126 -0.216479
N34   N     N_R   0.247514 0.145110 0.342443 0.276052
O35   O     O_R   0.264631 0.161495 0.270540 -0.213240
O36   O     O_R   0.195087 0.129814 0.348933 -0.216395
N35   N     N_R   0.233319 0.851228 0.418846 0.271769
O37   O     O_R   0.229043 0.863968 0.340023 -0.200327
O38   O     O_R   0.187386 0.843649 0.459059 -0.277477
N36   N     N_R   0.766518 0.148954 0.581915 0.271846
O39   O     O_R   0.770578 0.136403 0.660818 -0.200301
O40   O     O_R   0.812568 0.156428 0.541939 -0.277328
N37   N     N_R   0.266452 0.349867 0.579775 0.271210
O41   O     O_R   0.271206 0.362849 0.658454 -0.198564
O42   O     O_R   0.312120 0.341797 0.539129 -0.278753
N38   N     N_R   0.733564 0.650160 0.420183 0.271206
O43   O     O_R   0.728820 0.637181 0.341502 -0.198583
O44   O     O_R   0.687890 0.658231 0.460815 -0.278729
N39   N     N_R   0.747533 0.354773 0.343481 0.276237
O45   O     O_R   0.764427 0.339525 0.270932 -0.217355
O46   O     O_R   0.695021 0.369519 0.350948 -0.217401
N40   N     N_R   0.252514 0.645167 0.656443 0.276172
O47   O     O_R   0.235671 0.660469 0.728996 -0.217571
O48   O     O_R   0.304997 0.630327 0.648944 -0.217230
N41   N     N_R   0.645545 0.907406 0.665046 0.236853
O49   O     O_R   0.605567 0.884672 0.706679 -0.322570
O50   O     O_R   0.678257 0.944748 0.701327 -0.228197
N42   N     N_R   0.354436 0.092587 0.334967 0.236907
O51   O     O_R   0.394426 0.115296 0.293331 -0.322633
O52   O     O_R   0.321691 0.055276 0.298678 -0.227998
N43   N     N_R   0.319896 0.931544 0.394910 0.238586
O53   O     O_R   0.342590 0.935580 0.322956 -0.284535
O54   O     O_R   0.281188 0.967261 0.414861 -0.294409
N44   N     N_R   0.679925 0.068629 0.605612 0.238638
O55   O     O_R   0.657130 0.064726 0.677507 -0.284679
O56   O     O_R   0.718720 0.032915 0.585974 -0.294013
N45   N     N_R   0.180507 0.430841 0.604042 0.238474
O57   O     O_R   0.158812 0.434789 0.676713 -0.285380
O58   O     O_R   0.219103 0.466371 0.583146 -0.293576
N46   N     N_R   0.819500 0.569175 0.395937 0.238484
O59   O     O_R   0.841195 0.565230 0.323265 -0.285371
O60   O     O_R   0.780905 0.533645 0.416829 -0.293588
N47   N     N_R   0.853706 0.408601 0.335792 0.239210
O61   O     O_R   0.893590 0.386847 0.292888 -0.320791
O62   O     O_R   0.820372 0.446107 0.301046 -0.224744
N48   N     N_R   0.146320 0.591386 0.664197 0.239208
O63   O     O_R   0.106434 0.613132 0.707102 -0.320824
O64   O     O_R   0.179666 0.553892 0.698948 -0.224657
N49   N     N_R   0.592409 0.983565 0.896770 0.235578
O65   O     O_R   0.596893 0.944115 0.952666 -0.296778
O66   O     O_R   0.638193 0.007928 0.873024 -0.246356
N50   N     N_R   0.407568 0.016357 0.103244 0.235576
O67   O     O_R   0.403044 0.055817 0.047368 -0.296750
O68   O     O_R   0.361807 0.991949 0.126989 -0.246582
N51   N     N_R   0.092473 0.483904 0.896833 0.229933
O69   O     O_R   0.097145 0.444534 0.952834 -0.308152
O70   O     O_R   0.138124 0.508553 0.873173 -0.237059
N52   N     N_R   0.907528 0.516099 0.103166 0.229937
O71   O     O_R   0.902858 0.555469 0.047165 -0.308153
O72   O     O_R   0.861877 0.491451 0.126825 -0.237036

loop_
_geom_bond_atom_site_label_1
_geom_bond_atom_site_label_2
_geom_bond_distance
_ccdc_geom_bond_type
O16   Zn4   1.973799 S    
C67   C71   1.404235 A    
C20   C79   1.451719 S    
C24   C83   1.451605 S    
C66   N14   1.434163 S    
C17   C25   1.398725 A    
N11   C59   1.360835 A    
O2    C2    1.286538 A    
N45   O57   1.299941 A    
C29   N30   1.435689 S    
C42   N34   1.435114 S    
N15   N16   1.251457 D    
C14   C22   1.410143 A    
C75   H11   1.081848 S    
N35   O37   1.301322 A    
C17   C78   1.451553 S    
O4    Zn1   1.984821 S    
N46   O60   1.301022 A    
C50   N42   1.434069 S    
C82   N22   1.157405 T    
C12   C52   1.404236 A    
C5    C16   1.473293 S    
N49   O65   1.301364 A    
C6    C15   1.473271 S    
N35   O38   1.301388 A    
O11   C3    1.288404 A    
N33   O33   1.301257 A    
C19   C80   1.451670 S    
C32   C40   1.405817 A    
C22   C81   1.451576 S    
C19   C27   1.396007 A    
N30   O27   1.300725 A    
N27   O22   1.301270 A    
C39   N7    1.401313 S    
C79   N19   1.157431 T    
N25   O18   1.301305 A    
N3    N8    1.244789 D    
N12   C76   1.359528 A    
C63   C67   1.421129 A    
N34   O36   1.300910 A    
O11   Zn1   1.973797 S    
C30   N29   1.435688 S    
C41   C49   1.401449 A    
C46   C54   1.400283 A    
C28   N27   1.435936 S    
C72   C76   1.402554 A    
C60   C64   1.409530 A    
C29   C37   1.410770 A    
C59   H4    1.079091 S    
C10   C18   1.419528 A    
C31   N32   1.442173 S    
C20   C28   1.396020 A    
C58   H1    1.078832 S    
N41   O50   1.300648 A    
N36   O39   1.301379 A    
C16   C56   1.418016 A    
N27   O21   1.300804 A    
C39   C47   1.398768 A    
O5    Zn3   1.985817 S    
C55   N47   1.434304 S    
C38   C46   1.405893 A    
C68   C72   1.404236 A    
O6    Zn4   1.985818 S    
N12   C60   1.360836 A    
N37   O42   1.301394 A    
C35   C43   1.405862 A    
C25   N26   1.442157 S    
N31   O30   1.301313 A    
O13   Zn4   1.975481 S    
O3    C3    1.292180 A    
N44   O55   1.300012 A    
O14   Zn3   1.975482 S    
N29   O26   1.301204 A    
C15   C23   1.419170 A    
N32   O32   1.301297 A    
C70   H6    1.082931 S    
C24   C32   1.398654 A    
C32   N31   1.442156 S    
O15   C7    1.279258 A    
C48   N40   1.435132 S    
O16   C8    1.279256 A    
C61   N50   1.436519 S    
O1    Zn1   1.985817 S    
N45   O58   1.301022 A    
C42   C50   1.401453 A    
O12   C4    1.288400 A    
N10   C74   1.359485 A    
C33   C41   1.398738 A    
C76   H12   1.081849 S    
N4    N7    1.244792 D    
N9    C73   1.359481 A    
C21   C29   1.396248 A    
C10   C50   1.418292 A    
N38   O44   1.301392 A    
O9    Zn2   1.975481 S    
C58   C62   1.409365 A    
C26   N25   1.442155 S    
C9    C49   1.418286 A    
C4    C9    1.474558 S    
N49   O66   1.301301 A    
C69   C73   1.402488 A    
O15   Zn3   1.973797 S    
C63   N52   1.436503 S    
O13   C5    1.288313 A    
N47   O61   1.301159 A    
C30   C38   1.410772 A    
N50   O67   1.301366 A    
N26   O20   1.301301 A    
N10   C58   1.360569 A    
C45   C53   1.400281 A    
C49   N41   1.434058 S    
N51   O69   1.301377 A    
N9    C57   1.360576 A    
C43   N35   1.439653 S    
C34   C42   1.398738 A    
C66   C70   1.404227 A    
C53   N45   1.431411 S    
O7    Zn4   1.984820 S    
O12   Zn2   1.973799 S    
O5    C5    1.291554 A    
N42   O52   1.300647 A    
C33   N1    1.401432 S    
N39   O45   1.301259 A    
N28   O24   1.301227 A    
N51   O70   1.301238 A    
N39   O46   1.300903 A    
C35   N3    1.405758 S    
C51   N43   1.431858 S    
N31   O29   1.301409 A    
C27   N28   1.435855 S    
C7    C14   1.450746 S    
C67   N15   1.434261 S    
C26   C34   1.405517 A    
Zn4   N11   1.994562 S    
C36   C44   1.405841 A    
C73   H9    1.081854 S    
O2    Zn2   1.985818 S    
O9    C1    1.279283 A    
N52   O72   1.301238 A    
C40   C48   1.398781 A    
C47   N39   1.435155 S    
N43   O54   1.301045 A    
C22   C30   1.396255 A    
O10   Zn1   1.975482 S    
C13   C53   1.403805 A    
N34   O35   1.301264 A    
C52   N44   1.431886 S    
C43   C51   1.400377 A    
C68   N16   1.434260 S    
N48   O64   1.300511 A    
C12   C20   1.410189 A    
C77   N17   1.157687 T    
C1    C12   1.450463 S    
C37   N5    1.405812 S    
C16   C24   1.419146 A    
C47   C55   1.401154 A    
N40   O48   1.300892 A    
C80   N20   1.157411 T    
C61   C65   1.421215 A    
C21   C82   1.451577 S    
C18   C77   1.451558 S    
N38   O43   1.301318 A    
C27   C35   1.410811 A    
N32   O31   1.301417 A    
C56   N48   1.434308 S    
N41   O49   1.301144 A    
C28   C36   1.410825 A    
C46   N38   1.439777 S    
C57   H2    1.078859 S    
C62   N49   1.436524 S    
O3    Zn2   1.984820 S    
C71   H7    1.082931 S    
C15   C55   1.418021 A    
N50   O68   1.301300 A    
N26   O19   1.301394 A    
N11   C75   1.359528 A    
N44   O56   1.301071 A    
C84   N24   1.157687 T    
C23   C84   1.451615 S    
C48   C56   1.401158 A    
C64   N51   1.436504 S    
C83   N23   1.157691 T    
C74   H10   1.081857 S    
O1    C1    1.286602 A    
C8    C13   1.450733 S    
C36   N4    1.405685 S    
C71   C75   1.402553 A    
C13   C21   1.410143 A    
N42   O51   1.301147 A    
O14   C6    1.288290 A    
C38   N6    1.405823 S    
C65   N13   1.434174 S    
N40   O47   1.301271 A    
C69   H5    1.082933 S    
N25   O17   1.301402 A    
C40   N8    1.401317 S    
N2    N5    1.244758 D    
C23   C31   1.398649 A    
C81   N21   1.157405 T    
C45   N37   1.439777 S    
N1    N6    1.244756 D    
O10   C2    1.279275 A    
Zn2   N9    1.994562 S    
O7    C7    1.286729 A    
C37   C45   1.405889 A    
C64   C68   1.421133 A    
N30   O28   1.301202 A    
Zn1   N10   1.994564 S    
O8    C8    1.286721 A    
C11   C19   1.410048 A    
C70   C74   1.402493 A    
C41   N33   1.435113 S    
C44   C52   1.400339 A    
C57   C61   1.409367 A    
Zn3   N12   1.994564 S    
C60   H3    1.079092 S    
N36   O40   1.301407 A    
C18   C26   1.398731 A    
N37   O41   1.301316 A    
C25   C33   1.405515 A    
N43   O53   1.300021 A    
O4    C4    1.292183 A    
C31   C39   1.405828 A    
N46   O59   1.299937 A    
C54   N46   1.431408 S    
C59   C63   1.409530 A    
N33   O34   1.300910 A    
N48   O63   1.301159 A    
C9    C17   1.419521 A    
N47   O62   1.300506 A    
O8    Zn3   1.984821 S    
C62   C66   1.421197 A    
N28   O23   1.300755 A    
C14   C54   1.403796 A    
C2    C11   1.450368 S    
C34   N2    1.401425 S    
N29   O25   1.300731 A    
N13   N14   1.251386 D    
C3    C10   1.474547 S    
C44   N36   1.439674 S    
N52   O71   1.301376 A    
C65   C69   1.404228 A    
C78   N18   1.157679 T    
C11   C51   1.404143 A    
C72   H8    1.082930 S    
O6    C6    1.291564 A    
