data_mof_unit_19842.cif
_audit_creation_date              2013-03-05T16:47:54-0500
_audit_creation_method            fapswitch 2.2
_symmetry_space_group_name_H-M    P1
_symmetry_Int_Tables_number       1
_space_group_crystal_system       triclinic
_cell_length_a                    10.861467
_cell_length_b                    10.893758
_cell_length_c                    9.605892
_cell_angle_alpha                 90.244103
_cell_angle_beta                  91.120691
_cell_angle_gamma                 91.916448
_cell_volume                      1135.72343567

loop_
_atom_site_label
_atom_site_type_symbol
_atom_site_description
_atom_site_fract_x
_atom_site_fract_y
_atom_site_fract_z
_atom_type_partial_charge
O1    O     O_R   0.499990 0.319640 0.618810 -0.593867
O2    O     O_R   0.500000 0.319660 0.381240 -0.511118
C1    C     C_R   0.509009 0.262597 0.500036 0.828458
O3    O     O_R   0.319640 0.500000 0.618780 -0.595196
O4    O     O_R   0.319650 0.500020 0.381210 -0.573536
C2    C     C_R   0.262732 0.502748 0.498576 0.789852
Cu1   Cu    Cu3+1 0.499990 0.499990 0.640660 0.925020
Cu2   Cu    Cu3+1 0.500010 0.500010 0.359340 0.977725
O5    O     O_R   0.500000 0.680340 0.618760 -0.615679
O6    O     O_R   0.500010 0.680360 0.381190 -0.601577
O7    O     O_R   0.680350 0.499980 0.618790 -0.599936
O8    O     O_R   0.680360 0.500000 0.381220 -0.596338
C3    C     C_R   0.491378 0.737059 0.501004 0.799494
C4    C     C_R   0.737593 0.497013 0.501438 0.773348
H1    H     H_    0.259200 0.768790 0.938004 0.120750
C5    C     C_R   0.229763 0.782326 0.158142 -0.128722
H2    H     H_    0.274733 0.872133 0.167977 0.162034
C6    C     C_R   0.178906 0.725391 0.274876 -0.122452
H3    H     H_    0.185292 0.771648 0.374948 0.109469
C7    C     C_R   0.118798 0.609682 0.261676 0.131674
C8    C     C_R   0.111480 0.551146 0.131171 -0.150227
H4    H     H_    0.066929 0.461200 0.120068 0.134326
C9    C     C_R   0.162654 0.608271 0.014814 -0.148175
H5    H     H_    0.156674 0.563024 0.914251 0.135980
C10   C     C_R   0.221219 0.723987 0.028277 -0.111871
C11   C     C_R   0.932852 0.545896 0.387948 -0.245156
H6    H     H_    0.880991 0.583824 0.301712 0.150966
C12   C     C_R   0.871844 0.496349 0.503291 -0.071087
C13   C     C_R   0.941021 0.448598 0.615649 -0.002266
C14   C     C_R   0.068506 0.453595 0.610653 -0.241572
H7    H     H_    0.120932 0.414979 0.696296 0.155818
C15   C     C_R   0.129026 0.504012 0.496473 -0.079230
C16   C     C_R   0.060744 0.550947 0.383448 -0.001411
C17   C     C_R   0.869997 0.455270 0.860010 -0.131601
H8    H     H_    0.884086 0.554003 0.859853 0.138118
C18   C     C_R   0.840230 0.395507 0.983976 -0.134714
H9    H     H_    0.826350 0.448412 0.077664 0.148381
C19   C     C_R   0.834253 0.267306 0.988525 -0.093530
H10   H     H_    0.815808 0.220991 0.085567 0.176735
C20   C     C_R   0.855250 0.198806 0.868476 -0.180720
H11   H     H_    0.851962 0.099441 0.872544 0.139213
C21   C     C_R   0.880616 0.258491 0.743128 -0.170602
H12   H     H_    0.899277 0.204538 0.651384 0.133691
C22   C     C_R   0.887749 0.387291 0.738180 0.132527
C23   C     C_R   0.574827 0.117746 0.752677 -0.164798
H13   H     H_    0.624610 0.204949 0.753578 0.188088
C24   C     C_R   0.564782 0.057238 0.879095 -0.093978
H14   H     H_    0.604357 0.099140 0.971720 0.215354
C25   C     C_R   0.501652 0.944807 0.885729 -0.099531
H15   H     H_    0.486675 0.901009 0.985235 0.162794
C26   C     C_R   0.462377 0.886188 0.763117 -0.177031
H16   H     H_    0.410253 0.801005 0.773523 0.159419
C27   C     C_R   0.489257 0.938424 0.631856 0.098193
C28   C     C_R   0.527318 0.063180 0.628281 0.045639
C29   C     C_R   0.518672 0.127669 0.500576 -0.241848
C30   C     C_R   0.502633 0.060233 0.374989 0.358142
H17   H     H_    0.485283 0.883745 0.280484 0.184251
C31   C     C_R   0.488906 0.933517 0.378494 -0.305504
C32   C     C_R   0.483313 0.871099 0.504889 -0.175392
H18   H     H_    0.364427 0.358882 0.125305 0.166911
C33   C     C_R   0.659144 0.666633 0.147484 -0.175038
H19   H     H_    0.669456 0.672875 0.257205 0.201484
C34   C     C_R   0.735346 0.749074 0.077149 -0.223183
H20   H     H_    0.796143 0.812668 0.134658 0.160147
C35   C     C_R   0.735115 0.748876 0.933807 -0.219063
H21   H     H_    0.795793 0.812199 0.879066 0.152579
C36   C     C_R   0.658953 0.665909 0.859984 -0.150760
H22   H     H_    0.669720 0.670087 0.750662 0.205582
C37   C     C_R   0.577754 0.581992 0.927175 0.200344
C38   C     C_R   0.577781 0.582102 0.076647 0.204775
N1    N     N_R   0.501190 0.501210 0.147910 -0.200896
C39   C     C_R   0.425705 0.422299 0.071847 0.031873
H23   H     H_    0.364931 0.358383 0.867293 0.147730
C40   C     C_R   0.425868 0.422188 0.924028 -0.062884
N2    N     N_R   0.501230 0.501290 0.852040 -0.209296
N3    N     N_R   0.507660 0.117815 0.241796 0.112174
O9    O     O_R   0.417414 0.100829 0.152051 -0.437775
O10   O     O_R   0.607191 0.178408 0.205984 -0.421503

loop_
_geom_bond_atom_site_label_1
_geom_bond_atom_site_label_2
_geom_bond_distance
_ccdc_geom_bond_type
C33   C38   1.417269 A    
C2    C15   1.452514 S    
C29   C30   1.414581 A    
C34   C35   1.376869 A    
C30   N3    1.428526 S    
H23   C40   1.081713 S    
C27   C32   1.419760 A    
Cu1   Cu2   2.702335 S    
C24   C25   1.385836 A    
C27   C28   1.408014 A    
Cu1   O7    1.974291 S    
C11   H6    1.083722 S    
C12   C13   1.413937 A    
C19   C20   1.397507 A    
N3    O10   1.300575 A    
C6    H3    1.083387 S    
O1    C1    1.303792 A    
C14   H7    1.085660 S    
O7    C4    1.298768 A    
H1    C10   1.079113 S    
H18   C39   1.081483 S    
C17   H8    1.081335 S    
C33   C34   1.387594 A    
O5    C3    1.294498 A    
C1    C29   1.477142 S    
C5    H2    1.081700 S    
C25   C26   1.390216 A    
C9    H5    1.082436 S    
C38   N1    1.384045 A    
C6    C7    1.404119 A    
C20   C21   1.398612 A    
C8    H4    1.082135 S    
C37   C38   1.435796 A    
C21   C22   1.403733 A    
O3    Cu1   1.966021 S    
C23   C24   1.388624 A    
C19   H10   1.080833 S    
C40   N2    1.367767 A    
C26   H16   1.076786 S    
C17   C22   1.402195 A    
N3    O9    1.300644 A    
O3    C2    1.299927 A    
Cu1   N2    2.030262 S    
C35   C36   1.387680 A    
C31   C32   1.395462 A    
C23   H13   1.077161 S    
C36   H22   1.059893 S    
C26   C27   1.417143 A    
C13   C14   1.385710 A    
C11   C16   1.389866 A    
C24   H14   1.073887 S    
Cu2   O8    1.966021 S    
C5    C6    1.398024 A    
C7    C16   1.477665 S    
C39   C40   1.419965 A    
C20   H11   1.082756 S    
O8    C4    1.301789 A    
C23   C28   1.413080 A    
C25   H15   1.082823 S    
C8    C9    1.397347 A    
C13   C22   1.474343 S    
C21   H12   1.083382 S    
C5    C10   1.397662 A    
Cu1   O5    1.976807 S    
C28   C29   1.419311 A    
C18   H9    1.082364 S    
Cu2   N1    2.031360 S    
O1    Cu1   1.974979 S    
O2    Cu2   1.976808 S    
O6    C3    1.310332 A    
O4    Cu2   1.974291 S    
C3    C32   1.466103 S    
C11   C12   1.402827 A    
C4    C12   1.458182 S    
C15   C16   1.410251 A    
C18   C19   1.396834 A    
O2    C1    1.305347 A    
N1    C39   1.367151 A    
C14   C15   1.394955 A    
H17   C31   1.083830 S    
O4    C2    1.297047 A    
C30   C31   1.384102 A    
C37   N2    1.380909 A    
C17   C18   1.397858 A    
C9    C10   1.397206 A    
C33   H19   1.059385 S    
C34   H20   1.083068 S    
C7    C8    1.403704 A    
Cu2   O6    1.974978 S    
C35   H21   1.083034 S    
C36   C37   1.415444 A    
