data_mof_unit_47665.cif
_audit_creation_date              2012-12-11T14:30:11-0500
_audit_creation_method            fapswitch 2.2
_symmetry_space_group_name_H-M    P1
_symmetry_Int_Tables_number       1
_space_group_crystal_system       triclinic
_cell_length_a                    12.646373
_cell_length_b                    12.932447
_cell_length_c                    26.80802
_cell_angle_alpha                 90.000574
_cell_angle_beta                  90.003587
_cell_angle_gamma                 117.556931
_cell_volume                      3887.00807782

loop_
_atom_site_label
_atom_site_type_symbol
_atom_type_description
_atom_site_fract_x
_atom_site_fract_y
_atom_site_fract_z
_atom_type_partial_charge
Br1   Br    Br    0.950640 0.153866 0.066599 -0.248310
Br2   Br    Br    0.153958 0.932983 0.924287 -0.296434
Br3   Br    Br    0.924698 0.131070 0.555990 -0.233182
Br4   Br    Br    0.679426 0.866713 0.911716 -0.348108
Br5   Br    Br    0.119432 0.925193 0.448086 -0.235124
Br6   Br    Br    0.682369 0.903569 0.033675 -0.350205
Br7   Br    Br    0.950237 0.153799 0.433351 -0.248483
Br8   Br    Br    0.119447 0.925235 0.051867 -0.234937
Br9   Br    Br    0.682225 0.903559 0.466353 -0.350097
Br10  Br    Br    0.153973 0.933177 0.575665 -0.296298
Br11  Br    Br    0.925116 0.131144 0.943950 -0.233190
Br12  Br    Br    0.679256 0.866667 0.588313 -0.348089
C1    C     C_R   0.557149 0.456906 0.820972 0.533434
C2    C     C_R   0.437738 0.586910 0.173394 0.542694
C3    C     C_R   0.996806 0.292474 0.473206 0.220290
C4    C     C_R   0.272218 0.965562 0.021654 0.238421
C5    C     C_R   0.590929 0.750078 0.493610 0.237418
C6    C     C_R   0.287433 0.976109 0.530813 0.246087
C7    C     C_R   0.985845 0.283041 0.974189 0.204629
C8    C     C_R   0.597161 0.733539 0.545217 0.230454
C9    C     C_R   0.287428 0.976038 0.969156 0.246337
C10   C     C_R   0.985548 0.282972 0.525771 0.204801
C11   C     C_R   0.597195 0.733582 0.954792 0.230424
C12   C     C_R   0.439831 0.898992 0.322090 0.533970
C13   C     C_R   0.107196 0.545581 0.176936 0.547950
C14   C     C_R   0.040317 0.489146 0.968431 0.041082
C15   C     C_R   0.501219 0.072262 0.518416 0.004044
C16   C     C_R   0.464825 0.525782 0.964947 -0.002991
C17   C     C_R   0.040175 0.489117 0.531553 0.041047
C18   C     C_R   0.501218 0.072166 0.981567 0.004022
C19   C     C_R   0.464868 0.525729 0.535043 -0.002944
C20   C     C_R   0.485767 0.049593 0.467304 0.004907
C21   C     C_R   0.897475 0.438090 0.678146 0.537489
C22   C     C_R   0.056994 0.499041 0.020499 0.040272
C23   C     C_R   0.455497 0.542424 0.483680 0.001479
C24   C     C_R   0.485766 0.049519 0.032681 0.004907
C25   C     C_R   0.056841 0.499018 0.479487 0.040233
C26   C     C_R   0.455448 0.542479 0.016311 0.001463
C27   C     C_R   0.061673 0.683716 0.969196 0.303077
C28   C     C_R   0.693617 0.231147 0.501888 0.250493
C29   C     C_R   0.319148 0.322121 0.973646 0.248581
C30   C     C_R   0.061658 0.683742 0.530817 0.303053
C31   C     C_R   0.693677 0.230966 0.998097 0.250649
C32   C     C_R   0.548919 0.113932 0.824717 0.551191
C33   C     C_R   0.319092 0.322098 0.526346 0.248537
C34   C     C_R   0.682900 0.199968 0.450686 0.294633
C35   C     C_R   0.135020 0.702937 0.010649 0.212702
C36   C     C_R   0.316659 0.335641 0.474776 0.252352
C37   C     C_R   0.682959 0.199798 0.049297 0.294783
C38   C     C_R   0.134965 0.702933 0.489355 0.212806
C39   C     C_R   0.316744 0.335679 0.025218 0.252442
C40   C     C_R   0.994144 0.569743 0.893817 -0.069146
C41   C     C_R   0.632070 0.161022 0.588678 -0.062388
C42   C     C_R   0.422748 0.393751 0.894705 -0.090364
C43   C     C_R   0.557144 0.456898 0.679028 0.533412
C44   C     C_R   0.994122 0.569747 0.606186 -0.069142
C45   C     C_R   0.632076 0.160863 0.911308 -0.062328
C46   C     C_R   0.422750 0.393704 0.605285 -0.090348
C47   C     C_R   0.574545 0.047098 0.386982 -0.059334
C48   C     C_R   0.097780 0.622891 0.093819 -0.081371
C49   C     C_R   0.379511 0.461543 0.401850 -0.087065
C50   C     C_R   0.574539 0.047006 0.113007 -0.059376
C51   C     C_R   0.097719 0.622894 0.406174 -0.081313
C52   C     C_R   0.379462 0.461590 0.098137 -0.087088
C53   C     C_R   0.071700 0.527229 0.124205 0.015662
C54   C     C_R   0.897486 0.438094 0.821853 0.537529
C55   C     C_R   0.463114 0.959470 0.371199 -0.009672
C56   C     C_R   0.446364 0.570624 0.119678 -0.019314
C57   C     C_R   0.071613 0.527228 0.375780 0.015650
C58   C     C_R   0.463090 0.959447 0.128797 -0.009707
C59   C     C_R   0.446416 0.570582 0.380317 -0.019272
C60   C     C_R   0.539121 0.089728 0.621387 0.005920
C61   C     C_R   0.960655 0.464376 0.869864 -0.006325
C62   C     C_R   0.509589 0.483694 0.633379 -0.015000
C63   C     C_R   0.539105 0.089609 0.878595 0.005884
C64   C     C_R   0.960594 0.464360 0.630128 -0.006335
C65   C     C_R   0.548943 0.114023 0.675267 0.551218
C66   C     C_R   0.509597 0.483727 0.866618 -0.015048
C67   C     C_R   0.038736 0.583966 0.942148 0.067226
C68   C     C_R   0.612995 0.152219 0.536660 0.028935
C69   C     C_R   0.399948 0.413696 0.943990 -0.004627
C70   C     C_R   0.038678 0.583963 0.557851 0.067190
C71   C     C_R   0.613010 0.152070 0.963325 0.028920
C72   C     C_R   0.399966 0.413650 0.555997 -0.004589
C73   C     C_R   0.584328 0.097009 0.434942 0.046104
C74   C     C_R   0.092840 0.608856 0.042515 0.066972
C75   C     C_R   0.383660 0.445875 0.453226 -0.007845
C76   C     C_R   0.437758 0.586894 0.326607 0.542690
C77   C     C_R   0.584337 0.096898 0.065045 0.046066
C78   C     C_R   0.092743 0.608849 0.457479 0.066989
C79   C     C_R   0.383638 0.445928 0.046763 -0.007857
C80   C     C_R   0.974170 0.373592 0.894651 -0.092170
C81   C     C_R   0.424591 0.022006 0.601933 -0.071335
C82   C     C_R   0.561789 0.597914 0.885393 -0.074151
C83   C     C_R   0.974021 0.373547 0.605324 -0.092176
C84   C     C_R   0.424577 0.021913 0.898045 -0.071305
C85   C     C_R   0.561777 0.597880 0.614609 -0.074131
C86   C     C_R   0.361206 0.939967 0.400141 -0.061399
C87   C     C_R   0.439816 0.898976 0.177906 0.533953
C88   C     C_R   0.040683 0.416982 0.101986 -0.040855
C89   C     C_R   0.516208 0.666797 0.410529 -0.078291
C90   C     C_R   0.361187 0.939983 0.099851 -0.061380
C91   C     C_R   0.040506 0.416959 0.397992 -0.040814
C92   C     C_R   0.516167 0.666844 0.089471 -0.078291
C93   C     C_R   0.005208 0.381878 0.945082 -0.001873
C94   C     C_R   0.403308 0.020240 0.550719 0.027737
C95   C     C_R   0.540306 0.620285 0.934602 0.018957
C96   C     C_R   0.005008 0.381827 0.554889 -0.001838
C97   C     C_R   0.403302 0.020159 0.949258 0.027853
C98   C     C_R   0.107175 0.545580 0.323058 0.547929
C99   C     C_R   0.540314 0.620239 0.565397 0.018951
C100  C     C_R   0.371584 0.985034 0.448127 0.030011
C101  C     C_R   0.032591 0.401746 0.049980 0.012274
C102  C     C_R   0.521665 0.654216 0.462441 0.035047
C103  C     C_R   0.371578 0.985015 0.051856 0.030091
C104  C     C_R   0.032382 0.401711 0.449996 0.012305
C105  C     C_R   0.521631 0.654267 0.037559 0.035097
C106  C     C_R   0.997098 0.292533 0.026758 0.220192
C107  C     C_R   0.272216 0.965579 0.478316 0.238247
C108  C     C_R   0.590951 0.750120 0.006399 0.237352
Cl1   Cl    Cl    0.284639 0.739430 0.995414 -0.694334
Cl2   Cl    Cl    0.766477 0.378807 0.981380 -0.563012
Cl3   Cl    Cl    0.936025 0.708441 0.523990 -0.398953
Cl4   Cl    Cl    0.214371 0.193219 0.945991 -0.458316
Cl5   Cl    Cl    0.765221 0.303239 0.404890 -0.540192
Cl6   Cl    Cl    0.236434 0.212010 0.062719 -0.470653
Cl7   Cl    Cl    0.284593 0.739427 0.504581 -0.694162
Cl8   Cl    Cl    0.765402 0.303028 0.095089 -0.540169
Cl9   Cl    Cl    0.235998 0.211968 0.437292 -0.470449
Cl10  Cl    Cl    0.766332 0.378997 0.518606 -0.562989
Cl11  Cl    Cl    0.936010 0.708357 0.976035 -0.399017
Cl12  Cl    Cl    0.213975 0.193439 0.554021 -0.458151
Cr1   Cr    Cr6+3 0.487630 0.241180 0.750000 1.073403
Cr2   Cr    Cr6+3 0.753550 0.512370 0.750000 1.081474
Cr3   Cr    Cr6+3 0.758820 0.246450 0.750000 1.085954
Cr4   Cr    Cr6+3 0.241180 0.487630 0.250000 1.080364
Cr5   Cr    Cr6+3 0.512370 0.753550 0.250000 1.083599
Cr6   Cr    Cr6+3 0.246450 0.758820 0.250000 1.074325
H1    H     H_    0.126002 0.708065 0.109838 0.143779
H2    H     H_    0.716755 0.224711 0.896333 0.156949
H3    H     H_    0.983593 0.639217 0.624481 0.175269
H4    H     H_    0.381246 0.306272 0.879568 0.192448
H5    H     H_    0.023545 0.343208 0.125598 0.203571
H6    H     H_    0.273073 0.884722 0.386129 0.160373
H7    H     H_    0.564406 0.751266 0.107012 0.175599
H8    H     H_    0.023331 0.343179 0.374374 0.203557
H9    H     H_    0.273050 0.884780 0.113865 0.160377
H10   H     H_    0.564433 0.751220 0.392995 0.175620
H11   H     H_    0.351625 0.975781 0.627540 0.177222
H12   H     H_    0.651037 0.076298 0.362460 0.183070
H13   H     H_    0.948642 0.291573 0.875944 0.191069
H14   H     H_    0.625649 0.667523 0.637513 0.191366
H15   H     H_    0.351605 0.975712 0.872432 0.177227
H16   H     H_    0.948465 0.291512 0.624021 0.191100
H17   H     H_    0.625683 0.667547 0.862496 0.191370
H18   H     H_    0.324223 0.389143 0.121941 0.200591
H19   H     H_    0.125992 0.708079 0.390159 0.143793
H20   H     H_    0.651038 0.076165 0.137527 0.183099
H21   H     H_    0.324281 0.389102 0.378040 0.200563
H22   H     H_    0.716735 0.224904 0.603658 0.156840
H23   H     H_    0.983553 0.639190 0.875537 0.175311
H24   H     H_    0.381220 0.306216 0.620421 0.192362
O1    O     O_R   0.460870 0.120930 0.805240 -0.501618
O2    O     O_R   0.120930 0.460870 0.194760 -0.507652
O3    O     O_R   0.539130 0.660060 0.305240 -0.468566
O4    O     O_R   0.339940 0.879070 0.194760 -0.504881
O5    O     O_R   0.498910 0.350470 0.801870 -0.505166
O6    O     O_R   0.851560 0.501090 0.698130 -0.481896
O7    O     O_R   0.649530 0.148440 0.801870 -0.482482
O8    O     O_R   0.498910 0.350470 0.698130 -0.505216
O9    O     O_R   0.851560 0.501090 0.801870 -0.481882
O10   O     O_R   0.649530 0.148440 0.698130 -0.482448
O11   O     O_R   0.350470 0.498910 0.301870 -0.487132
O12   O     O_R   0.660060 0.539130 0.694760 -0.492764
O13   O     O_R   0.501090 0.851560 0.198130 -0.502058
O14   O     O_R   0.148440 0.649530 0.301870 -0.496372
O15   O     O_R   0.350470 0.498910 0.198130 -0.487140
O16   O     O_R   0.501090 0.851560 0.301870 -0.502015
O17   O     O_R   0.148440 0.649530 0.198130 -0.496375
O18   O     O_3   0.666667 0.333333 0.750000 -0.280366
O19   O     O_3   0.333333 0.666667 0.250000 -0.316326
O20   O     O_R   0.879070 0.339940 0.805240 -0.522818
O21   O     O_R   0.460870 0.120930 0.694760 -0.501682
O22   O     O_R   0.660060 0.539130 0.805240 -0.492758
O23   O     O_R   0.879070 0.339940 0.694760 -0.522815
O24   O     O_R   0.120930 0.460870 0.305240 -0.507626
O25   O     O_R   0.539130 0.660060 0.194760 -0.468557
O26   O     O_R   0.339940 0.879070 0.305240 -0.504893

loop_
_geom_bond_atom_site_label_1
_geom_bond_atom_site_label_2
_ccdc_geom_bond_type
C24   C77   A    
C89   H10   S    
C4    C9    A    
C44   C64   A    
C31   C71   A    
C34   Cl5   S    
C81   H11   S    
C30   C70   A    
Cr5   O3    S    
C25   C104  A    
C22   C101  A    
C28   C34   A    
C12   O26   A    
Br11  C7    S    
C25   C78   A    
Br5   C107  S    
C52   C56   A    
C29   Cl4   S    
C66   C82   A    
Cr3   O18   S    
Cr5   O13   S    
Cr1   O5    S    
C64   C83   A    
C85   C99   A    
C35   Cl1   S    
Cr5   O19   S    
C16   C95   A    
C50   C77   A    
C5    C8    A    
C50   C58   A    
C23   C102  A    
C22   C74   A    
C18   C71   A    
Cr6   O19   S    
C32   O7    A    
C90   C103  A    
C49   C75   A    
C55   C86   A    
C39   C79   A    
C1    C66   S    
C26   C105  A    
C23   C75   A    
C38   C78   A    
C3    C10   A    
Cr5   O16   S    
C51   C57   A    
C7    C106  A    
C82   H17   S    
Cr4   O19   S    
C5    C102  A    
C28   C68   A    
C17   C96   A    
C47   H12   S    
C32   O1    A    
C40   C67   A    
Cr2   O12   S    
C41   C60   A    
C43   O8    A    
C12   C55   S    
C40   H23   S    
C87   O4    A    
C47   C55   A    
C49   C59   A    
Cr1   O21   S    
C54   O20   A    
C29   C69   A    
Br8   C4    S    
C89   C102  A    
C43   C62   S    
C80   H13   S    
Cr6   O17   S    
Cr1   O1    S    
C14   C93   A    
Br6   C108  S    
C14   C22   A    
C30   Cl3   S    
C62   C85   A    
C57   C91   A    
C82   C95   A    
C86   C100  A    
C18   C97   A    
C35   C74   A    
C54   O9    A    
C41   C68   A    
C13   C53   S    
C53   C88   A    
C45   C71   A    
C105  C108  A    
Cr2   O22   S    
C11   C108  A    
Br4   C11   S    
C48   C74   A    
C31   C37   A    
C15   C94   A    
C54   C61   S    
C26   C79   A    
C76   O11   A    
C59   C76   S    
C45   H2    S    
C27   C67   A    
C32   C63   S    
Cr6   O26   S    
Cr1   O8    S    
C47   C73   A    
C43   O12   A    
C60   C65   S    
C46   C72   A    
C90   H9    S    
C8    C99   A    
C57   C98   S    
C21   C64   S    
C84   H15   S    
C16   C26   A    
C1    O22   A    
C11   C95   A    
Br12  C8    S    
Br2   C9    S    
C50   H20   S    
C36   C75   A    
Cr3   O10   S    
C63   C84   A    
C31   Cl2   S    
C30   C38   A    
C44   H3    S    
C7    C93   A    
Br9   C5    S    
C42   H4    S    
C29   C39   A    
C48   C53   A    
C40   C61   A    
Cr2   O9    S    
C81   C94   A    
C12   O16   A    
Cr2   O6    S    
C36   Cl9   S    
C21   O6    A    
C51   H19   S    
Cr4   O24   S    
C46   H24   S    
C4    C103  A    
C58   C87   S    
C46   C62   A    
C27   C35   A    
C92   C105  A    
Cr4   O2    S    
C33   C36   A    
C37   Cl8   S    
C28   Cl10  S    
Cr4   O11   S    
C98   O24   A    
C41   H22   S    
C19   C99   A    
C20   C100  A    
C86   H6    S    
C16   C69   A    
C39   Cl6   S    
C92   H7    S    
C88   C101  A    
C56   C92   A    
C61   C80   A    
C37   C77   A    
C88   H5    S    
C100  C107  A    
C9    C97   A    
C13   O17   A    
Cr1   O18   S    
C44   C70   A    
C98   O14   A    
C84   C97   A    
C52   H18   S    
C14   C67   A    
C52   C79   A    
C18   C24   A    
Cr6   O4    S    
C83   H16   S    
C34   C73   A    
C49   H21   S    
C91   C104  A    
C17   C70   A    
Cr6   O14   S    
C2    O25   A    
C19   C72   A    
C45   C63   A    
C58   C90   A    
C27   Cl11  S    
C6    C94   A    
Br10  C6    S    
C65   O10   A    
C10   C96   A    
C20   C73   A    
Cr4   O15   S    
C51   C78   A    
Br7   C3    S    
C65   O21   A    
C85   H14   S    
C60   C81   A    
C19   C23   A    
Br1   C106  S    
Cr3   O7    S    
C59   C89   A    
C2    O15   A    
C1    O5    A    
C83   C96   A    
C15   C20   A    
C48   H1    S    
C101  C106  A    
C33   C72   A    
C80   C93   A    
C87   O13   A    
C15   C68   A    
C33   Cl12  S    
C76   O3    A    
C17   C25   A    
C2    C56   S    
C3    C104  A    
Br3   C10   S    
C21   O23   A    
C38   Cl7   S    
C13   O2    A    
Cr3   O20   S    
Cr2   O18   S    
C24   C103  A    
C6    C107  A    
Cr3   O23   S    
C42   C69   A    
C91   H8    S    
Cr5   O25   S    
C42   C66   A    
