data_mof_unit_55082.cif
_audit_creation_date              2012-12-11T15:11:50-0500
_audit_creation_method            fapswitch 2.2
_symmetry_space_group_name_H-M    P1
_symmetry_Int_Tables_number       1
_space_group_crystal_system       triclinic
_cell_length_a                    20.077243
_cell_length_b                    7.127844
_cell_length_c                    13.63555
_cell_angle_alpha                 89.999929
_cell_angle_beta                  103.536544
_cell_angle_gamma                 90.000023
_cell_volume                      1897.14201665

loop_
_atom_site_label
_atom_site_type_symbol
_atom_type_description
_atom_site_fract_x
_atom_site_fract_y
_atom_site_fract_z
_atom_type_partial_charge
O1    O     O_R   0.449830 0.506740 0.599960 -0.537899
O2    O     O_R   0.550170 0.006740 0.400040 -0.537898
O3    O     O_R   0.588980 0.179860 0.596720 -0.546784
O4    O     O_R   0.411020 0.679860 0.403280 -0.546785
C1    C     C_R   0.616260 0.344715 0.618972 0.663943
C2    C     C_R   0.383740 0.844715 0.381028 0.663942
O5    O     O_R   0.452740 0.177340 0.612040 -0.539461
O6    O     O_R   0.547260 0.677340 0.387960 -0.539461
O7    O     O_R   0.412960 0.002070 0.415460 -0.541787
O8    O     O_R   0.587040 0.502070 0.584540 -0.541786
C3    C     C_R   0.436321 0.345374 0.637755 0.690039
C4    C     C_R   0.563678 0.845374 0.362244 0.690039
O9    O     O_3   0.487110 0.337570 0.435490 -0.375213
O10   O     O_3   0.512890 0.837570 0.564510 -0.375213
V1    V     V_3+5 0.502390 0.064650 0.511970 1.391606
V2    V     V_3+5 0.497610 0.564650 0.488030 1.391605
C5    C     C_R   0.610104 0.793078 0.113955 -0.167417
C6    C     C_R   0.389896 0.293083 0.886045 -0.167416
H1    H     H_    0.516136 0.794779 0.162737 0.099574
H2    H     H_    0.483864 0.294807 0.837265 0.099572
H3    H     H_    0.693533 0.757055 0.991935 0.109369
H4    H     H_    0.306466 0.257040 0.008063 0.109369
H5    H     H_    0.584223 0.763882 0.036367 0.111744
H6    H     H_    0.415777 0.263898 0.963634 0.111744
C7    C     C_R   0.603400 0.849387 0.285597 -0.025992
C8    C     C_R   0.396599 0.349385 0.714402 -0.025989
C9    C     C_R   0.932907 0.900027 0.316872 -0.168001
C10   C     C_R   0.067092 0.400016 0.683126 -0.168001
C11   C     C_R   0.897602 0.912907 0.392956 -0.125407
C12   C     C_R   0.102396 0.412873 0.607040 -0.125406
C13   C     C_R   0.826564 0.893344 0.370922 -0.165897
C14   C     C_R   0.173434 0.393301 0.629073 -0.165896
C15   C     C_R   0.788815 0.857814 0.271153 0.072244
C16   C     C_R   0.211183 0.357786 0.728844 0.072247
C17   C     C_R   0.825798 0.837635 0.194297 0.074612
C18   C     C_R   0.174201 0.337620 0.805701 0.074613
C19   C     C_R   0.715669 0.844745 0.244567 0.063540
C20   C     C_R   0.284329 0.344722 0.755430 0.063539
C21   C     C_R   0.681696 0.807654 0.142641 0.143861
C22   C     C_R   0.318303 0.307641 0.857357 0.143860
C23   C     C_R   0.719245 0.784244 0.069812 -0.236877
C24   C     C_R   0.280754 0.284228 0.930186 -0.236875
C25   C     C_R   0.790036 0.799124 0.095006 -0.222313
C26   C     C_R   0.209963 0.299109 0.904993 -0.222312
C27   C     C_R   0.674718 0.867109 0.315178 -0.221273
C28   C     C_R   0.325280 0.367088 0.684819 -0.221272
C29   C     C_R   0.571241 0.812050 0.185316 -0.176066
C30   C     C_R   0.428759 0.312062 0.814684 -0.176066
C31   C     C_R   0.897807 0.862346 0.217672 -0.078531
C32   C     C_R   0.102192 0.362342 0.782326 -0.078534
H7    H     H_    0.696468 0.893048 0.394049 0.090504
H8    H     H_    0.303530 0.393019 0.605947 0.090503
H9    H     H_    0.987903 0.920979 0.335250 0.100561
H10   H     H_    0.012096 0.420976 0.664748 0.100561
H11   H     H_    0.802885 0.907740 0.433683 0.103282
H12   H     H_    0.197112 0.407675 0.566310 0.103280
H13   H     H_    0.925423 0.941395 0.469612 0.118016
H14   H     H_    0.074574 0.441349 0.530383 0.118015
H15   H     H_    0.816501 0.782618 0.035011 0.110538
H16   H     H_    0.183498 0.282606 0.964987 0.110540
C33   C     C_3   0.234908 0.705234 0.154071 -0.021279
C34   C     C_3   0.765090 0.205245 0.845935 -0.021279
H17   H     H_    0.215933 0.567510 0.175507 0.113039
H18   H     H_    0.784061 0.067515 0.824499 0.113043
C35   C     C_3   0.309705 0.721521 0.218054 -0.346440
C36   C     C_3   0.690292 0.221540 0.781954 -0.346450
H19   H     H_    0.344447 0.776881 0.172185 0.130563
H20   H     H_    0.655554 0.276924 0.827822 0.130565
H21   H     H_    0.328528 0.578468 0.243186 0.129066
H22   H     H_    0.671464 0.078488 0.756831 0.129065
H23   H     H_    0.155909 0.672609 0.296427 0.131600
H24   H     H_    0.844089 0.172581 0.703581 0.131602
H25   H     H_    0.266515 0.641583 0.391310 0.133807
H26   H     H_    0.733481 0.141550 0.608706 0.133809
C37   C     C_3   0.183937 0.807205 0.295983 -0.381043
C38   C     C_3   0.816062 0.307182 0.704018 -0.381048
C39   C     C_3   0.223565 0.055827 0.194735 -0.315800
C40   C     C_3   0.776438 0.555830 0.805256 -0.315801
C41   C     C_3   0.188054 0.858845 0.186685 0.117283
C42   C     C_3   0.811946 0.358844 0.813314 0.117283
H27   H     H_    0.191431 0.161496 0.222386 0.140871
H28   H     H_    0.808574 0.661488 0.777600 0.140872
H29   H     H_    0.228635 0.107256 0.120441 0.122593
H30   H     H_    0.771369 0.607270 0.879549 0.122595
C43   C     C_3   0.313013 0.852145 0.310227 0.103116
C44   C     C_3   0.686987 0.352144 0.689773 0.103118
C45   C     C_3   0.257217 0.789671 0.365902 -0.326639
C46   C     C_3   0.742782 0.289643 0.634102 -0.326638
C47   C     C_3   0.294852 0.052879 0.268508 -0.323013
C48   C     C_3   0.705152 0.552883 0.731482 -0.323013
H31   H     H_    0.334055 0.103552 0.228957 0.126338
H32   H     H_    0.665949 0.603572 0.771030 0.126340
H33   H     H_    0.294931 0.151701 0.331780 0.142850
H34   H     H_    0.705075 0.651692 0.668206 0.142850
H35   H     H_    0.154560 0.916468 0.326276 0.140659
H36   H     H_    0.845440 0.416435 0.673719 0.140660
H37   H     H_    0.260546 0.877179 0.434459 0.134358
H38   H     H_    0.739453 0.377131 0.565538 0.134356
O11   O     O_R   0.912980 0.203550 0.915410 -0.542716
O12   O     O_R   0.087020 0.703550 0.084590 -0.542715
O13   O     O_R   0.047270 0.535570 0.887960 -0.540474
O14   O     O_R   0.952730 0.035570 0.112040 -0.540474
C49   C     C_R   0.063479 0.368273 0.861408 0.681442
C50   C     C_R   0.936520 0.868273 0.138592 0.681443
O15   O     O_R   0.911030 0.532970 0.903270 -0.548474
O16   O     O_R   0.088970 0.032970 0.096730 -0.548474
O17   O     O_R   0.949820 0.708150 0.099970 -0.537080
O18   O     O_R   0.050180 0.208150 0.900030 -0.537079
C51   C     C_R   0.883610 0.365062 0.882552 0.650692
C52   C     C_R   0.116390 0.865062 0.117447 0.650690
O19   O     O_3   0.012900 0.375230 0.064480 -0.373055
O20   O     O_3   0.987100 0.875230 0.935520 -0.373055
V3    V     V_3+5 0.997610 0.648190 0.988040 1.383589
V4    V     V_3+5 0.002390 0.148190 0.011960 1.383590
C53   C     C_3   0.231744 0.679436 0.040451 -0.402505
C54   C     C_3   0.241171 0.854929 0.981331 -0.296505
C55   C     C_3   0.246370 0.804852 0.874400 -0.711703
H39   H     H_    0.291425 0.713310 0.876580 0.229992
H40   H     H_    0.199055 0.732359 0.833551 0.233003
H41   H     H_    0.252428 0.933847 0.831955 0.227616
H42   H     H_    0.195861 0.946564 0.975333 0.196224
H43   H     H_    0.288612 0.928909 0.020090 0.196097
H44   H     H_    0.272931 0.579629 0.035228 0.195058
H45   H     H_    0.182165 0.614015 0.003254 0.192347
C56   C     C_3   0.768256 0.179454 0.959556 -0.402512
C57   C     C_3   0.758832 0.354950 0.018673 -0.296502
C58   C     C_3   0.753627 0.304875 0.125602 -0.711700
H46   H     H_    0.708570 0.213339 0.123417 0.229988
H47   H     H_    0.800939 0.232374 0.166455 0.233004
H48   H     H_    0.747569 0.433872 0.168045 0.227618
H49   H     H_    0.804143 0.446577 0.024673 0.196225
H50   H     H_    0.711394 0.428939 0.979910 0.196096
H51   H     H_    0.727068 0.079651 0.964780 0.195064
H52   H     H_    0.817835 0.114030 0.996751 0.192347

loop_
_geom_bond_atom_site_label_1
_geom_bond_atom_site_label_2
_ccdc_geom_bond_type
C56   H52   S    
C36   H20   S    
O12   C52   A    
C57   C58   S    
C9    C11   A    
O13   V3    S    
O1    C3    A    
H24   C38   S    
O2    C4    A    
O11   V4    S    
O20   V4    S    
C37   H35   S    
C21   C23   A    
H4    C24   S    
C40   C48   S    
O5    C3    A    
C39   C47   S    
C5    H5    S    
C2    C43   S    
C54   H43   S    
O16   V4    S    
C6    H6    S    
C34   C42   S    
C20   C22   A    
C26   H16   S    
C55   H40   S    
C44   C46   S    
C39   H29   S    
C53   C54   S    
O11   C51   A    
C28   H8    S    
C54   C55   S    
C5    C21   A    
O18   V4    S    
C33   H17   S    
C6    C22   A    
H25   C45   S    
C34   H18   S    
C10   C32   A    
O17   V3    S    
C35   H19   S    
C42   C51   S    
C17   C31   A    
C13   C15   A    
C49   O18   A    
C39   H27   S    
C47   H31   S    
C17   C25   A    
C7    C29   A    
C16   C18   A    
C8    C30   A    
C43   C45   S    
C32   C49   S    
O6    V2    S    
C23   C25   A    
C24   C26   A    
C2    O7    A    
O20   V3    S    
C48   H34   S    
C39   C41   S    
H23   C37   S    
C53   H44   S    
C54   H42   S    
C34   C36   S    
C5    C29   A    
O4    C2    A    
C44   C48   S    
C55   H41   S    
C43   C47   S    
C3    C8    S    
C15   C19   A    
C14   C16   A    
O4    V2    S    
C58   H47   S    
C33   C53   S    
O14   V4    S    
C40   H30   S    
C40   H28   S    
C48   H32   S    
C57   H50   S    
O6    C4    A    
C40   C42   S    
O19   V3    S    
O1    V2    S    
O14   C50   A    
O2    V1    S    
H2    C30   S    
H3    C23   S    
C1    C44   S    
C37   C45   S    
C11   H13   S    
C56   C57   S    
C18   C26   A    
C19   C27   A    
C58   H46   S    
C7    C27   A    
C18   C32   A    
O16   C52   A    
C56   H51   S    
C38   C46   S    
C10   H10   S    
C53   H45   S    
C41   C52   S    
C16   C20   A    
O12   V3    S    
C38   C42   S    
C22   C24   A    
O3    C1    A    
C6    C30   A    
C36   C44   S    
C34   C56   S    
C9    H9    S    
C35   C43   S    
O15   V3    S    
C25   H15   S    
O13   C49   A    
C4    C7    S    
C31   C50   S    
C13   H11   S    
C10   C12   A    
O7    V1    S    
C58   H48   S    
C1    O8    A    
C11   C13   A    
O8    V2    S    
C55   H39   S    
C38   H36   S    
C12   C14   A    
C36   H22   S    
O15   C51   A    
C57   H49   S    
C33   C41   S    
C35   H21   S    
C12   H14   S    
O5    V1    S    
C15   C17   A    
O19   V4    S    
H1    C29   S    
C47   H33   S    
C20   C28   A    
C8    C28   A    
C33   C35   S    
C19   C21   A    
O9    V2    S    
C27   H7    S    
O10   V1    S    
O3    V1    S    
H26   C46   S    
C37   C41   S    
C14   H12   S    
C50   O17   A    
C46   H38   S    
C9    C31   A    
C45   H37   S    
