data_mof_unit_28443.cif
_audit_creation_date              2012-12-10T17:21:39-0500
_audit_creation_method            fapswitch 2.2
_symmetry_space_group_name_H-M    P1
_symmetry_Int_Tables_number       1
_space_group_crystal_system       triclinic
_cell_length_a                    10.968196
_cell_length_b                    11.101774
_cell_length_c                    9.571197
_cell_angle_alpha                 88.712853
_cell_angle_beta                  87.915981
_cell_angle_gamma                 95.268513
_cell_volume                      1159.36933104

loop_
_atom_site_label
_atom_site_type_symbol
_atom_type_description
_atom_site_fract_x
_atom_site_fract_y
_atom_site_fract_z
_atom_type_partial_charge
C1    C     C_R   0.497834 0.261822 0.501501 0.906250
C2    C     C_3   0.875232 0.495281 0.497423 -0.380241
C3    C     C_3   0.933729 0.623265 0.534456 0.068560
C4    C     C_3   0.926347 0.462885 0.350115 0.119864
C5    C     C_R   0.420585 0.113738 0.751334 0.340214
C6    C     C_R   0.434889 0.064527 0.882817 -0.197244
C7    C     C_R   0.443913 0.941791 0.895226 0.370761
C8    C     C_R   0.437308 0.872536 0.774187 0.336267
C9    C     C_R   0.465721 0.930251 0.637827 -0.096557
C10   C     C_R   0.463765 0.058231 0.631519 -0.055448
C11   C     C_R   0.495435 0.127027 0.505568 -0.198826
C12   C     C_R   0.258614 0.496791 0.501800 0.982946
C13   C     C_R   0.537910 0.067169 0.387763 0.377571
C14   C     C_R   0.549208 0.943524 0.396119 0.374634
C15   C     C_R   0.500091 0.871113 0.511092 -0.166569
C16   C     C_R   0.679195 0.648052 0.132100 -0.075917
C17   C     C_R   0.770043 0.718334 0.054114 -0.010970
C18   C     C_R   0.765280 0.725077 0.910488 -0.135100
C19   C     C_R   0.672670 0.657736 0.844089 -0.118950
C20   C     C_R   0.585757 0.576518 0.919311 0.265856
C21   C     C_R   0.587070 0.574498 0.068792 0.204727
C22   C     C_R   0.419982 0.425723 0.079381 0.084632
C23   C     C_R   0.499774 0.737639 0.501495 0.907571
C24   C     C_R   0.418813 0.427231 0.931763 0.053728
C25   C     C_R   0.738971 0.497213 0.498409 0.903677
C26   C     C_3   0.052376 0.386157 0.599137 0.562439
C27   C     C_3   0.910935 0.398307 0.608195 0.121450
C28   C     C_3   0.073626 0.619304 0.559929 0.583348
C29   C     C_3   0.069782 0.477599 0.345687 0.552189
C30   C     C_3   0.118339 0.494692 0.502669 -0.463928
Cu1   Cu    Cu3+1 0.499990 0.499990 0.640660 1.068098
Cu2   Cu    Cu3+1 0.500010 0.500010 0.359340 1.092476
N1    N     N_R   0.501200 0.501210 0.147910 -0.213815
N2    N     N_R   0.501250 0.501290 0.852040 -0.205721
O1    O     O_R   0.499990 0.319640 0.618810 -0.582496
O2    O     O_R   0.500000 0.319660 0.381240 -0.539180
O3    O     O_R   0.317680 0.499970 0.618790 -0.502365
O4    O     O_R   0.317700 0.499990 0.381210 -0.536765
O5    O     O_R   0.500000 0.680340 0.618760 -0.602777
O6    O     O_R   0.500010 0.680360 0.381190 -0.543746
O7    O     O_R   0.682300 0.500010 0.618790 -0.583629
O8    O     O_R   0.682320 0.500030 0.381210 -0.596593
Cl1   Cl    Cl    0.113396 0.376361 0.771319 -0.311275
H1    H     H_    0.893710 0.525566 0.270495 0.211748
Cl2   Cl    Cl    0.167198 0.751003 0.491032 -0.354509
Cl3   Cl    Cl    0.899858 0.738261 0.409659 -0.497286
Cl4   Cl    Cl    0.587381 0.144197 0.227654 -0.427093
Cl5   Cl    Cl    0.285894 0.180985 0.735541 -0.452352
H2    H     H_    0.410442 0.113659 0.974715 0.220929
Cl6   Cl    Cl    0.423616 0.874693 0.064267 -0.405079
Cl7   Cl    Cl    0.343060 0.737343 0.805438 -0.376813
Cl8   Cl    Cl    0.654616 0.889095 0.276925 -0.484207
H3    H     H_    0.357031 0.362340 0.138605 0.196867
Cl9   Cl    Cl    0.073943 0.238918 0.533810 -0.360927
H4    H     H_    0.680996 0.657751 0.241781 0.229531
H5    H     H_    0.841183 0.772494 0.105886 0.250847
H6    H     H_    0.832670 0.784123 0.850124 0.208620
H7    H     H_    0.673739 0.672558 0.733965 0.185842
H8    H     H_    0.351128 0.369310 0.881909 0.213157
H9    H     H_    0.860694 0.310224 0.583745 0.200898
Cl10  Cl    Cl    0.854253 0.422445 0.785292 -0.433806
Cl11  Cl    Cl    0.085982 0.638739 0.744376 -0.367529
H10   H     H_    0.885454 0.650755 0.631052 0.188044
Cl12  Cl    Cl    0.119967 0.604037 0.229544 -0.356484
Cl13  Cl    Cl    0.130612 0.355696 0.251550 -0.377130
Cl14  Cl    Cl    0.858826 0.316551 0.298606 -0.372415

loop_
_geom_bond_atom_site_label_1
_geom_bond_atom_site_label_2
_ccdc_geom_bond_type
C25   O8    A    
C2    C4    S    
C24   N2    A    
C16   C21   A    
C29   C30   S    
Cu2   O4    S    
C2    C25   S    
Cu1   O7    S    
C9    C10   A    
C6    C7    A    
C18   H6    S    
C4    C29   S    
C17   H5    S    
C20   N2    A    
Cu2   N1    S    
C19   C20   A    
C15   C23   S    
C17   C18   A    
C9    C15   A    
C16   H4    S    
C5    C10   A    
C6    H2    S    
C13   C14   A    
C4    Cl14  S    
C11   C13   A    
C8    Cl7   S    
C26   C27   S    
C2    C27   S    
C24   H8    S    
C29   Cl13  S    
Cu2   O2    S    
Cu1   O1    S    
C28   C30   S    
C3    C28   S    
Cu1   O5    S    
C26   Cl1   S    
C26   C30   S    
C22   H3    S    
C3    H10   S    
C27   H9    S    
Cu2   O6    S    
C19   H7    S    
C12   O4    A    
C5    C6    A    
C5    Cl5   S    
C22   C24   A    
C28   Cl2   S    
C29   Cl12  S    
C21   N1    A    
C10   C11   A    
C3    Cl3   S    
C23   O6    A    
C26   Cl9   S    
C7    C8    A    
Cu1   N2    S    
C20   C21   A    
C1    O1    A    
C18   C19   A    
C25   O7    A    
C12   O3    A    
C13   Cl4   S    
C22   N1    A    
Cu2   O8    S    
C14   C15   A    
C16   C17   A    
C2    C3    S    
C1    C11   S    
C4    H1    S    
C12   C30   S    
C1    O2    A    
C23   O5    A    
Cu1   Cu2   S    
C14   Cl8   S    
Cu1   O3    S    
C7    Cl6   S    
C28   Cl11  S    
C8    C9    A    
C27   Cl10  S    
