data_mof_unit_40226.cif
_audit_creation_date              2012-10-26T20:24:21-0400
_audit_creation_method            fapswitch 2.2
_symmetry_space_group_name_H-M    P1
_symmetry_Int_Tables_number       1
_space_group_crystal_system       triclinic
_cell_length_a                    15.829196
_cell_length_b                    10.747603
_cell_length_c                    9.529898
_cell_angle_alpha                 89.791956
_cell_angle_beta                  89.953466
_cell_angle_gamma                 92.280305
_cell_volume                      1619.98734633

loop_
_atom_site_label
_atom_site_type_symbol
_atom_type_description
_atom_site_fract_x
_atom_site_fract_y
_atom_site_fract_z
_atom_type_partial_charge
C1    C     C_R   0.495615 0.260247 0.500156 0.552563
C2    C     C_3   0.464007 0.926881 0.644499 -0.237434
C3    C     C_3   0.431103 0.068759 0.386751 -0.236946
C4    C     C_R   0.340029 0.499728 0.500060 0.530060
C5    C     C_3   0.582768 0.078175 0.469507 -0.243107
C6    C     C_3   0.493016 0.122264 0.500329 0.055986
C7    C     C_3   0.493193 0.878324 0.499314 0.047808
C8    C     C_3   0.429907 0.924563 0.388095 -0.243631
C9    C     C_3   0.581956 0.935506 0.462713 -0.217768
C10   C     C_3   0.545905 0.617970 0.082377 0.237752
C11   C     C_3   0.541817 0.620496 0.914811 0.066102
C12   C     C_3   0.082610 0.499727 0.500289 0.046237
C13   C     C_3   0.542364 0.390434 0.086076 -0.097150
C14   C     C_3   0.414476 0.496976 0.083591 -0.170071
C15   C     C_3   0.542069 0.389542 0.920122 0.050154
C16   C     C_R   0.496376 0.739825 0.499836 0.572181
C17   C     C_3   0.413906 0.497800 0.916911 -0.175668
C18   C     C_R   0.659898 0.498991 0.500046 0.603211
C19   C     C_3   0.968804 0.385577 0.535769 -0.099223
C20   C     C_3   0.025848 0.415715 0.407009 -0.102720
C21   C     C_1   0.250158 0.499805 0.500228 -0.046772
C22   C     C_1   0.749694 0.498916 0.500064 0.042701
C23   C     C_3   0.973876 0.583322 0.593494 -0.093409
C24   C     C_3   0.027101 0.469594 0.629049 -0.095916
C25   C     C_2   0.623295 0.663590 0.840106 0.703462
C26   C     C_2   0.628957 0.355028 0.865591 0.623790
C27   C     C_3   0.917146 0.499302 0.500216 0.052382
C28   C     C_3   0.030930 0.613465 0.464735 -0.107353
C29   C     C_3   0.972627 0.529445 0.371458 -0.093603
C30   C     C_1   0.174448 0.499825 0.500290 -0.071250
C31   C     C_1   0.825362 0.499048 0.500139 -0.020268
C32   C     C_3   0.463659 0.069622 0.644968 -0.235225
Cu1   Cu    Cu3+1 0.500040 0.499860 0.642410 0.956879
Cu2   Cu    Cu3+1 0.499960 0.500140 0.357590 0.958735
H1    H     H_    0.048567 0.346939 0.330470 0.106770
H2    H     H_    0.446821 0.890817 0.281819 0.127144
H3    H     H_    0.941868 0.292078 0.564918 0.109521
H4    H     H_    0.508200 0.697648 0.116791 0.089667
H5    H     H_    0.499108 0.697603 0.889648 0.060791
H6    H     H_    0.605999 0.384002 0.132821 0.204219
H7    H     H_    0.378253 0.412757 0.122096 0.129690
H8    H     H_    0.379922 0.578328 0.121969 0.116000
H9    H     H_    0.377746 0.577966 0.878890 0.121567
H10   H     H_    0.378314 0.413194 0.878753 0.125445
H11   H     H_    0.507860 0.304251 0.123012 0.085053
H12   H     H_    0.399434 0.888002 0.669133 0.102737
H13   H     H_    0.948798 0.553982 0.265783 0.134426
H14   H     H_    0.501449 0.306559 0.890976 0.085879
H15   H     H_    0.057820 0.706990 0.435596 0.104346
H16   H     H_    0.951089 0.652063 0.670021 0.122141
H17   H     H_    0.050840 0.445060 0.734772 0.108725
H18   H     H_    0.398909 0.100238 0.669239 0.103659
H19   H     H_    0.506253 0.105052 0.729918 0.169466
H20   H     H_    0.505973 0.896808 0.729755 0.191630
H21   H     H_    0.752743 0.796059 0.083994 0.366028
H22   H     H_    0.686959 0.801770 0.736527 0.328638
H23   H     H_    0.366238 0.101043 0.406448 0.106338
H24   H     H_    0.696018 0.254780 0.729434 0.319805
H25   H     H_    0.364971 0.886914 0.412125 0.105925
H26   H     H_    0.606460 0.118185 0.368221 0.124815
H27   H     H_    0.627396 0.110869 0.552627 0.153987
H28   H     H_    0.630770 0.899751 0.534152 0.153106
H29   H     H_    0.598920 0.909904 0.354007 0.187811
H30   H     H_    0.450776 0.102883 0.280801 0.125212
N1    N     N_3   0.501840 0.500250 0.143650 -0.274073
N2    N     N_3   0.501160 0.503300 0.856280 -0.301864
O1    O     O_R   0.500050 0.317570 0.620260 -0.480040
O2    O     O_2   0.712047 0.561010 0.138237 -0.246808
O3    O     O_3   0.692439 0.788099 0.056460 -0.531732
O4    O     O_2   0.686728 0.603187 0.844997 -0.425578
O5    O     O_R   0.628616 0.780584 0.776005 -0.720243
O6    O     O_2   0.693155 0.382736 0.931545 -0.463254
O7    O     O_R   0.635379 0.274463 0.752027 -0.708059
O8    O     O_R   0.499980 0.317810 0.379740 -0.537231
O9    O     O_R   0.379110 0.499870 0.620240 -0.522875
O10   O     O_R   0.379040 0.500110 0.379720 -0.521737
O11   O     O_R   0.500020 0.682190 0.620260 -0.504736
O12   O     O_R   0.499950 0.682430 0.379740 -0.480983
O13   O     O_R   0.620960 0.499890 0.620280 -0.458347
O14   O     O_R   0.620890 0.500130 0.379760 -0.421693
O15   O     O_2   0.651722 0.712014 0.296421 -0.309768
S1    S     S_3+6 0.652234 0.665634 0.148697 0.025988

loop_
_geom_bond_atom_site_label_1
_geom_bond_atom_site_label_2
_ccdc_geom_bond_type
C6    C32   S    
C27   C29   S    
C26   O6    D    
C2    C7    S    
C3    C6    S    
O15   S1    D    
C7    C8    S    
C13   N1    S    
C3    H30   S    
C2    H12   S    
C17   N2    S    
C29   H13   S    
C1    O8    A    
C28   C29   S    
C8    H25   S    
C5    C6    S    
C11   C25   S    
C26   O7    S    
C2    C32   S    
C16   O11   A    
C8    H2    S    
C32   H18   S    
C4    O9    A    
O3    S1    S    
C19   H3    S    
Cu2   O14   S    
C20   H1    S    
Cu1   O9    S    
C19   C20   S    
C18   O13   A    
C13   H6    S    
C23   C24   S    
C25   O5    S    
C23   C27   S    
C19   C27   S    
C11   N2    S    
C14   H8    S    
C24   H17   S    
C18   C22   S    
C14   C17   S    
C15   H14   S    
Cu2   N1    S    
Cu1   N2    S    
C20   C29   S    
C22   C31   T    
C27   C31   S    
C9    H28   S    
C3    C8    S    
C2    H20   S    
Cu1   O13   S    
C15   C26   S    
C15   N2    S    
C10   S1    S    
C1    C6    S    
C17   H9    S    
C5    C9    S    
C28   H15   S    
H22   O5    S    
C12   C20   S    
Cu1   Cu2   S    
C5    H27   S    
C23   C28   S    
C11   H5    S    
H21   O3    S    
Cu2   O8    S    
C14   H7    S    
C3    H23   S    
C7    C16   S    
C12   C28   S    
C13   C15   S    
C32   H19   S    
Cu1   O1    S    
C10   N1    S    
C7    C9    S    
C5    H26   S    
C12   C30   S    
C9    H29   S    
C23   H16   S    
C21   C30   T    
C12   C24   S    
C10   H4    S    
O2    S1    D    
C19   C24   S    
C17   H10   S    
Cu2   O12   S    
C13   H11   S    
C4    C21   S    
Cu1   O11   S    
C1    O1    A    
C14   N1    S    
C16   O12   A    
C4    O10   A    
C10   C11   S    
C18   O14   A    
C25   O4    D    
H24   O7    S    
Cu2   O10   S    
