data_mof_unit_16943.cif
_audit_creation_date              2012-12-11T14:13:18-0500
_audit_creation_method            fapswitch 2.2
_symmetry_space_group_name_H-M    P1
_symmetry_Int_Tables_number       1
_space_group_crystal_system       triclinic
_cell_length_a                    11.427951
_cell_length_b                    18.456854
_cell_length_c                    10.091526
_cell_angle_alpha                 89.999981
_cell_angle_beta                  110.585092
_cell_angle_gamma                 90.0
_cell_volume                      1992.63988549

loop_
_atom_site_label
_atom_site_type_symbol
_atom_type_description
_atom_site_fract_x
_atom_site_fract_y
_atom_site_fract_z
_atom_type_partial_charge
C1    C     C_R   0.073669 0.645964 0.141357 0.565168
C2    C     C_R   0.929866 0.352416 0.860193 0.564551
C3    C     C_R   0.926331 0.145964 0.858643 0.565168
C4    C     C_R   0.070134 0.852416 0.139807 0.564551
C5    C     C_R   0.459398 0.483515 0.635727 -0.022863
C6    C     C_R   0.639426 0.560986 0.562027 -0.026850
C7    C     C_R   0.540602 0.983515 0.364273 -0.022863
C8    C     C_R   0.360574 0.060986 0.437973 -0.026850
C9    C     C_2   0.407408 0.925187 0.917036 -0.114311
C10   C     C_2   0.644581 0.059943 0.987522 -0.112588
C11   C     C_2   0.592592 0.425187 0.082963 -0.114311
C12   C     C_2   0.355419 0.559943 0.012478 -0.112588
C13   C     C_2   0.523481 0.949118 0.946764 -0.148459
C14   C     C_2   0.539741 0.025052 0.915419 -0.147244
C15   C     C_2   0.476519 0.449118 0.053236 -0.148459
C16   C     C_2   0.460259 0.525052 0.084581 -0.147244
C17   C     C_2   0.005953 0.921360 0.115411 -0.069892
C18   C     C_2   0.976448 0.073159 0.876046 -0.058556
C19   C     C_2   0.994046 0.421360 0.884589 -0.069892
C20   C     C_2   0.023552 0.573159 0.123954 -0.058557
C21   C     C_2   0.985402 0.956948 0.993483 0.067894
C22   C     C_2   0.993221 0.036761 0.995634 0.058047
C23   C     C_2   0.014597 0.456948 0.006517 0.067894
C24   C     C_2   0.006779 0.536761 0.004366 0.058047
C25   C     C_R   0.478191 0.653845 0.454666 0.579110
C26   C     C_R   0.564144 0.363049 0.624180 0.577606
C27   C     C_R   0.521809 0.153845 0.545334 0.579110
C28   C     C_R   0.435856 0.863049 0.375820 0.577606
C29   C     C_R   0.348498 0.638970 0.014486 0.580736
C30   C     C_R   0.622564 0.355255 0.036437 0.550835
C31   C     C_R   0.651502 0.138970 0.985514 0.580736
C32   C     C_R   0.377436 0.855255 0.963563 0.550834
C33   C     C_R   0.554303 0.443499 0.599307 -0.023355
C34   C     C_R   0.528249 0.594362 0.557434 -0.016036
C35   C     C_R   0.445697 0.943499 0.400693 -0.023355
C36   C     C_R   0.471751 0.094363 0.442566 -0.016036
C37   C     C_R   0.370101 0.451672 0.688478 -0.093285
C38   C     C_R   0.739510 0.604590 0.557682 -0.090667
C39   C     C_R   0.629899 0.951672 0.311522 -0.093285
C40   C     C_R   0.260489 0.104590 0.442318 -0.090667
C41   C     C_R   0.265094 0.489143 0.689846 -0.175907
C42   C     C_R   0.841174 0.574505 0.534260 -0.157234
C43   C     C_R   0.734906 0.989143 0.310154 -0.175908
C44   C     C_R   0.158825 0.074505 0.465740 -0.157234
C45   C     C_R   0.258362 0.563141 0.670549 -0.090040
C46   C     C_R   0.841886 0.501176 0.508425 -0.142816
C47   C     C_R   0.741638 0.063141 0.329451 -0.090040
C48   C     C_R   0.158114 0.001176 0.491575 -0.142815
C49   C     C_R   0.358243 0.599464 0.651968 0.148432
C50   C     C_R   0.743430 0.456220 0.511346 0.135990
C51   C     C_R   0.641757 0.099464 0.348032 0.148432
C52   C     C_R   0.256570 0.956220 0.488654 0.135990
C53   C     C_R   0.449438 0.559507 0.615897 0.029089
C54   C     C_R   0.646110 0.484311 0.558609 0.030068
C55   C     C_R   0.550562 0.059507 0.384103 0.029089
C56   C     C_R   0.353890 0.984311 0.441391 0.030068
Cr1   Cr    Cr6+3 0.187610 0.750000 0.979860 1.015611
Cr2   Cr    Cr6+3 0.812390 0.250000 0.020140 1.015611
Cr3   Cr    Cr6+3 0.245810 0.750000 0.341640 1.012232
Cr4   Cr    Cr6+3 0.754190 0.250000 0.658360 1.012232
Cr5   Cr    Cr6+3 0.485760 0.750000 0.219910 0.989997
Cr6   Cr    Cr6+3 0.514240 0.250000 0.780090 0.989997
H1    H     H_    0.194150 0.461653 0.719374 0.095919
H2    H     H_    0.916901 0.608572 0.530006 0.121350
H3    H     H_    0.805849 0.961654 0.280626 0.095919
H4    H     H_    0.083099 0.108572 0.469994 0.121350
H5    H     H_    0.181002 0.592478 0.683083 0.124502
H6    H     H_    0.916324 0.479371 0.477099 0.105005
H7    H     H_    0.818998 0.092479 0.316918 0.124502
H8    H     H_    0.083676 0.979371 0.522901 0.105005
H9    H     H_    0.376414 0.399133 0.734864 0.174646
H10   H     H_    0.738535 0.662746 0.572209 0.145202
H11   H     H_    0.623586 0.899134 0.265136 0.174646
H12   H     H_    0.261464 0.162746 0.427791 0.145203
H13   H     H_    0.459183 0.054922 0.846585 0.169147
H14   H     H_    0.603460 0.915661 0.004559 0.139538
H15   H     H_    0.540817 0.554922 0.153415 0.169147
H16   H     H_    0.396539 0.415661 0.995441 0.139538
H17   H     H_    0.725648 0.029976 0.053634 0.099964
H18   H     H_    0.329192 0.960874 0.863626 0.093956
H19   H     H_    0.274352 0.529976 0.946366 0.099964
H20   H     H_    0.670808 0.460875 0.136373 0.093956
H21   H     H_    0.970448 0.045275 0.779193 0.071038
H22   H     H_    0.005952 0.949258 0.209904 0.066447
H23   H     H_    0.029552 0.545275 0.220807 0.071038
H24   H     H_    0.994048 0.449258 0.790095 0.066447
O1    O     O_R   0.267710 0.668200 0.902110 -0.544539
O2    O     O_R   0.732290 0.331800 0.097890 -0.521385
O3    O     O_R   0.732290 0.168200 0.097890 -0.544539
O4    O     O_R   0.267710 0.831800 0.902110 -0.521385
O5    O     O_R   0.099480 0.674460 0.038850 -0.470437
O6    O     O_R   0.900520 0.325540 0.961150 -0.454076
O7    O     O_R   0.900520 0.174460 0.961150 -0.470437
O8    O     O_R   0.099480 0.825540 0.038850 -0.454076
O9    O     O_R   0.116720 0.669210 0.267660 -0.530384
O10   O     O_R   0.883280 0.330790 0.732340 -0.549894
O11   O     O_R   0.883280 0.169210 0.732340 -0.530384
O12   O     O_R   0.116720 0.830790 0.267660 -0.549894
O13   O     O_R   0.366710 0.675440 0.427590 -0.459373
O14   O     O_R   0.633290 0.324560 0.572410 -0.441424
O15   O     O_R   0.633290 0.175440 0.572410 -0.459373
O16   O     O_R   0.366710 0.824560 0.427590 -0.441425
O17   O     O_R   0.534870 0.669390 0.371760 -0.532614
O18   O     O_R   0.465130 0.330610 0.628240 -0.540621
O19   O     O_R   0.465130 0.169390 0.628240 -0.532614
O20   O     O_R   0.534870 0.830610 0.371760 -0.540621
O21   O     O_R   0.453080 0.674480 0.075160 -0.504939
O22   O     O_R   0.546920 0.325520 0.924840 -0.524256
O23   O     O_R   0.546920 0.174480 0.924840 -0.504939
O24   O     O_R   0.453080 0.825520 0.075160 -0.524256
O25   O     O_3   0.306390 0.750000 0.180470 -0.296175
O26   O     O_3   0.693610 0.250000 0.819530 -0.296175
N1    N     N_3   0.373105 0.676061 0.679277 -0.577231
H25   H     H_    0.434063 0.683332 0.783295 0.251132
H26   H     H_    0.287261 0.700236 0.667432 0.248933
N2    N     N_3   0.734184 0.388646 0.439222 -0.557986
H27   H     H_    0.817562 0.360087 0.485069 0.246110
H28   H     H_    0.729265 0.399038 0.336553 0.217127
N3    N     N_3   0.626895 0.176061 0.320723 -0.577231
H29   H     H_    0.565937 0.183332 0.216705 0.251132
H30   H     H_    0.712739 0.200236 0.332568 0.248933
N4    N     N_3   0.265816 0.888646 0.560778 -0.557986
H31   H     H_    0.182438 0.860087 0.514931 0.246110
H32   H     H_    0.270735 0.899038 0.663447 0.217127
N5    N     N_3   0.025969 0.075715 0.126854 -0.602228
H33   H     H_    0.112850 0.056391 0.191848 0.236533
H34   H     H_    0.958795 0.065961 0.173112 0.223666
N6    N     N_3   0.961269 0.917306 0.863444 -0.595076
H35   H     H_    0.875476 0.934190 0.790455 0.224235
H36   H     H_    0.032260 0.928412 0.823439 0.232930
N7    N     N_3   0.974031 0.575715 0.873146 -0.602229
H37   H     H_    0.887150 0.556391 0.808152 0.236533
H38   H     H_    0.041205 0.565961 0.826888 0.223666
N8    N     N_3   0.038731 0.417306 0.136556 -0.595076
H39   H     H_    0.124524 0.434190 0.209545 0.224235
H40   H     H_    0.967739 0.428412 0.176561 0.232930

loop_
_geom_bond_atom_site_label_1
_geom_bond_atom_site_label_2
_ccdc_geom_bond_type
C49   N1    S    
C4    O12   A    
C12   C29   S    
Cr3   O13   S    
C44   H4    S    
C7    C55   A    
C19   H24   S    
C6    C34   A    
N6    H35   S    
C8    C56   A    
Cr2   O6    S    
Cr6   O19   S    
C50   C54   A    
C32   O24   A    
Cr2   O26   S    
C5    C53   A    
Cr5   O17   S    
Cr2   O7    S    
C38   C42   A    
C5    C37   A    
C42   C46   A    
C15   H16   S    
Cr6   O22   S    
C27   O19   A    
C15   C16   S    
N2    H27   S    
C3    C18   S    
C16   H15   S    
C8    C36   A    
C9    C13   D    
C47   H7    S    
C9    C32   S    
C26   O18   A    
C52   N4    S    
C11   C15   D    
C10   C31   S    
C25   O13   A    
C32   O4    A    
C20   C24   D    
C11   C30   S    
C28   O20   A    
C31   O3    A    
C5    C33   A    
C45   H5    S    
C51   N3    S    
C23   C24   S    
C6    C38   A    
C40   C44   A    
C51   C55   A    
C43   H3    S    
C25   C34   S    
C35   C56   A    
C1    O5    A    
C21   C22   S    
Cr3   O9    S    
C6    C54   A    
Cr5   O24   S    
Cr6   O18   S    
N3    H30   S    
C11   H20   S    
C38   H10   S    
Cr1   O4    S    
C12   C16   D    
C44   C48   A    
C28   C35   S    
Cr4   O11   S    
C10   C14   D    
C25   O17   A    
C22   N5    S    
C47   C51   A    
Cr4   O14   S    
C27   O15   A    
C17   C21   D    
Cr1   O1    S    
Cr2   O2    S    
C9    H18   S    
C19   C23   D    
C46   H6    S    
Cr4   O26   S    
C3    O11   A    
C26   C33   S    
Cr3   O25   S    
C13   H14   S    
C45   C49   A    
C1    O9    A    
C20   H23   S    
C18   H21   S    
C31   O23   A    
C3    O7    A    
N8    H40   S    
C21   N6    S    
C2    O6    A    
Cr5   O20   S    
C4    O8    A    
C4    C17   S    
Cr4   O10   S    
Cr1   O8    S    
C37   H9    S    
N5    H33   S    
C41   H1    S    
C30   O2    A    
Cr4   O15   S    
Cr5   O25   S    
C42   H2    S    
N4    H32   S    
N1    H25   S    
C33   C54   A    
C40   H12   S    
C1    C20   S    
C7    C39   A    
Cr1   O5    S    
C23   N8    S    
C30   O22   A    
C2    C19   S    
C18   C22   D    
Cr3   O16   S    
C7    C35   A    
C48   H8    S    
N7    H38   S    
N6    H36   S    
C39   C43   A    
C10   H17   S    
N8    H39   S    
C27   C36   S    
C46   C50   A    
C17   H22   S    
C14   H13   S    
C2    O10   A    
C36   C55   A    
C24   N7    S    
Cr1   O25   S    
Cr6   O23   S    
C52   C56   A    
C49   C53   A    
N2    H28   S    
C12   H19   S    
C50   N2    S    
C39   H11   S    
C37   C41   A    
Cr5   O21   S    
Cr2   O3    S    
C29   O1    A    
C28   O16   A    
C48   C52   A    
Cr6   O26   S    
C34   C53   A    
N3    H29   S    
N5    H34   S    
Cr3   O12   S    
C41   C45   A    
C29   O21   A    
C8    C40   A    
N4    H31   S    
C13   C14   S    
C43   C47   A    
N7    H37   S    
C26   O14   A    
N1    H26   S    
