data_mof_unit_29043.cif
_audit_creation_date              2012-12-11T16:34:27-0500
_audit_creation_method            fapswitch 2.2
_symmetry_space_group_name_H-M    P1
_symmetry_Int_Tables_number       1
_space_group_crystal_system       triclinic
_cell_length_a                    8.450426
_cell_length_b                    17.331546
_cell_length_c                    27.033919
_cell_angle_alpha                 94.939519
_cell_angle_beta                  92.408152
_cell_angle_gamma                 83.514366
_cell_volume                      3917.32389614

loop_
_atom_site_label
_atom_site_type_symbol
_atom_type_description
_atom_site_fract_x
_atom_site_fract_y
_atom_site_fract_z
_atom_type_partial_charge
Ba1   Ba    Ba6+2 0.856110 0.463800 0.523550 1.676243
Ba2   Ba    Ba6+2 0.333710 0.536130 0.476450 1.708074
C1    C     C_3   0.603540 0.198862 0.684587 0.006459
C2    C     C_R   0.811322 0.482319 0.164156 0.651719
C3    C     C_2   0.759350 0.553349 0.268999 0.102795
C4    C     C_3   0.097510 0.282751 0.658630 0.478615
C5    C     C_3   0.728511 0.573051 0.323665 -0.095063
C6    C     C_1   0.966874 0.482709 0.343427 0.038178
C7    C     C_2   0.983527 0.459811 0.295328 -0.107252
C8    C     C_2   0.883651 0.499320 0.254769 0.262054
C9    C     C_R   0.011335 0.475483 0.101050 -0.080284
C10   C     C_R   0.128448 0.462606 0.138524 -0.061291
C11   C     C_R   0.283849 0.436346 0.124776 -0.040474
C12   C     C_3   0.638391 0.257620 0.647339 0.384217
C13   C     C_R   0.850854 0.487508 0.114299 -0.044921
C14   C     C_2   0.847421 0.534242 0.359523 -0.036998
C15   C     C_2   0.351417 0.485606 0.640644 -0.311835
C16   C     C_3   0.054163 0.248474 0.705994 -0.236302
C17   C     C_R   0.252666 0.450294 0.984544 0.031302
C18   C     C_R   0.978708 0.508433 0.965178 0.018252
C19   C     C_R   0.134772 0.481072 0.949815 0.047751
C20   C     C_R   0.406299 0.425570 0.965917 -0.110938
C21   C     C_R   0.436311 0.421733 0.915495 -0.075788
C22   C     C_R   0.320664 0.451062 0.881486 -0.021144
C23   C     C_3   0.502342 0.647114 0.627050 0.355245
C24   C     C_R   0.173727 0.485344 0.899024 -0.079514
C25   C     C_R   0.066093 0.523737 0.865698 -0.032649
C26   C     C_R   0.111856 0.531266 0.816436 0.595290
C27   C     C_R   0.350353 0.446817 0.830266 0.585140
C28   C     C_3   0.218468 0.302844 0.419803 0.333980
C29   C     C_2   0.444005 0.473258 0.729306 -0.099933
C30   C     C_3   0.465381 0.444256 0.675765 -0.018040
C31   C     C_1   0.208516 0.512784 0.656799 0.038279
C32   C     C_2   0.165923 0.506780 0.703504 -0.125450
C33   C     C_2   0.291763 0.491474 0.744789 0.185442
C34   C     C_3   0.503931 0.667416 0.683121 -0.113785
C35   C     C_R   0.213882 0.449281 0.036131 0.019994
C36   C     C_R   0.054270 0.475105 0.050363 0.027855
C37   C     C_R   0.935148 0.499051 0.014433 0.026426
C38   C     C_R   0.323774 0.421996 0.074588 0.110666
C39   C     C_R   0.733322 0.503742 0.077484 -0.051061
C40   C     C_3   0.220312 0.214345 0.413963 -0.406161
C41   C     C_R   0.872076 0.546473 0.930850 -0.100811
C42   C     C_R   0.916096 0.555252 0.882628 -0.050431
C43   C     C_R   0.774594 0.511440 0.028926 -0.090355
C44   C     C_R   0.412554 0.280110 0.520650 -0.276992
C45   C     C_3   0.050036 0.722358 0.340771 0.435151
C46   C     C_R   0.550494 0.255017 0.494720 0.003218
C47   C     C_R   0.610343 0.175981 0.491999 -0.117021
C48   C     C_R   0.523809 0.121214 0.510576 0.034628
C49   C     C_R   0.377835 0.146223 0.533070 -0.091788
C50   C     C_R   0.322448 0.225960 0.537854 0.037783
C51   C     C_R   0.593322 0.836178 0.510387 -0.120826
C52   C     C_3   0.994632 0.701700 0.583068 0.283734
C53   C     C_R   0.646122 0.756662 0.507054 0.043121
C54   C     C_R   0.879372 0.780505 0.463102 0.027754
C55   C     C_R   0.826646 0.860778 0.466462 -0.137722
C56   C     C_3   0.078417 0.749581 0.289276 -0.312705
C57   C     C_R   0.683454 0.888667 0.490494 0.009169
C58   C     C_1   0.629812 0.970993 0.496982 0.010141
C59   C     C_1   0.581317 0.039373 0.503395 0.019501
C60   C     C_R   0.789167 0.729864 0.484214 -0.256761
C61   C     C_3   0.996879 0.789765 0.594554 -0.120652
C62   C     C_3   0.703375 0.263742 0.366218 0.350206
C63   C     C_3   0.585953 0.201775 0.359832 -0.481594
C64   C     C_2   0.723949 0.292766 0.315265 0.921800
C65   C     C_2   0.517343 0.133720 0.659047 0.869260
C66   C     C_2   0.439692 0.819409 0.262518 0.858443
C67   C     C_3   0.497884 0.744204 0.339243 0.380471
C68   C     C_3   0.423968 0.820705 0.317886 -0.217206
C69   C     C_R   0.086648 0.473660 0.189119 0.589673
H1    H     H_    0.216974 0.192422 0.374150 0.143070
H2    H     H_    0.632361 0.150918 0.334793 0.098749
H3    H     H_    0.470048 0.227073 0.344091 0.132460
H4    H     H_    0.522925 0.283602 0.632082 0.013074
H5    H     H_    0.378640 0.638395 0.614388 -0.014040
H6    H     H_    0.582371 0.592439 0.618714 0.040011
H7    H     H_    0.428657 0.723587 0.691388 0.124259
H8    H     H_    0.452313 0.621924 0.701756 0.026665
H9    H     H_    0.157943 0.211902 0.721350 0.158819
H10   H     H_    0.103951 0.660811 0.341840 0.089728
H11   H     H_    0.198574 0.728589 0.276555 0.157456
H12   H     H_    0.328665 0.185932 0.431710 0.048108
H13   H     H_    0.997756 0.724706 0.260123 0.092674
H14   H     H_    0.056187 0.814028 0.289868 0.147471
H15   H     H_    0.607700 0.729371 0.320162 0.028366
H16   H     H_    0.489293 0.869377 0.334405 0.022611
H17   H     H_    0.299299 0.835897 0.328916 0.110930
H18   H     H_    0.006658 0.331944 0.650651 0.080102
H19   H     H_    0.064736 0.408408 0.284930 0.125170
H20   H     H_    0.372187 0.420049 0.153328 0.165951
H21   H     H_    0.547536 0.470664 0.754320 0.134712
H22   H     H_    0.554580 0.399016 0.903488 0.120152
H23   H     H_    0.118428 0.196323 0.432790 0.135326
H24   H     H_    0.509615 0.409752 0.988493 0.123028
H25   H     H_    0.608611 0.513506 0.086523 0.125287
H26   H     H_    0.755121 0.573179 0.940930 0.071661
H27   H     H_    0.830359 0.585876 0.858251 0.116980
H28   H     H_    0.041451 0.506138 0.710629 0.159068
H29   H     H_    0.677033 0.524431 0.002894 0.065814
H30   H     H_    0.373742 0.475331 0.601256 0.082137
H31   H     H_    0.485172 0.857296 0.529742 0.076616
H32   H     H_    0.306822 0.104179 0.545994 0.092750
H33   H     H_    0.897865 0.901032 0.451639 0.077498
H34   H     H_    0.870676 0.687880 0.576247 0.004979
H35   H     H_    0.721289 0.156351 0.474262 0.066765
H36   H     H_    0.368462 0.341365 0.523982 0.057850
H37   H     H_    0.015559 0.296069 0.734576 0.066497
H38   H     H_    0.836658 0.669783 0.486462 0.054728
H39   H     H_    0.957425 0.211070 0.698199 0.115057
H40   H     H_    0.341730 0.317641 0.418506 0.012363
H41   H     H_    0.166488 0.324611 0.456108 0.045298
H42   H     H_    0.762147 0.257827 0.583792 0.216092
H43   H     H_    0.828215 0.184445 0.618965 0.221310
H44   H     H_    0.769950 0.811831 0.620423 0.204670
H45   H     H_    0.065705 0.683663 0.549554 0.045317
H46   H     H_    0.911429 0.791230 0.664874 0.232869
H47   H     H_    0.844392 0.196692 0.414000 0.157921
H48   H     H_    0.917415 0.193205 0.358239 0.127884
H49   H     H_    0.806972 0.186629 0.282111 0.262690
H50   H     H_    0.533346 0.033862 0.614434 0.309370
H51   H     H_    0.660361 0.692859 0.740038 0.193063
H52   H     H_    0.729590 0.618865 0.700003 0.214650
H53   H     H_    0.580564 0.279068 0.745136 0.230202
H54   H     H_    0.495579 0.198306 0.751175 0.184868
H55   H     H_    0.832131 0.784304 0.344601 0.175297
H56   H     H_    0.965561 0.820139 0.560498 0.067911
H57   H     H_    0.841310 0.694052 0.315484 0.113807
H58   H     H_    0.605525 0.800836 0.398814 0.125875
H59   H     H_    0.422072 0.779392 0.409520 0.224236
H60   H     H_    0.586785 0.808233 0.204858 0.323976
H61   H     H_    0.437658 0.318729 0.049615 0.184190
H62   H     H_    0.539932 0.364079 0.095837 0.204619
H63   H     H_    0.554278 0.601227 0.237400 0.221786
H64   H     H_    0.702420 0.659454 0.243139 0.176668
H65   H     H_    0.251065 0.347080 0.699701 0.154971
H66   H     H_    0.270704 0.344511 0.638302 0.114154
H67   H     H_    0.119288 0.802247 0.606822 0.126457
H68   H     H_    0.795764 0.623014 0.410695 0.152859
H69   H     H_    0.772136 0.533650 0.428974 0.216831
H70   H     H_    0.717591 0.171176 0.700141 0.040838
H71   H     H_    0.566442 0.179467 0.395711 0.088310
N1    N     N_R   0.927559 0.484269 0.202163 -0.418895
N2    N     N_3   0.468974 0.373183 0.063784 -0.521095
N3    N     N_3   0.676647 0.602462 0.233950 -0.463030
N4    N     N_3   0.253073 0.310437 0.666965 -0.478554
N5    N     N_3   0.845081 0.565157 0.410073 -0.442864
N6    N     N_R   0.251753 0.490750 0.797758 -0.418720
N7    N     N_3   0.725973 0.216688 0.605621 -0.491084
N8    N     N_3   0.885384 0.821215 0.633056 -0.467015
N9    N     N_3   0.859476 0.231448 0.385391 -0.473513
N10   N     N_3   0.666316 0.674445 0.702237 -0.460253
N11   N     N_3   0.511890 0.238970 0.725913 -0.478770
N12   N     N_3   0.880534 0.726281 0.346669 -0.540727
N13   N     N_3   0.528742 0.757637 0.392744 -0.482310
O1    O     O_2   0.910880 0.540430 0.617910 -0.455712
O2    O     O_2   0.204811 0.772554 0.471795 -0.493346
O3    O     O_3   0.116841 0.769926 0.379153 -0.592255
O4    O     O_3   0.142880 0.540370 0.557740 -0.491343
O5    O     O_3   0.562610 0.408580 0.475460 -0.454223
O6    O     O_2   0.365880 0.685750 0.523280 -0.453727
O7    O     O_3   0.553332 0.708976 0.604138 -0.644733
O8    O     O_2   0.418276 0.529053 0.324825 -0.403437
O9    O     O_3   0.406410 0.681151 0.328869 -0.609882
O10   O     O_2   0.192585 0.474717 0.221242 -0.570051
O11   O     O_2   0.462113 0.401659 0.814803 -0.614702
O12   O     O_3   0.638605 0.329615 0.396830 -0.580580
O13   O     O_2   0.673724 0.475373 0.173530 -0.567994
O14   O     O_2   0.027177 0.574774 0.790754 -0.605239
O15   O     O_3   0.675650 0.402220 0.588450 -0.488318
O16   O     O_2   0.793728 0.458307 0.675682 -0.502840
O17   O     O_3   0.060600 0.664097 0.623899 -0.632666
O18   O     O_3   0.729654 0.314081 0.671990 -0.625504
O19   O     O_2   0.823810 0.314230 0.476690 -0.442043
O20   O     O_3   0.086630 0.363340 0.564170 -0.507866
O21   O     O_2   0.998979 0.224744 0.527175 -0.496492
O22   O     O_2   0.687570 0.361517 0.308812 -0.561454
O23   O     O_3   0.101743 0.223754 0.619383 -0.573147
O24   O     O_R   0.782437 0.243084 0.274924 -0.728393
O25   O     O_2   0.375647 0.131190 0.665226 -0.584966
O26   O     O_R   0.602314 0.074947 0.629002 -0.752291
O27   O     O_2   0.321601 0.832476 0.235582 -0.602883
O28   O     O_R   0.590920 0.807114 0.242324 -0.774957
O29   O     O_2   0.278810 0.459550 0.382060 -0.431169
O30   O     O_3   0.046820 0.459570 0.442260 -0.470910
O31   O     O_3   0.514050 0.597710 0.411540 -0.452025
O32   O     O_3   0.128735 0.335034 0.380557 -0.618973
O33   O     O_3   0.627090 0.591350 0.524530 -0.481806
O34   O     O_3   0.103080 0.636600 0.435820 -0.459636
P1    P     P_3+3 0.078810 0.562990 0.610370 0.999370
P2    P     P_3+3 0.645380 0.325580 0.462150 1.014942
P3    P     P_3+3 0.125614 0.260864 0.561951 0.944274
P4    P     P_3+3 0.110900 0.436950 0.389630 1.060940
P5    P     P_3+3 0.074252 0.739594 0.437336 0.973775
P6    P     P_3+3 0.666280 0.407354 0.653089 0.933312
P7    P     P_3+3 0.547014 0.687768 0.539729 0.950893
P8    P     P_3+3 0.517517 0.594473 0.346208 1.040710

loop_
_geom_bond_atom_site_label_1
_geom_bond_atom_site_label_2
_ccdc_geom_bond_type
H61   N2    S    
C19   C24   A    
C66   O28   S    
C9    C36   A    
C20   H24   S    
O3    P5    S    
C1    H70   S    
C67   O9    S    
C68   H17   S    
C2    N1    Am   
C51   C57   A    
C16   H9    S    
C61   H56   S    
H68   N5    S    
C24   C25   A    
C67   N13   S    
C14   N5    S    
C23   H6    S    
C69   N1    Am   
C17   C19   A    
H49   O24   S    
C22   C24   A    
C32   C33   S    
C62   O12   S    
C65   O25   D    
C56   H11   S    
O15   P6    S    
C4    N4    S    
O21   P3    D    
C39   H25   S    
C52   C61   S    
C49   H32   S    
O29   P4    D    
C53   C60   A    
C44   C50   A    
Ba1   O15   S    
C1    N11   S    
C63   H2    S    
C54   C55   A    
Ba2   O6    S    
C12   N7    S    
Ba1   Ba2   S    
C50   P3    S    
H60   O28   S    
H63   N3    S    
C15   H30   S    
C22   C27   A    
C16   H39   S    
C46   P2    S    
C65   O26   S    
C9    C13   A    
C25   C42   A    
Ba2   O4    S    
H64   N3    S    
C52   H45   S    
O18   P6    S    
C21   C22   A    
Ba2   O34   S    
O31   P8    S    
H59   N13   S    
C17   C35   A    
C7    C8    S    
C23   O7    S    
C52   H34   S    
H57   N12   S    
O19   P2    D    
C37   C43   A    
Ba1   P1    S    
C16   H37   S    
C53   P7    S    
C57   C58   S    
C6    C14   D    
H53   N11   S    
C4    O23   S    
O4    P1    S    
H47   N9    S    
C15   C31   D    
C27   N6    Am   
C30   P6    S    
C68   H16   S    
O34   P5    S    
H69   N5    S    
H54   N11   S    
C48   C49   A    
C3    C5    S    
C51   C53   A    
H48   N9    S    
C4    C16   S    
C64   O22   D    
C44   C46   A    
Ba1   O19   S    
C26   N6    Am   
C3    N3    S    
C62   N9    S    
C49   C50   A    
C52   O17   S    
H66   N4    S    
Ba1   O4    S    
C17   C20   A    
C13   C39   A    
O16   P6    D    
O20   P3    S    
H58   N13   S    
C18   C37   A    
C6    C7    D    
C34   N10   S    
O17   P1    S    
C34   H8    S    
C63   H3    S    
C2    O13   D    
O6    P7    D    
C28   H41   S    
C58   C59   T    
C62   C64   S    
C27   O11   D    
C5    P8    S    
Ba1   O1    S    
C41   C42   A    
Ba2   O31   S    
C61   N8    S    
C35   C36   A    
C56   H13   S    
O23   P3    S    
C29   C30   S    
C51   H31   S    
C66   O27   D    
C44   H36   S    
C40   H1    S    
C31   C32   D    
C6    P4    S    
Ba2   O29   S    
C18   C19   A    
O33   P7    S    
H46   N8    S    
C1    C12   S    
O2    P5    D    
C54   P5    S    
H55   N12   S    
Ba2   O5    S    
C46   C47   A    
C10   C69   A    
C29   H21   S    
C38   N2    S    
C61   H67   S    
C54   C60   A    
C35   C38   A    
C11   C38   A    
C56   H14   S    
Ba1   P2    S    
O32   P4    S    
C18   C41   A    
O12   P2    S    
O9    P8    S    
H50   O26   S    
Ba1   O33   S    
C15   C30   S    
C55   H33   S    
H52   N10   S    
Ba1   O20   S    
H62   N2    S    
H42   N7    S    
C40   H23   S    
C28   C40   S    
Ba1   O5    S    
C5    C14   S    
C40   H12   S    
C41   H26   S    
O5    P2    S    
O30   P4    S    
C43   H29   S    
C7    H19   S    
C9    C10   A    
C47   H35   S    
C45   N12   S    
Ba1   O30   S    
C12   O18   S    
C4    H18   S    
C32   H28   S    
C64   O24   S    
C28   H40   S    
Ba2   P4    S    
C12   H4    S    
C23   H5    S    
C2    C13   A    
Ba2   O30   S    
C3    C8    D    
C34   H7    S    
C62   C63   S    
C45   C56   S    
C63   H71   S    
C36   C37   A    
C60   H38   S    
C1    C65   S    
H44   N8    S    
C29   C33   D    
C33   N6    S    
C45   H10   S    
C67   C68   S    
Ba2   O33   S    
C55   C57   A    
C23   C34   S    
C42   H27   S    
C21   H22   S    
C26   O14   D    
C11   H20   S    
C10   C11   A    
O8    P8    D    
C66   C68   S    
C47   C48   A    
C69   O10   D    
O7    P7    S    
C25   C26   A    
C48   C59   S    
C39   C43   A    
C20   C21   A    
C31   P1    S    
C28   O32   S    
H43   N7    S    
H65   N4    S    
C67   H15   S    
H51   N10   S    
C8    N1    S    
C45   O3    S    
O1    P1    D    
