data_mof_unit_22360.cif
_audit_creation_date              2012-12-10T16:47:57-0500
_audit_creation_method            fapswitch 2.2
_symmetry_space_group_name_H-M    P1
_symmetry_Int_Tables_number       1
_space_group_crystal_system       triclinic
_cell_length_a                    7.959634
_cell_length_b                    8.605614
_cell_length_c                    10.585597
_cell_angle_alpha                 94.153798
_cell_angle_beta                  83.184421
_cell_angle_gamma                 92.133275
_cell_volume                      717.772053333

loop_
_atom_site_label
_atom_site_type_symbol
_atom_type_description
_atom_site_fract_x
_atom_site_fract_y
_atom_site_fract_z
_atom_type_partial_charge
C1    C     C_R   0.543410 0.792544 0.491552 0.860944
C2    C     C_2   0.563552 0.947956 0.459407 0.288288
C3    C     C_2   0.540476 0.674106 0.083295 0.956344
C4    C     C_2   0.976353 0.612106 0.651127 1.070601
C5    C     C_2   0.437829 0.043163 0.504826 -0.381913
C6    C     C_R   0.494929 0.485098 0.735543 0.953031
C7    C     C_R   0.457043 0.205814 0.498242 0.983578
C8    C     C_R   0.503753 0.504395 0.263185 0.905450
C9    C     C_2   0.556382 0.380403 0.059776 -0.305134
C10   C     C_2   0.520174 0.514342 0.129768 -0.208108
C11   C     C_2   0.577527 0.369470 0.921687 0.438908
C12   C     C_2   0.476829 0.458037 0.866823 -0.349915
H1    H     H_    0.561337 0.272693 0.106237 0.235613
H2    H     H_    0.371901 0.517255 0.923451 0.152288
H3    H     H_    0.324997 0.002754 0.563185 0.182026
H4    H     H_    0.664653 0.819393 0.960503 0.405158
H5    H     H_    0.873035 0.190141 0.977768 0.387952
H6    H     H_    0.894333 0.859720 0.194829 0.405579
H7    H     H_    0.209540 0.239164 0.212415 0.361917
H8    H     H_    0.958276 0.617906 0.843038 0.371414
N1    N     N_2   0.950320 0.457950 0.466680 0.087733
N2    N     N_2   0.049680 0.542050 0.533320 -0.128686
O1    O     O_R   0.389250 0.738570 0.508180 -0.659955
O2    O     O_R   0.664000 0.706777 0.982648 -0.787922
O3    O     O_2   0.580655 0.104978 0.772873 -0.305903
O4    O     O_2   0.834383 0.272670 0.743589 -0.242320
O5    O     O_3   0.786873 0.116596 0.945265 -0.500808
O6    O     O_2   0.667358 0.087860 0.246407 -0.288866
O7    O     O_2   0.873069 0.073375 0.402610 -0.195629
O8    O     O_3   0.807322 0.824652 0.262450 -0.520705
O9    O     O_2   0.888286 0.317462 0.244308 -0.220944
O10   O     O_2   0.083851 0.538034 0.238432 -0.273760
O11   O     O_3   0.179088 0.267688 0.304442 -0.503947
O12   O     O_R   0.678390 0.711630 0.486820 -0.549763
O13   O     O_2   0.895077 0.730019 0.653568 -0.579952
O14   O     O_R   0.011946 0.555101 0.764930 -0.752378
O15   O     O_R   0.355470 0.513470 0.691600 -0.607713
O16   O     O_R   0.644610 0.486520 0.670240 -0.599445
O17   O     O_R   0.321610 0.288370 0.513180 -0.569510
O18   O     O_R   0.610750 0.261430 0.491820 -0.551034
O19   O     O_R   0.355390 0.513480 0.329760 -0.540423
O20   O     O_R   0.644530 0.486530 0.308400 -0.553195
O21   O     O_2   0.452738 0.778552 0.136890 -0.561452
S1    S     S_3+6 0.697309 0.214724 0.840147 0.076656
S2    S     S_3+6 0.732227 0.989633 0.340447 0.108615
S3    S     S_3+6 0.025733 0.398023 0.310857 0.207698
Zn1   Zn    Zn3+2 0.306940 0.517990 0.514260 1.110217
Zn2   Zn    Zn3+2 0.693060 0.482010 0.485740 1.189369

loop_
_geom_bond_atom_site_label_1
_geom_bond_atom_site_label_2
_ccdc_geom_bond_type
C11   C12   D    
C6    O16   A    
H6    O8    S    
O15   Zn1   S    
C4    N2    S    
C9    C10   D    
O8    S2    S    
O16   Zn2   S    
C7    O18   A    
N1    Zn2   S    
C4    O14   S    
N2    Zn1   S    
O19   Zn1   S    
C4    O13   D    
O4    S1    D    
C11   S1    S    
H4    O2    S    
C3    C10   S    
O20   Zn2   S    
N1    N2    D    
O11   S3    S    
C9    C11   S    
C3    O21   D    
C3    O2    S    
O3    S1    D    
C8    C10   S    
C8    O20   A    
C1    O12   A    
C1    O1    A    
C5    C7    S    
C2    S2    S    
C6    C12   S    
C6    O15   A    
O6    S2    D    
C5    H3    S    
C2    C5    D    
O1    Zn1   S    
H8    O14   S    
O12   Zn2   S    
C8    O19   A    
O17   Zn1   S    
C1    C2    S    
H7    O11   S    
O7    S2    D    
O18   Zn2   S    
C7    O17   A    
C9    H1    S    
O10   S3    D    
O5    S1    S    
O9    S3    D    
C12   H2    S    
N1    S3    S    
H5    O5    S    
