data_mof_unit_10224.cif
_audit_creation_date              2012-12-11T16:25:19-0500
_audit_creation_method            fapswitch 2.2
_symmetry_space_group_name_H-M    P1
_symmetry_Int_Tables_number       1
_space_group_crystal_system       triclinic
_cell_length_a                    22.41627
_cell_length_b                    30.488479
_cell_length_c                    18.828143
_cell_angle_alpha                 90.32615
_cell_angle_beta                  126.671791
_cell_angle_gamma                 89.996721
_cell_volume                      10320.6712172

loop_
_atom_site_label
_atom_site_type_symbol
_atom_type_description
_atom_site_fract_x
_atom_site_fract_y
_atom_site_fract_z
_atom_type_partial_charge
C1    C     C_R   0.930041 0.605980 0.073021 -0.121280
C2    C     C_R   0.070307 0.397236 0.924163 -0.131097
C3    C     C_R   0.071733 0.602944 0.925978 -0.133089
C4    C     C_R   0.927807 0.394734 0.071213 -0.126485
C5    C     C_R   0.455919 0.120532 0.074162 -0.146195
C6    C     C_R   0.544559 0.880224 0.924404 -0.124756
C7    C     C_R   0.545610 0.120513 0.927205 -0.123324
C8    C     C_R   0.455096 0.878731 0.071432 -0.143815
C9    C     C_R   0.882850 0.539294 0.561447 -0.260633
C10   C     C_R   0.938466 0.460027 0.313512 -0.265538
C11   C     C_R   0.400966 0.959788 0.566396 -0.264138
C12   C     C_R   0.403033 0.039685 0.275822 -0.258867
C13   C     C_R   0.877678 0.539673 0.484149 0.145087
C14   C     C_R   0.908425 0.459595 0.360103 0.145105
C15   C     C_R   0.385500 0.959519 0.482930 0.144878
C16   C     C_R   0.385889 0.039902 0.335750 0.141775
C17   C     C_R   0.880803 0.499566 0.448885 0.026021
C18   C     C_R   0.896541 0.499681 0.387420 0.026399
C19   C     C_R   0.381474 0.999665 0.443524 0.026946
C20   C     C_R   0.381557 0.999732 0.369209 0.026157
C21   C     C_R   0.878059 0.459378 0.483548 0.143162
C22   C     C_R   0.908473 0.539900 0.361072 0.142964
C23   C     C_R   0.385483 0.039768 0.483782 0.142832
C24   C     C_R   0.385659 0.959644 0.334697 0.141541
C25   C     C_R   0.880383 0.579497 0.449351 -0.211744
C26   C     C_R   0.895990 0.419749 0.386142 -0.210639
C27   C     C_R   0.381281 0.919779 0.442303 -0.210399
C28   C     C_R   0.381569 0.079623 0.370254 -0.207172
C29   C     C_R   0.895873 0.579607 0.387897 -0.206151
C30   C     C_R   0.880846 0.419635 0.447905 -0.207958
C31   C     C_R   0.381271 0.919841 0.368270 -0.206960
C32   C     C_R   0.381385 0.079555 0.444140 -0.207878
C33   C     C_R   0.689119 0.315584 0.917212 -0.165151
C34   C     C_R   0.308522 0.685165 0.077683 -0.165128
C35   C     C_R   0.324433 0.341280 0.068763 -0.183496
C36   C     C_R   0.673073 0.658989 0.925574 -0.183428
C37   C     C_R   0.298907 0.748059 0.914883 -0.165305
C38   C     C_R   0.699944 0.252019 0.080745 -0.165397
C39   C     C_R   0.648055 0.736357 0.060049 -0.180139
C40   C     C_R   0.347474 0.262908 0.933872 -0.179905
C41   C     C_R   0.741677 0.339293 0.916718 -0.170854
C42   C     C_R   0.255747 0.661864 0.078348 -0.167629
C43   C     C_R   0.270983 0.364495 0.068761 -0.161732
C44   C     C_R   0.727065 0.636002 0.926187 -0.162997
C45   C     C_R   0.320913 0.790651 0.915681 -0.173756
C46   C     C_R   0.678380 0.209424 0.080782 -0.173153
C47   C     C_R   0.627870 0.779303 0.062067 -0.162482
C48   C     C_R   0.368427 0.220011 0.932981 -0.163070
C49   C     C_R   0.797535 0.362571 0.992511 0.144446
C50   C     C_R   0.199911 0.638227 0.003003 0.144783
C51   C     C_R   0.196081 0.362308 0.994969 0.145339
C52   C     C_R   0.801947 0.638624 0.000190 0.146328
C53   C     C_R   0.387089 0.807463 0.991515 0.143296
C54   C     C_R   0.612446 0.192237 0.005251 0.144705
C55   C     C_R   0.605112 0.807611 0.991625 0.143300
C56   C     C_R   0.392579 0.192302 0.004669 0.144490
C57   C     C_R   0.795700 0.365437 0.065615 -0.162851
C58   C     C_R   0.201854 0.634999 0.929982 -0.162629
C59   C     C_R   0.176325 0.339830 0.918530 -0.170143
C60   C     C_R   0.820912 0.661279 0.076204 -0.170851
C61   C     C_R   0.434854 0.779615 0.062993 -0.163164
C62   C     C_R   0.564583 0.219641 0.932979 -0.162624
C63   C     C_R   0.595615 0.791222 0.915735 -0.173508
C64   C     C_R   0.402290 0.209178 0.080347 -0.172660
C65   C     C_R   0.854381 0.397032 0.923264 -0.129512
C66   C     C_R   0.142773 0.605789 0.073974 -0.121167
C67   C     C_R   0.142995 0.394699 0.072171 -0.128962
C68   C     C_R   0.854896 0.603295 0.924987 -0.131712
C69   C     C_R   0.380875 0.880105 0.924077 -0.124367
C70   C     C_R   0.617876 0.120417 0.074658 -0.146040
C71   C     C_R   0.615657 0.878735 0.071713 -0.139730
C72   C     C_R   0.382546 0.120589 0.926785 -0.124372
C73   C     C_R   0.742754 0.341830 0.065948 -0.182662
C74   C     C_R   0.254880 0.658368 0.929365 -0.183500
C75   C     C_R   0.229453 0.316416 0.918744 -0.165127
C76   C     C_R   0.767189 0.684168 0.075544 -0.164454
C77   C     C_R   0.412764 0.736825 0.062166 -0.180850
C78   C     C_R   0.586187 0.262454 0.932991 -0.180143
C79   C     C_R   0.615687 0.748527 0.913738 -0.165554
C80   C     C_R   0.381399 0.251799 0.081204 -0.165857
C81   C     C_R   0.691777 0.314794 0.993592 0.115924
C82   C     C_R   0.306118 0.685400 0.001511 0.116455
C83   C     C_R   0.303154 0.315060 0.995501 0.116738
C84   C     C_R   0.693602 0.685103 0.998656 0.117763
C85   C     C_R   0.342578 0.721747 0.990194 0.117018
C86   C     C_R   0.656013 0.278001 0.004927 0.117682
C87   C     C_R   0.646263 0.721621 0.987988 0.116694
C88   C     C_R   0.349897 0.278187 0.006066 0.117594
C89   C     C_R   0.454918 0.539009 0.389862 -0.163043
C90   C     C_R   0.594877 0.459407 0.486554 -0.162966
C91   C     C_R   0.615946 0.535720 0.472056 -0.180492
C92   C     C_R   0.444332 0.469998 0.318222 -0.186364
C93   C     C_R   0.948663 0.036587 0.311058 -0.182227
C94   C     C_R   0.117453 0.969661 0.469486 -0.179637
C95   C     C_R   0.084640 0.040361 0.496484 -0.165594
C96   C     C_R   0.952669 0.960428 0.349598 -0.165168
C97   C     C_R   0.379513 0.537633 0.351605 -0.178470
C98   C     C_R   0.660910 0.458830 0.571235 -0.171344
C99   C     C_R   0.682448 0.535129 0.557053 -0.161602
C100  C     C_R   0.368987 0.468425 0.280706 -0.157566
C101  C     C_R   0.871397 0.035967 0.261550 -0.164696
C102  C     C_R   0.180268 0.968428 0.557440 -0.160475
C103  C     C_R   0.147253 0.039192 0.583845 -0.175686
C104  C     C_R   0.875763 0.959746 0.300080 -0.165997
C105  C     C_R   0.336708 0.501605 0.299322 0.148249
C106  C     C_R   0.702354 0.497539 0.609412 0.143309
C107  C     C_R   0.834828 0.998237 0.260180 0.144334
C108  C     C_R   0.193782 0.002467 0.615879 0.142127
C109  C     C_R   0.488419 0.504393 0.376054 0.119527
C110  C     C_R   0.569005 0.498881 0.439650 0.115542
C111  C     C_R   0.989961 0.999668 0.360434 0.115832
C112  C     C_R   0.067270 0.004692 0.439607 0.117645
C113  C     C_R   0.799310 0.535870 0.756228 -0.136766
C114  C     C_R   0.211695 0.463859 0.223131 -0.138127
C115  C     C_R   0.211239 0.536775 0.224093 -0.120903
C116  C     C_R   0.799791 0.463113 0.756923 -0.136400
C117  C     C_R   0.296507 0.036853 0.760744 -0.127420
C118  C     C_R   0.710272 0.962999 0.200546 -0.127137
C119  C     C_R   0.711187 0.036360 0.200649 -0.126893
C120  C     C_R   0.296132 0.963750 0.758669 -0.125741
C121  C     C_R   0.009890 0.463603 0.221562 -0.136960
C122  C     C_R   0.953150 0.536147 0.755113 -0.142672
C123  C     C_R   0.952897 0.463502 0.754823 -0.138161
C124  C     C_R   0.009684 0.536496 0.221658 -0.133111
C125  C     C_R   0.486667 0.963378 0.196885 -0.131533
C126  C     C_R   0.460157 0.036328 0.758146 -0.127233
C127  C     C_R   0.459983 0.963358 0.757832 -0.131520
C128  C     C_R   0.486526 0.036614 0.196954 -0.130840
C129  C     C_R   0.860270 0.617764 0.998868 0.034632
C130  C     C_R   0.138400 0.383112 0.997283 0.035370
C131  C     C_R   0.139815 0.617349 0.000675 0.035023
C132  C     C_R   0.858033 0.383145 0.995590 0.034991
C133  C     C_R   0.405818 0.145595 0.001118 0.040762
C134  C     C_R   0.593089 0.854397 0.996732 0.039873
C135  C     C_R   0.595981 0.145489 0.001927 0.039459
C136  C     C_R   0.403745 0.854292 0.996162 0.040202
C137  C     C_R   0.761927 0.499051 0.704804 0.043346
C138  C     C_R   0.256993 0.500603 0.256669 0.031612
C139  C     C_R   0.256259 0.000612 0.710013 0.035077
C140  C     C_R   0.755516 0.999358 0.222521 0.034144
C141  C     C_R   0.994761 0.500057 0.252271 0.076607
C142  C     C_R   0.934501 0.499702 0.701657 0.083875
C143  C     C_R   0.461306 0.999986 0.215763 0.074506
C144  C     C_R   0.447108 0.999743 0.706482 0.075480
C145  C     C_R   0.883513 0.459686 0.561051 -0.255482
C146  C     C_R   0.938671 0.539752 0.314617 -0.258275
C147  C     C_R   0.400839 0.039463 0.567144 -0.257460
C148  C     C_R   0.402645 0.960048 0.274642 -0.259010
C149  C     C_R   0.895503 0.499528 0.605550 0.113421
C150  C     C_R   0.958161 0.499962 0.295646 0.119788
C151  C     C_R   0.414132 0.999641 0.611537 0.115828
C152  C     C_R   0.418792 0.999916 0.252262 0.116044
H1    H     H_    0.953863 0.614595 0.140346 0.082825
H2    H     H_    0.048298 0.394356 0.855327 0.096613
H3    H     H_    0.050165 0.606692 0.857484 0.095856
H4    H     H_    0.950004 0.385619 0.137759 0.086184
H5    H     H_    0.494088 0.132345 0.141549 0.090157
H6    H     H_    0.507372 0.869456 0.856163 0.085584
H7    H     H_    0.509924 0.131791 0.859550 0.083089
H8    H     H_    0.491854 0.866575 0.138327 0.085105
H9    H     H_    0.741349 0.336882 0.859122 0.107518
H10   H     H_    0.256319 0.664811 0.136002 0.105905
H11   H     H_    0.287895 0.382844 0.127417 0.103503
H12   H     H_    0.710422 0.617428 0.867816 0.112452
H13   H     H_    0.283300 0.811282 0.859306 0.110234
H14   H     H_    0.716051 0.189084 0.137671 0.107688
H15   H     H_    0.632985 0.790659 0.120033 0.104070
H16   H     H_    0.363009 0.208218 0.875061 0.103457
H17   H     H_    0.836623 0.384602 0.123655 0.112618
H18   H     H_    0.161095 0.615672 0.872209 0.113602
H19   H     H_    0.119072 0.337830 0.860362 0.107909
H20   H     H_    0.877859 0.663797 0.134703 0.104101
H21   H     H_    0.487642 0.791254 0.120949 0.104044
H22   H     H_    0.512002 0.207648 0.875189 0.103225
H23   H     H_    0.577723 0.812189 0.860136 0.109992
H24   H     H_    0.421130 0.188618 0.136781 0.107395
H25   H     H_    0.745057 0.342116 0.125081 0.116310
H26   H     H_    0.252639 0.657788 0.870279 0.115682
H27   H     H_    0.211104 0.296059 0.861697 0.114524
H28   H     H_    0.784970 0.704502 0.132436 0.113257
H29   H     H_    0.447707 0.716727 0.120420 0.113330
H30   H     H_    0.551026 0.282264 0.874341 0.113120
H31   H     H_    0.614481 0.738328 0.857697 0.114579
H32   H     H_    0.383035 0.262359 0.137362 0.113786
H33   H     H_    0.487841 0.565491 0.435709 0.114652
H34   H     H_    0.559886 0.430425 0.463176 0.113125
H35   H     H_    0.597490 0.566214 0.435666 0.113575
H36   H     H_    0.469065 0.443091 0.306472 0.114226
H37   H     H_    0.976404 0.066991 0.317091 0.114432
H38   H     H_    0.105521 0.942011 0.426410 0.114066
H39   H     H_    0.046524 0.067476 0.476096 0.115010
H40   H     H_    0.982846 0.931472 0.387160 0.113706
H41   H     H_    0.355422 0.563906 0.365688 0.108181
H42   H     H_    0.675273 0.429050 0.609111 0.106460
H43   H     H_    0.715188 0.564910 0.583216 0.104795
H44   H     H_    0.336139 0.441171 0.237592 0.105710
H45   H     H_    0.841024 0.065654 0.228480 0.110584
H46   H     H_    0.216957 0.940454 0.579945 0.107135
H47   H     H_    0.156789 0.066006 0.627521 0.111941
H48   H     H_    0.849588 0.929853 0.299560 0.106578
H49   H     H_    0.791620 0.569204 0.733136 0.082789
H50   H     H_    0.229568 0.430590 0.243642 0.088342
H51   H     H_    0.228330 0.570222 0.244747 0.083112
H52   H     H_    0.793964 0.429737 0.733875 0.083637
H53   H     H_    0.288123 0.070401 0.738309 0.088072
H54   H     H_    0.725364 0.928941 0.206142 0.095768
H55   H     H_    0.728206 0.070216 0.208371 0.093822
H56   H     H_    0.286163 0.930291 0.734662 0.084907
H57   H     H_    0.014621 0.430260 0.242502 0.084856
H58   H     H_    0.937073 0.569637 0.733769 0.084416
H59   H     H_    0.936369 0.429956 0.732967 0.083693
H60   H     H_    0.014398 0.569846 0.243194 0.083494
H61   H     H_    0.477530 0.929370 0.203087 0.096692
H62   H     H_    0.446179 0.069958 0.736755 0.084615
H63   H     H_    0.445733 0.929661 0.735888 0.083648
H64   H     H_    0.477207 0.070581 0.203434 0.094882
H65   H     H_    0.888204 0.428695 0.591617 0.114649
H66   H     H_    0.949736 0.570822 0.297065 0.116252
H67   H     H_    0.407983 0.070523 0.599363 0.115275
H68   H     H_    0.410310 0.929073 0.252883 0.118684
H69   H     H_    0.886857 0.570295 0.592216 0.113800
H70   H     H_    0.949285 0.429040 0.295045 0.113226
H71   H     H_    0.408280 0.928756 0.598129 0.115081
H72   H     H_    0.411106 0.070717 0.255072 0.117400
H73   H     H_    0.903178 0.610699 0.366305 0.126956
H74   H     H_    0.877362 0.388556 0.472905 0.127401
H75   H     H_    0.383168 0.888816 0.341315 0.128604
H76   H     H_    0.383092 0.110590 0.473664 0.127626
H77   H     H_    0.651094 0.294613 0.860876 0.114632
H78   H     H_    0.346666 0.706234 0.133788 0.113789
H79   H     H_    0.381257 0.341130 0.128284 0.113035
H80   H     H_    0.616339 0.658925 0.865870 0.114641
H81   H     H_    0.244148 0.737500 0.858829 0.114883
H82   H     H_    0.754487 0.262885 0.136769 0.113485
H83   H     H_    0.670593 0.715825 0.117544 0.113440
H84   H     H_    0.324237 0.283015 0.875689 0.113096
N1    N     N_R   0.963040 0.582050 0.045950 -0.040144
N2    N     N_R   0.036960 0.417950 0.954050 -0.040599
N3    N     N_R   0.036960 0.582050 0.954050 -0.039996
N4    N     N_R   0.963040 0.417950 0.045950 -0.038938
N5    N     N_R   0.463040 0.082050 0.045950 -0.036102
N6    N     N_R   0.536960 0.917950 0.954050 -0.037089
N7    N     N_R   0.536960 0.082050 0.954050 -0.037234
N8    N     N_R   0.463040 0.917950 0.045950 -0.036450
N9    N     N_R   0.917940 0.418000 0.954160 -0.040524
N10   N     N_R   0.082060 0.582000 0.045840 -0.040518
N11   N     N_R   0.082060 0.418000 0.045840 -0.038567
N12   N     N_R   0.917940 0.582000 0.954160 -0.039882
N13   N     N_R   0.417940 0.918000 0.954160 -0.036894
N14   N     N_R   0.582060 0.082000 0.045840 -0.035935
N15   N     N_R   0.582060 0.918000 0.045840 -0.036410
N16   N     N_R   0.417940 0.082000 0.954160 -0.036838
N17   N     N_R   0.858490 0.522630 0.835610 -0.035588
N18   N     N_R   0.141510 0.477370 0.164390 -0.036418
N19   N     N_R   0.141510 0.522630 0.164390 -0.038411
N20   N     N_R   0.858490 0.477370 0.835610 -0.035797
N21   N     N_R   0.358490 0.022630 0.835610 -0.038185
N22   N     N_R   0.641510 0.977370 0.164390 -0.040692
N23   N     N_R   0.641510 0.022630 0.164390 -0.040567
N24   N     N_R   0.358490 0.977370 0.835610 -0.038613
N25   N     N_R   0.022480 0.477420 0.164500 -0.038344
N26   N     N_R   0.977520 0.522580 0.835500 -0.037544
N27   N     N_R   0.977520 0.477420 0.835500 -0.038198
N28   N     N_R   0.022480 0.522580 0.164500 -0.039504
N29   N     N_R   0.522480 0.977420 0.164500 -0.042587
N30   N     N_R   0.477520 0.022580 0.835500 -0.040155
N31   N     N_R   0.477520 0.977420 0.835500 -0.040072
N32   N     N_R   0.522480 0.022580 0.164500 -0.042563
Ni1   Ni    Ni4+2 0.051820 0.551870 0.104030 0.214339
Ni2   Ni    Ni4+2 0.948180 0.448130 0.895970 0.209678
Ni3   Ni    Ni4+2 0.948180 0.551870 0.895970 0.209947
Ni4   Ni    Ni4+2 0.051820 0.448130 0.104030 0.217044
Ni5   Ni    Ni4+2 0.551820 0.051870 0.104030 0.211333
Ni6   Ni    Ni4+2 0.448180 0.948130 0.895970 0.207020
Ni7   Ni    Ni4+2 0.448180 0.051870 0.895970 0.206339
Ni8   Ni    Ni4+2 0.551820 0.948130 0.104030 0.208868
H85   H     H_    0.808061 0.393688 0.854234 0.094483
H86   H     H_    0.185847 0.614560 0.141448 0.084806
H87   H     H_    0.186786 0.385479 0.138976 0.086406
H88   H     H_    0.808511 0.607343 0.856251 0.094533
H89   H     H_    0.350552 0.869226 0.855996 0.085919
H90   H     H_    0.646789 0.132204 0.141990 0.090782
H91   H     H_    0.644991 0.866437 0.138394 0.084199
H92   H     H_    0.351406 0.131945 0.859256 0.082189
H93   H     H_    0.876654 0.610506 0.474870 0.126854
H94   H     H_    0.903262 0.388749 0.363777 0.125845
H95   H     H_    0.382981 0.888707 0.471116 0.127121
H96   H     H_    0.383620 0.110702 0.344118 0.128184

loop_
_geom_bond_atom_site_label_1
_geom_bond_atom_site_label_2
_ccdc_geom_bond_type
C16   C28   A    
C119  N23   A    
N31   Ni6   S    
C101  C107  A    
N28   Ni1   S    
C22   C29   A    
C41   H9    S    
C8    C136  A    
C64   C80   A    
C12   C152  A    
C147  C151  A    
C111  C112  S    
C34   C42   A    
C84   C87   S    
C39   C87   A    
C40   H84   S    
N10   Ni1   S    
C13   C25   A    
C76   C84   A    
C71   C134  A    
C79   C87   A    
C56   C133  S    
C45   H13   S    
C127  H63   S    
C4    C132  A    
C63   C79   A    
C68   N12   A    
C5    C133  A    
N5    N16   A    
C9    C149  A    
C100  C105  A    
C127  N31   A    
C38   C86   A    
N3    N10   A    
C3    C131  A    
N6    N15   A    
C91   C110  A    
C37   C85   A    
C36   H80   S    
C118  H54   S    
N17   Ni3   S    
N16   Ni7   S    
C26   H94   S    
C144  C151  S    
C1    C129  A    
C95   C112  A    
C102  H46   S    
C70   C135  A    
C66   N10   A    
C96   C111  A    
C39   H83   S    
C101  H45   S    
C92   C109  A    
C7    H7    S    
C124  N28   A    
C57   C73   A    
C113  H49   S    
C62   H22   S    
C55   C134  S    
C99   H43   S    
C71   H91   S    
C49   C57   A    
C98   H42   S    
C27   H95   S    
C40   C48   A    
N14   Ni5   S    
N5    Ni5   S    
C107  C140  S    
N2    Ni2   S    
C9    C13   A    
C12   H72   S    
N25   Ni4   S    
C65   N9    A    
C52   C60   A    
C116  H52   S    
C105  C138  S    
C15   C19   A    
C67   N11   A    
C68   C129  A    
C41   C49   A    
N27   Ni2   S    
C69   H89   S    
C12   C16   A    
C123  N27   A    
C123  H59   S    
N32   Ni5   S    
C125  C143  A    
C77   H29   S    
C56   C64   A    
C58   C74   A    
C102  C108  A    
C103  C108  A    
C72   H92   S    
C121  H57   S    
C64   H24   S    
C58   H18   S    
C75   H27   S    
C70   N14   A    
C81   C86   S    
C95   H39   S    
N24   Ni6   S    
C44   C52   A    
C11   C15   A    
C114  C138  A    
C83   C88   S    
N26   Ni3   S    
C47   C55   A    
C45   C53   A    
C2    H2    S    
N7    N14   A    
C146  C150  A    
C29   H73   S    
C80   C88   A    
C115  H51   S    
C126  C144  A    
C104  H48   S    
C126  H62   S    
C117  C139  A    
C53   C136  S    
C53   C61   A    
C74   C82   A    
C59   H19   S    
N17   N20   A    
C71   N15   A    
C6    H6    S    
C51   C130  S    
C95   C103  A    
C141  C150  S    
C57   H17   S    
C100  H44   S    
C25   C29   A    
C114  N18   A    
C49   C132  S    
N21   Ni7   S    
C113  N17   A    
N8    N13   A    
N22   Ni8   S    
C30   H74   S    
C60   H20   S    
C22   C146  A    
C28   C32   A    
C89   C97   A    
N15   Ni8   S    
N6    Ni6   S    
C7    N7    A    
C10   C14   A    
C61   C77   A    
N13   Ni6   S    
C93   C101  A    
C33   C81   A    
C122  N26   A    
C89   C109  A    
C90   H34   S    
C1    N1    A    
C70   H90   S    
C23   C147  A    
C60   C76   A    
C14   C26   A    
C125  H61   S    
N1    N12   A    
C55   C63   A    
C78   H30   S    
C120  H56   S    
C31   H75   S    
N2    N11   A    
C19   C23   A    
C94   H38   S    
C7    C135  A    
N18   N19   A    
C121  C141  A    
C108  C139  S    
C117  N21   A    
C122  C142  A    
N29   Ni8   S    
C15   C27   A    
C63   H23   S    
C74   H26   S    
C47   H15   S    
N30   Ni7   S    
C16   C20   A    
C145  C149  A    
C20   C24   A    
C46   C54   A    
C3    H3    S    
C17   C18   A    
C128  N32   A    
C50   C58   A    
C32   H76   S    
C92   H36   S    
C120  C139  A    
C103  H47   S    
C72   N16   A    
C1    H1    S    
C3    N3    A    
C148  H68   S    
C116  N20   A    
N18   Ni4   S    
C73   C81   A    
C122  H58   S    
C68   H88   S    
C11   C151  A    
C143  C152  S    
C4    H4    S    
C128  H64   S    
C26   C30   A    
C69   C136  A    
C5    H5    S    
C96   C104  A    
C27   C31   A    
C24   C148  A    
N4    N9    A    
C113  C137  A    
C124  C141  A    
C36   C44   A    
C67   C130  A    
C51   C59   A    
C52   C129  S    
C67   H87   S    
C8    H8    S    
C33   H77   S    
N7    Ni7   S    
C114  H50   S    
C75   C83   A    
C65   C132  A    
C35   C43   A    
C92   C100  A    
C39   C47   A    
C66   C131  A    
N19   Ni1   S    
C11   H71   S    
C48   C56   A    
C99   C106  A    
C91   H35   S    
C35   C83   A    
C93   H37   S    
C46   H14   S    
C42   C50   A    
C125  N29   A    
N29   N32   A    
C18   C22   A    
C89   H33   S    
C14   C18   A    
C62   C78   A    
C73   H25   S    
C2    N2    A    
C119  C140  A    
C148  C152  A    
C34   C82   A    
C118  C140  A    
C38   H82   S    
N25   N28   A    
C42   H10   S    
C37   H81   S    
N26   N27   A    
C118  N22   A    
C69   N13   A    
C4    N4    A    
C82   C85   S    
C54   C62   A    
C21   C30   A    
C115  C138  A    
C117  H53   S    
C98   C106  A    
N3    Ni3   S    
N21   N24   A    
C33   C41   A    
C23   C32   A    
N4    Ni4   S    
C19   C20   A    
N9    Ni2   S    
C24   C31   A    
C97   C105  A    
C6    C134  A    
C120  N24   A    
C109  C110  S    
C10   C150  A    
C145  H65   S    
C65   H85   S    
N11   Ni4   S    
C43   C51   A    
C72   C133  A    
C121  N25   A    
N12   Ni3   S    
N20   Ni2   S    
C50   C131  S    
C36   C84   A    
C54   C135  S    
C34   H78   S    
C123  C142  A    
C94   C112  A    
C2    C130  A    
C142  C149  S    
C79   H31   S    
N22   N23   A    
C35   H79   S    
C127  C144  A    
C80   H32   S    
C25   H93   S    
C96   H40   S    
C106  C137  S    
C128  C143  A    
C17   C21   A    
C38   C46   A    
C59   C75   A    
C147  H67   S    
N30   N31   A    
C10   H70   S    
N23   Ni5   S    
C77   C85   A    
C13   C17   A    
C146  H66   S    
C9    H69   S    
C28   H96   S    
C115  N19   A    
C94   C102  A    
C124  H60   S    
C78   C86   A    
C116  C137  A    
C66   H86   S    
C97   H41   S    
N8    Ni8   S    
C61   H21   S    
C8    N8    A    
C93   C111  A    
C6    N6    A    
N1    Ni1   S    
C119  H55   S    
C44   H12   S    
C5    N5    A    
C91   C99   A    
C76   H28   S    
C37   C45   A    
C48   H16   S    
C90   C98   A    
C104  C107  A    
C126  N30   A    
C40   C88   A    
C21   C145  A    
C90   C110  A    
C43   H11   S    
