data_mof_unit_46424.cif
_audit_creation_date              2012-12-11T17:08:33-0500
_audit_creation_method            fapswitch 2.2
_symmetry_space_group_name_H-M    P1
_symmetry_Int_Tables_number       1
_space_group_crystal_system       triclinic
_cell_length_a                    6.963763
_cell_length_b                    14.527295
_cell_length_c                    16.081551
_cell_angle_alpha                 89.990971
_cell_angle_beta                  89.988583
_cell_angle_gamma                 90.030975
_cell_volume                      1626.88401782

loop_
_atom_site_label
_atom_site_type_symbol
_atom_type_description
_atom_site_fract_x
_atom_site_fract_y
_atom_site_fract_z
_atom_type_partial_charge
O1    O     O_R   0.505700 0.583890 0.413310 -0.535610
O2    O     O_R   0.175960 0.594920 0.586080 -0.543357
O3    O     O_R   0.005660 0.416110 0.586690 -0.535947
C1    C     C_R   0.344740 0.616775 0.614952 0.692646
O4    O     O_R   0.175980 0.594920 0.413930 -0.543558
O5    O     O_R   0.005680 0.416110 0.413310 -0.538932
C2    C     C_R   0.344798 0.616770 0.385045 0.699149
O6    O     O_R   0.505680 0.583890 0.586690 -0.536682
O7    O     O_3   0.339200 0.441330 0.500000 -0.370014
V1    V     V_3+5 0.064350 0.510880 0.500000 1.386231
O8    O     O_R   0.675960 0.405080 0.413920 -0.539240
C3    C     C_R   0.844981 0.383273 0.384993 0.696494
O9    O     O_R   0.675940 0.405080 0.586070 -0.542928
C4    C     C_R   0.844679 0.383124 0.614857 0.695701
V2    V     V_3+5 0.564340 0.489120 0.500000 1.389791
O10   O     O_3   0.839360 0.558670 0.500000 -0.371301
C5    C     C_R   0.006910 0.317462 0.741507 0.099546
C6    C     C_R   0.852571 0.317723 0.685586 -0.113089
C7    C     C_R   0.700974 0.255899 0.701318 -0.180551
H1    H     H_    0.578445 0.253702 0.660184 0.133047
C8    C     C_R   0.712230 0.191683 0.766825 -0.180094
H2    H     H_    0.597396 0.142250 0.774336 0.126353
C9    C     C_R   0.875744 0.187111 0.818394 -0.109608
C10   C     C_R   0.018493 0.253660 0.806090 0.101343
C11   C     C_3   0.229118 0.241485 0.794240 -0.410575
C12   C     C_3   0.216632 0.311407 0.724190 -0.397077
H3    H     H_    0.265374 0.171008 0.772461 0.165274
H4    H     H_    0.313087 0.266402 0.848539 0.174397
H5    H     H_    0.246477 0.281725 0.661811 0.170192
H6    H     H_    0.292610 0.376929 0.738151 0.167771
C13   C     C_R   0.727243 0.183013 0.241179 0.096625
C14   C     C_R   0.881914 0.182535 0.185407 -0.112092
C15   C     C_R   0.033601 0.244290 0.201170 -0.180534
H7    H     H_    0.156242 0.246402 0.160077 0.133407
C16   C     C_R   0.022368 0.308499 0.266676 -0.177087
H8    H     H_    0.137336 0.357844 0.274241 0.129192
C17   C     C_R   0.858781 0.313140 0.318221 -0.112150
C18   C     C_R   0.715685 0.246813 0.305763 0.100025
C19   C     C_3   0.505290 0.259449 0.293595 -0.408186
C20   C     C_3   0.517740 0.189550 0.223557 -0.399394
H9    H     H_    0.469875 0.330020 0.271775 0.166917
H10   H     H_    0.420613 0.234683 0.347766 0.173548
H11   H     H_    0.488721 0.219344 0.161141 0.170596
H12   H     H_    0.441007 0.124188 0.237386 0.164190
C21   C     C_R   0.505722 0.681680 0.742373 0.100152
C22   C     C_R   0.352573 0.682044 0.685805 -0.111687
C23   C     C_R   0.201443 0.744179 0.701212 -0.180905
H13   H     H_    0.079398 0.746669 0.659805 0.130948
C24   C     C_R   0.212625 0.808355 0.766753 -0.176759
H14   H     H_    0.098337 0.858087 0.773926 0.125168
C25   C     C_R   0.375517 0.812532 0.818741 -0.108480
C26   C     C_R   0.517122 0.745357 0.807032 0.094308
C27   C     C_3   0.728461 0.756235 0.796539 -0.408255
C28   C     C_3   0.716159 0.686507 0.726286 -0.397233
H15   H     H_    0.809785 0.730679 0.851352 0.173429
H16   H     H_    0.767502 0.826517 0.775116 0.166395
H17   H     H_    0.789850 0.620515 0.740598 0.166884
H18   H     H_    0.748717 0.716113 0.664126 0.169796
C29   C     C_R   0.504302 0.681162 0.256905 0.014304
C30   C     C_R   0.352661 0.682198 0.314303 -0.092304
C31   C     C_R   0.202768 0.745375 0.299887 -0.167975
H19   H     H_    0.081492 0.748259 0.341755 0.114860
C32   C     C_R   0.214254 0.810013 0.234681 -0.094070
H20   H     H_    0.101071 0.860479 0.228238 0.118885
C33   C     C_R   0.375647 0.813257 0.181761 -0.144232
C34   C     C_R   0.515018 0.744930 0.192206 0.002616
C35   C     C_3   0.729063 0.753610 0.202041 0.358324
C36   C     C_3   0.715967 0.682466 0.271501 -0.435135
H21   H     H_    0.770201 0.822898 0.225295 0.054182
H22   H     H_    0.752804 0.710546 0.333757 0.136048
H23   H     H_    0.784078 0.615331 0.256365 0.180157
O11   O     O_R   0.229000 0.916070 0.913330 -0.538105
O12   O     O_R   0.558770 0.905070 0.086080 -0.537967
O13   O     O_R   0.729000 0.083900 0.086690 -0.538416
C37   C     C_R   0.389683 0.883286 0.115001 0.697720
O14   O     O_R   0.558720 0.905070 0.913930 -0.541142
O15   O     O_R   0.728960 0.083900 0.913310 -0.541687
C38   C     C_R   0.389619 0.882974 0.885234 0.689452
O16   O     O_R   0.229050 0.916070 0.086710 -0.527599
O17   O     O_3   0.395460 0.058650 0.000020 -0.375187
V3    V     V_3+5 0.670340 0.989120 0.000000 1.415630
O18   O     O_R   0.058670 0.094960 0.913900 -0.542007
C39   C     C_R   0.889637 0.116854 0.885061 0.685554
O19   O     O_R   0.058720 0.094960 0.086050 -0.545655
C40   C     C_R   0.889936 0.116993 0.114780 0.688302
V4    V     V_3+5 0.170330 0.010930 0.999970 1.407241
O20   O     O_3   0.895340 0.941350 0.999980 -0.355894
O21   O     O_3   0.850029 0.725119 0.135108 -0.534787
C41   C     C_3   0.757403 0.669515 0.075199 -0.181158
H24   H     H_    0.648305 0.709853 0.040296 0.129365
H25   H     H_    0.692051 0.607365 0.103986 0.121336
H26   H     H_    0.866179 0.645679 0.029654 0.141150

loop_
_geom_bond_atom_site_label_1
_geom_bond_atom_site_label_2
_ccdc_geom_bond_type
C32   C33   A    
C4    C6    S    
C7    H1    S    
C1    O6    A    
C19   H9    S    
C1    C22   S    
C21   C22   A    
C11   H4    S    
C35   O21   S    
C9    C39   S    
C5    C12   S    
C7    C8    A    
O14   C38   A    
C29   C34   A    
O5    C3    A    
C18   C19   S    
O15   C39   A    
V2    O10   S    
C13   C20   S    
C6    C7    A    
C3    C17   S    
C31   C32   A    
O11   C38   A    
O8    V2    S    
C20   H11   S    
C23   H13   S    
C24   C25   A    
O17   V4    S    
C9    C10   A    
O1    V2    S    
C41   H25   S    
O7    V1    S    
C34   C35   S    
C29   C30   A    
O9    C4    A    
O12   C37   A    
O12   V3    S    
C5    C6    A    
C19   H10   S    
C27   H15   S    
C5    C10   A    
C35   C36   S    
C10   C11   S    
C23   C24   A    
C19   C20   S    
O4    C2    A    
V4    O20   S    
C21   C26   A    
C11   C12   S    
O18   V4    S    
C25   C26   A    
C30   C31   A    
C35   H21   S    
C16   H8    S    
O2    C1    A    
C17   C18   A    
C29   C36   S    
C13   C14   A    
O15   V3    S    
C15   H7    S    
O19   C40   A    
C41   H26   S    
V3    O20   S    
O3    C4    A    
C21   C28   S    
C12   H6    S    
O6    V2    S    
O9    V2    S    
C24   H14   S    
O13   V3    S    
O2    V1    S    
C2    C30   S    
C26   C27   S    
C28   H18   S    
C27   H16   S    
C22   C23   A    
C16   C17   A    
O1    C2    A    
O19   V4    S    
O17   V3    S    
O14   V3    S    
O5    V1    S    
O11   V4    S    
O8    C3    A    
C27   C28   S    
C11   H3    S    
C33   C37   S    
C13   C18   A    
C14   C15   A    
C8    C9    A    
O7    V2    S    
C25   C38   S    
O4    V1    S    
O3    V1    S    
V1    O10   S    
C36   H23   S    
C14   C40   S    
C15   C16   A    
C33   C34   A    
O13   C40   A    
C31   H19   S    
C32   H20   S    
C20   H12   S    
O21   C41   S    
C12   H5    S    
C36   H22   S    
O18   C39   A    
C41   H24   S    
C8    H2    S    
C37   O16   A    
O16   V4    S    
C28   H17   S    
