data_mof_unit_29676.cif
_audit_creation_date              2012-10-26T20:52:46-0400
_audit_creation_method            fapswitch 2.2
_symmetry_space_group_name_H-M    P1
_symmetry_Int_Tables_number       1
_space_group_crystal_system       triclinic
_cell_length_a                    13.42591
_cell_length_b                    14.742753
_cell_length_c                    16.007948
_cell_angle_alpha                 90.564747
_cell_angle_beta                  90.19198
_cell_angle_gamma                 72.647523
_cell_volume                      3024.17791082

loop_
_atom_site_label
_atom_site_type_symbol
_atom_type_description
_atom_site_fract_x
_atom_site_fract_y
_atom_site_fract_z
_atom_type_partial_charge
C1    C     C_R   0.500273 0.500340 0.659153 0.565832
C2    C     C_R   0.816982 0.419712 0.495820 -0.011073
C3    C     C_R   0.458936 0.436073 0.041395 0.291605
C4    C     C_R   0.701298 0.449531 0.499877 0.543313
C5    C     C_R   0.499729 0.498824 0.087288 -0.013969
C6    C     C_R   0.541144 0.562548 0.045936 -0.147092
C7    C     C_R   0.542240 0.565064 0.958650 0.232541
C8    C     C_R   0.500873 0.502626 0.912739 -0.022284
C9    C     C_R   0.459519 0.438870 0.954132 -0.113124
C10   C     C_1   0.500300 0.498850 0.176884 0.044175
C11   C     C_1   0.500808 0.501844 0.823136 0.045432
C12   C     C_R   0.978605 0.464461 0.508887 0.047923
C13   C     C_1   0.500557 0.501154 0.748155 0.066919
C14   C     C_1   0.500385 0.498921 0.251857 0.055032
C15   C     C_R   0.466525 0.055749 0.427640 -0.001605
C16   C     C_R   0.500168 0.499580 0.340859 0.560652
C17   C     C_R   0.498007 0.097297 0.499897 0.002186
C18   C     C_R   0.525876 0.041324 0.573003 -0.005081
C19   C     C_R   0.523218 0.946054 0.572970 -0.060127
C20   C     C_R   0.496814 0.903447 0.501062 -0.010340
C21   C     C_R   0.468257 0.958701 0.429206 -0.087795
C22   C     C_1   0.499419 0.197454 0.499759 0.157045
C23   C     C_R   0.871757 0.482552 0.526919 -0.049082
C24   C     C_1   0.498686 0.803025 0.500679 0.165090
C25   C     C_R   0.300430 0.550126 0.511668 0.593094
C26   C     C_R   0.015569 0.699549 0.544656 0.016872
C27   C     C_R   0.187144 0.579457 0.532075 -0.025436
C28   C     C_R   0.873460 0.335703 0.451322 0.230553
C29   C     C_R   0.979737 0.319037 0.436030 -0.107488
C30   C     C_R   0.030470 0.383608 0.461603 -0.101272
C31   C     C_3   0.431445 0.116635 0.350316 -0.244724
C32   C     C_3   0.383964 0.070883 0.279958 -0.320246
C33   C     C_3   0.345388 0.139496 0.208037 -0.402760
C34   C     C_R   0.029635 0.531751 0.533246 -0.022695
C35   C     C_3   0.558845 0.081608 0.652088 -0.256952
C36   C     C_3   0.672755 0.081795 0.646205 -0.288370
C37   C     C_3   0.705263 0.126348 0.724069 -0.397164
C38   C     C_3   0.949649 0.799232 0.519074 -0.188788
C39   C     C_3   0.874640 0.798199 0.446297 -0.321761
C40   C     C_3   0.808827 0.898866 0.424146 -0.396914
C41   C     C_R   0.969700 0.624959 0.554268 -0.019047
C42   C     C_R   0.868985 0.636509 0.587722 0.236036
C43   C     C_R   0.823441 0.563328 0.576572 -0.078972
C44   C     C_R   0.138187 0.507629 0.540405 0.185783
C45   C     C_R   0.126107 0.676330 0.542179 0.209330
Cu1   Cu    Cu3+1 0.499970 0.410790 0.500000 1.150418
Cu2   Cu    Cu3+1 0.500030 0.589210 0.500000 1.060897
H1    H     H_    0.573298 0.609718 0.082051 0.155608
H2    H     H_    0.557295 0.763489 0.994295 0.342137
H3    H     H_    0.287942 0.206193 0.230562 0.186493
H4    H     H_    0.412315 0.156175 0.178516 0.227765
H5    H     H_    0.307218 0.106016 0.160223 0.156180
H6    H     H_    0.443719 0.007007 0.254885 0.172081
H7    H     H_    0.316845 0.049813 0.304651 0.183866
H8    H     H_    0.371402 0.183298 0.369970 0.176441
H9    H     H_    0.499407 0.136089 0.325263 0.187761
H10   H     H_    0.656134 0.201361 0.731388 0.166245
H11   H     H_    0.697274 0.085831 0.780504 0.188653
H12   H     H_    0.447101 0.924673 0.374747 0.119231
H13   H     H_    0.788044 0.125091 0.718138 0.186531
H14   H     H_    0.724481 0.007621 0.639093 0.217650
H15   H     H_    0.683563 0.122585 0.590838 0.206765
H16   H     H_    0.506556 0.154795 0.663643 0.166260
H17   H     H_    0.550528 0.038621 0.706894 0.173543
H18   H     H_    0.660922 0.708638 0.697254 0.357009
H19   H     H_    0.760806 0.933656 0.478532 0.190613
H20   H     H_    0.859735 0.942128 0.404920 0.202765
H21   H     H_    0.755650 0.895946 0.371585 0.160440
H22   H     H_    0.920590 0.764439 0.390562 0.168133
H23   H     H_    0.543106 0.904387 0.629325 0.166036
H24   H     H_    0.820795 0.756690 0.461925 0.197714
H25   H     H_    0.907795 0.839826 0.573283 0.242247
H26   H     H_    0.000345 0.840629 0.495742 0.203468
H27   H     H_    0.281621 0.255193 0.563553 0.361282
H28   H     H_    0.909918 0.197766 0.298153 0.348738
H29   H     H_    0.109832 0.371675 0.440866 0.177611
H30   H     H_    0.023708 0.257425 0.400467 0.160722
H31   H     H_    0.750170 0.570198 0.607377 0.165291
H32   H     H_    0.428407 0.390942 0.918049 0.188687
H33   H     H_    0.323410 0.768204 0.641070 0.371247
H34   H     H_    0.322708 0.257429 0.051216 0.365876
N1    N     N_1   0.499970 0.723300 0.500020 -0.178404
N2    N     N_1   0.500030 0.276700 0.499980 -0.141850
O1    O     O_R   0.499950 0.424690 0.619690 -0.491829
O2    O     O_2   0.109917 0.845747 0.618388 -0.255253
O3    O     O_3   0.287632 0.718593 0.635610 -0.471445
O4    O     O_2   0.492605 0.291374 0.146943 -0.275288
O5    O     O_2   0.317201 0.404968 0.144552 -0.288007
O6    O     O_3   0.371923 0.283877 0.021098 -0.518004
O7    O     O_2   0.698789 0.586496 0.867653 -0.177886
O8    O     O_2   0.526498 0.699038 0.842739 -0.274855
O9    O     O_3   0.626162 0.719993 0.977685 -0.471160
O10   O     O_2   0.886877 0.759630 0.707969 -0.190388
O11   O     O_2   0.740360 0.813246 0.610596 -0.392053
O12   O     O_R   0.500000 0.575360 0.619690 -0.484502
O13   O     O_3   0.730142 0.693313 0.724709 -0.410000
O14   O     O_2   0.278996 0.420520 0.657361 -0.248489
O15   O     O_2   0.122828 0.368990 0.644521 -0.244166
O16   O     O_3   0.265299 0.314136 0.530302 -0.551228
O17   O     O_2   0.773312 0.205569 0.475662 -0.260807
O18   O     O_2   0.727110 0.302740 0.350089 -0.271603
O19   O     O_3   0.902732 0.167754 0.351996 -0.508539
O20   O     O_R   0.650940 0.387890 0.499980 -0.428147
O21   O     O_R   0.650990 0.538570 0.499980 -0.536247
O22   O     O_R   0.500000 0.424640 0.380310 -0.454634
O23   O     O_R   0.500050 0.575310 0.380310 -0.510168
O24   O     O_R   0.349010 0.461430 0.500020 -0.441849
O25   O     O_R   0.349060 0.612110 0.500020 -0.434138
O26   O     O_2   0.222359 0.803499 0.494897 -0.291518
S1    S     S_3+6 0.185674 0.765377 0.571889 0.038377
S2    S     S_3+6 0.409149 0.352648 0.091722 0.005947
S3    S     S_3+6 0.599104 0.643890 0.908611 0.061779
S4    S     S_3+6 0.806795 0.729624 0.658132 0.019355
S5    S     S_3+6 0.201968 0.401372 0.596512 0.039802
S6    S     S_3+6 0.815208 0.252668 0.407055 0.029543

loop_
_geom_bond_atom_site_label_1
_geom_bond_atom_site_label_2
_ccdc_geom_bond_type
C4    O20   A    
C41   C42   A    
C35   C36   S    
O7    S3    D    
O16   S5    S    
C7    C8    A    
C33   H5    S    
C34   C41   A    
C12   C23   A    
C6    H1    S    
C36   C37   S    
O3    S1    S    
C21   H12   S    
C38   C39   S    
O15   S5    D    
O4    S2    D    
Cu1   O22   S    
C23   C43   A    
C7    S3    S    
C18   C19   A    
C9    H32   S    
Cu2   N1    S    
C24   N1    T    
H33   O3    S    
O19   S6    S    
C26   C45   A    
O5    S2    D    
C27   C44   A    
H18   O13   S    
C20   C24   S    
C3    S2    S    
C8    C9    A    
C40   H20   S    
H28   O19   S    
C35   H17   S    
C31   H9    S    
C18   C35   S    
C37   H11   S    
C16   O23   A    
H34   O6    S    
C27   C45   A    
C44   S5    S    
C40   H19   S    
O17   S6    D    
C36   H15   S    
C32   H7    S    
O11   S4    D    
C1    O1    A    
C38   H25   S    
C34   C44   A    
O2    S1    D    
C10   C14   T    
C39   C40   S    
C45   S1    S    
O9    S3    S    
C33   H3    S    
C33   H4    S    
C43   H31   S    
O8    S3    D    
C2    C4    S    
C29   C30   A    
C3    C9    A    
C28   S6    S    
C30   H29   S    
C42   S4    S    
C31   C32   S    
C1    O12   A    
Cu2   O23   S    
Cu1   O24   S    
C17   C18   A    
C39   H22   S    
O10   S4    D    
C6    C7    A    
C16   O22   A    
Cu1   O1    S    
O18   S6    D    
C14   C16   S    
O13   S4    S    
C1    C13   S    
C42   C43   A    
H2    O9    S    
C12   C34   A    
C36   H14   S    
C32   H6    S    
C25   O24   A    
C15   C17   A    
Cu1   Cu2   S    
C28   C29   A    
C39   H24   S    
Cu2   O21   S    
C12   C30   A    
C26   C38   S    
C3    C5    A    
C35   H16   S    
C15   C31   S    
H27   O16   S    
C25   C27   S    
Cu1   O20   S    
O6    S2    S    
C17   C22   S    
C22   N2    T    
C19   C20   A    
C5    C10   S    
O26   S1    D    
C32   C33   S    
C11   C13   T    
C5    C6    A    
C8    C11   S    
C4    O21   A    
C37   H13   S    
Cu1   N2    S    
C15   C21   A    
C29   H30   S    
C20   C21   A    
C25   O25   A    
Cu2   O25   S    
C40   H21   S    
C2    C23   A    
Cu2   O12   S    
C19   H23   S    
C2    C28   A    
C31   H8    S    
O14   S5    D    
C37   H10   S    
C26   C41   A    
C38   H26   S    
