data_mof_unit_51142.cif
_audit_creation_date              2012-12-11T17:14:03-0500
_audit_creation_method            fapswitch 2.2
_symmetry_space_group_name_H-M    P1
_symmetry_Int_Tables_number       1
_space_group_crystal_system       triclinic
_cell_length_a                    18.184761
_cell_length_b                    7.116607
_cell_length_c                    13.002132
_cell_angle_alpha                 90.001972
_cell_angle_beta                  72.134523
_cell_angle_gamma                 89.999678
_cell_volume                      1601.51667193

loop_
_atom_site_label
_atom_site_type_symbol
_atom_type_description
_atom_site_fract_x
_atom_site_fract_y
_atom_site_fract_z
_atom_type_partial_charge
O1    O     O_R   0.453880 0.506200 0.150010 -0.538285
O2    O     O_R   0.546120 0.006200 0.849990 -0.538282
O3    O     O_R   0.604080 0.177770 0.007280 -0.539479
O4    O     O_R   0.395920 0.677770 0.992720 -0.539481
C1    C     C_R   0.635900 0.344474 0.001795 0.731459
C2    C     C_R   0.364100 0.844475 0.998205 0.731461
O5    O     O_R   0.458010 0.176640 0.159130 -0.541263
O6    O     O_R   0.541990 0.676640 0.840870 -0.541265
O7    O     O_R   0.399010 0.004010 0.002930 -0.535763
O8    O     O_R   0.600990 0.504010 0.997070 -0.535763
C3    C     C_R   0.442088 0.345016 0.201469 0.689633
C4    C     C_R   0.557913 0.845010 0.798531 0.689629
O9    O     O_3   0.480810 0.338440 0.948570 -0.375171
O10   O     O_3   0.519190 0.838440 0.051430 -0.375171
V1    V     V_3+5 0.503560 0.064490 0.009540 1.419329
V2    V     V_3+5 0.496440 0.564490 0.990460 1.419323
C5    C     C_R   0.584650 0.856250 0.501348 -0.162964
C6    C     C_R   0.415357 0.356513 0.498659 -0.162943
H1    H     H_    0.486989 0.850720 0.644575 0.108223
H2    H     H_    0.513028 0.350962 0.355440 0.108221
H3    H     H_    0.663158 0.860197 0.293369 0.126495
H4    H     H_    0.336845 0.360580 0.706631 0.126487
H5    H     H_    0.548530 0.856612 0.448720 0.121915
H6    H     H_    0.451483 0.357004 0.551293 0.121900
C7    C     C_R   0.594661 0.852711 0.681901 -0.028309
C8    C     C_R   0.405337 0.352743 0.318096 -0.028293
C9    C     C_R   0.957467 0.860451 0.383613 -0.173139
C10   C     C_R   0.042526 0.360413 0.616391 -0.173157
C11   C     C_R   0.927256 0.859001 0.496646 0.136999
C12   C     C_R   0.072735 0.358969 0.503358 0.136984
C13   C     C_R   0.846634 0.857725 0.544188 -0.227460
C14   C     C_R   0.153356 0.357707 0.455813 -0.227463
C15   C     C_R   0.795237 0.857737 0.481131 0.070710
C16   C     C_R   0.204756 0.357761 0.518865 0.070711
C17   C     C_R   0.827519 0.859099 0.366632 0.057753
C18   C     C_R   0.172476 0.359154 0.633365 0.057754
C19   C     C_R   0.712876 0.857015 0.527621 0.078771
C20   C     C_R   0.287118 0.357074 0.472374 0.078756
C21   C     C_R   0.665515 0.857784 0.458339 0.137146
C22   C     C_R   0.334485 0.357981 0.541661 0.137147
C23   C     C_R   0.698909 0.859530 0.346508 -0.212543
C24   C     C_R   0.301091 0.359792 0.653491 -0.212529
C25   C     C_R   0.778478 0.860133 0.301260 -0.187709
C26   C     C_R   0.221520 0.360305 0.698737 -0.187703
C27   C     C_R   0.675392 0.854943 0.640403 -0.218967
C28   C     C_R   0.324598 0.354913 0.359584 -0.218945
C29   C     C_R   0.549467 0.853175 0.612539 -0.179290
C30   C     C_R   0.450542 0.353358 0.387469 -0.179296
C31   C     C_R   0.908550 0.860531 0.319139 -0.135059
C32   C     C_R   0.091446 0.360524 0.680862 -0.135070
H7    H     H_    0.706847 0.853487 0.698409 0.095882
H8    H     H_    0.293138 0.353336 0.301562 0.095859
H9    H     H_    0.019156 0.862312 0.344029 0.087228
H10   H     H_    0.980837 0.362251 0.655978 0.087229
H11   H     H_    0.826010 0.857094 0.631170 0.105733
H12   H     H_    0.173976 0.357081 0.368833 0.105739
H13   H     H_    0.801198 0.861397 0.213946 0.127031
H14   H     H_    0.198801 0.361615 0.786051 0.127029
C33   C     C_1   0.216264 0.858794 0.000339 -0.190192
C34   C     C_1   0.783736 0.358794 0.999661 -0.190191
C35   C     C_1   0.283626 0.852536 0.999125 -0.190860
C36   C     C_1   0.716373 0.352535 0.000875 -0.190859
O11   O     O_R   0.899030 0.205490 0.002790 -0.534349
O12   O     O_R   0.100970 0.705490 0.997210 -0.534353
O13   O     O_R   0.042000 0.536370 0.840840 -0.543187
O14   O     O_R   0.958000 0.036370 0.159160 -0.543179
C37   C     C_R   0.056392 0.368185 0.798274 0.689279
C38   C     C_R   0.943605 0.868189 0.201726 0.689282
O15   O     O_R   0.895930 0.535070 0.992690 -0.538930
O16   O     O_R   0.104070 0.035070 0.007310 -0.538925
O17   O     O_R   0.953870 0.707520 0.150040 -0.539712
O18   O     O_R   0.046130 0.207520 0.849960 -0.539709
C39   C     C_R   0.864218 0.366781 0.998669 0.729215
C40   C     C_R   0.135782 0.866780 0.001331 0.729220
O19   O     O_3   0.019200 0.374340 0.051340 -0.374019
O20   O     O_3   0.980800 0.874340 0.948660 -0.374022
V3    V     V_3+5 0.996440 0.648350 0.990470 1.403954
V4    V     V_3+5 0.003560 0.148350 0.009530 1.403975
C41   C     C_3   0.977834 0.859637 0.570903 -0.357003
C42   C     C_3   0.065598 0.860242 0.514164 -0.313741
C43   C     C_3   0.110730 0.861563 0.595571 -0.696958
H15   H     H_    0.095090 0.985626 0.649075 0.236178
H16   H     H_    0.097700 0.734268 0.646632 0.237633
H17   H     H_    0.173692 0.865561 0.552243 0.213482
H18   H     H_    0.082742 0.734539 0.462278 0.197091
H19   H     H_    0.082345 0.985559 0.461935 0.197229
H20   H     H_    0.962799 0.985110 0.624076 0.167871
H21   H     H_    0.963175 0.734288 0.624209 0.168125
C44   C     C_3   0.022154 0.359603 0.429103 -0.356983
C45   C     C_3   0.934390 0.360261 0.485846 -0.313721
C46   C     C_3   0.889253 0.361605 0.404444 -0.697057
H22   H     H_    0.904917 0.485604 0.350915 0.236193
H23   H     H_    0.902241 0.234281 0.353417 0.237634
H24   H     H_    0.826299 0.365712 0.447773 0.213495
H25   H     H_    0.917237 0.234570 0.537734 0.197084
H26   H     H_    0.917656 0.485586 0.538073 0.197236
H27   H     H_    0.037195 0.485062 0.375922 0.167866
H28   H     H_    0.036804 0.234236 0.375805 0.168133

loop_
_geom_bond_atom_site_label_1
_geom_bond_atom_site_label_2
_ccdc_geom_bond_type
O14   C38   A    
C31   C38   S    
C9    C11   A    
O12   V3    S    
O15   V3    S    
O1    C3    A    
O2    C4    A    
C2    O7    A    
C41   H20   S    
C43   H15   S    
C18   C32   A    
C45   H25   S    
C21   C23   A    
O5    C3    A    
C5    H5    S    
C6    H6    S    
C2    C35   S    
O20   V4    S    
H1    C29   S    
O16   V4    S    
C27   H7    S    
C28   H8    S    
C34   C39   S    
C34   C36   T    
C37   O18   A    
C5    C21   A    
C6    C22   A    
C42   H19   S    
C10   C32   A    
C26   H14   S    
O13   C37   A    
C17   C31   A    
O18   V4    S    
C13   C15   A    
O15   C39   A    
C12   C14   A    
C17   C25   A    
C32   C37   S    
C7    C29   A    
C8    C30   A    
C22   C24   A    
O6    V2    S    
C23   C25   A    
C24   C26   A    
C12   C44   S    
C41   H21   S    
C43   H16   S    
O14   V4    S    
C33   C35   T    
O13   V3    S    
O20   V3    S    
O4    C2    A    
C46   H22   S    
C10   H10   S    
O11   C39   A    
C3    C8    S    
C15   C19   A    
C44   H27   S    
C14   C16   A    
O4    V2    S    
O16   C40   A    
C42   H18   S    
C46   H23   S    
C11   C41   S    
O6    C4    A    
C25   H13   S    
O1    V2    S    
O2    V1    S    
O19   V3    S    
C33   C40   S    
H2    C30   S    
H3    C23   S    
C18   C26   A    
C19   C27   A    
C7    C27   A    
O17   V3    S    
C43   H17   S    
O3    V1    S    
C16   C20   A    
C5    C29   A    
C42   C43   S    
O3    C1    A    
C6    C30   A    
C9    H9    S    
C45   H26   S    
C4    C7    S    
C44   H28   S    
C10   C12   A    
O7    V1    S    
C1    O8    A    
C11   C13   A    
O8    V2    S    
C46   H24   S    
C20   C22   A    
C45   C46   S    
H4    C24   S    
C38   O17   A    
O5    V1    S    
C15   C17   A    
C1    C36   S    
C16   C18   A    
O19   V4    S    
C20   C28   A    
C8    C28   A    
C41   C42   S    
C19   C21   A    
O9    V2    S    
O12   C40   A    
O10   V1    S    
C13   H11   S    
C44   C45   S    
C14   H12   S    
C9    C31   A    
O11   V4    S    
