data_mof_unit_58364.cif
_audit_creation_date              2013-03-05T16:31:07-0500
_audit_creation_method            fapswitch 2.2
_symmetry_space_group_name_H-M    P1
_symmetry_Int_Tables_number       1
_space_group_crystal_system       triclinic
_cell_length_a                    10.995793
_cell_length_b                    10.754942
_cell_length_c                    9.615715
_cell_angle_alpha                 90.073468
_cell_angle_beta                  89.372161
_cell_angle_gamma                 91.076122
_cell_volume                      1136.87647455

loop_
_atom_site_label
_atom_site_type_symbol
_atom_site_description
_atom_site_fract_x
_atom_site_fract_y
_atom_site_fract_z
_atom_type_partial_charge
O1    O     O_R   0.500000 0.319640 0.618810 -0.582638
O2    O     O_R   0.500010 0.319680 0.381230 -0.534794
C1    C     C_R   0.504568 0.263085 0.499932 0.875182
O3    O     O_R   0.319640 0.499980 0.618820 -0.553312
O4    O     O_R   0.319650 0.500020 0.381230 -0.502952
C2    C     C_R   0.262136 0.501647 0.502517 0.848241
Cu1   Cu    Cu3+1 0.499990 0.499980 0.640670 1.023410
Cu2   Cu    Cu3+1 0.500010 0.500020 0.359330 1.132864
O5    O     O_R   0.499990 0.680320 0.618770 -0.600237
O6    O     O_R   0.500000 0.680360 0.381190 -0.522235
O7    O     O_R   0.680350 0.499980 0.618770 -0.526391
O8    O     O_R   0.680360 0.500020 0.381180 -0.538808
C3    C     C_R   0.496975 0.737028 0.500327 0.852754
C4    C     C_R   0.737424 0.509904 0.499702 0.901089
C5    C     C_R   0.095445 0.447616 0.768382 0.340803
C6    C     C_R   0.005470 0.406864 0.865656 0.424167
C7    C     C_R   0.897275 0.471628 0.867331 -0.183700
H1    H     H_    0.836249 0.468021 0.955567 0.238041
C8    C     C_R   0.873821 0.550603 0.758027 0.449479
C9    C     C_R   0.933446 0.527645 0.630142 -0.129192
C10   C     C_R   0.057039 0.496096 0.635679 -0.149260
C11   C     C_R   0.128297 0.513644 0.509874 -0.202146
C12   C     C_R   0.067218 0.543437 0.385115 0.262213
C13   C     C_R   0.940815 0.534374 0.378707 0.271881
C14   C     C_R   0.871680 0.527135 0.502040 -0.217805
C15   C     C_R   0.409878 0.064655 0.445477 0.019358
C16   C     C_R   0.509589 0.129839 0.498635 -0.164745
C17   C     C_R   0.614780 0.063868 0.537543 0.326332
C18   C     C_R   0.608866 0.933123 0.536629 -0.227849
H2    H     H_    0.686870 0.880317 0.567312 0.171516
C19   C     C_R   0.501242 0.870148 0.500490 -0.092674
C20   C     C_R   0.404909 0.936939 0.449003 -0.002092
C21   C     C_3   0.271154 0.934869 0.481577 0.357271
C22   C     C_3   0.276885 0.077732 0.474916 -0.501726
H3    H     H_    0.218372 0.894530 0.394217 0.156958
H4    H     H_    0.228965 0.114597 0.383024 0.225612
H5    H     H_    0.258852 0.131123 0.571364 0.181147
C23   C     C_R   0.559289 0.592881 0.072115 0.141470
N1    N     N_R   0.500790 0.500930 0.147930 -0.247673
C24   C     C_R   0.452589 0.401882 0.072699 0.440649
C25   C     C_R   0.454889 0.402035 0.924900 -0.043268
H6    H     H_    0.414380 0.324624 0.869077 0.171478
N2    N     N_R   0.500790 0.500890 0.852020 -0.207692
C26   C     C_R   0.558619 0.592155 0.925470 0.185869
C27   C     C_3   0.535648 0.726999 0.914476 -0.544170
C28   C     C_3   0.537167 0.731417 0.073169 0.648874
H7    H     H_    0.611517 0.778418 0.862833 0.234240
H8    H     H_    0.445543 0.745051 0.868722 0.178024
N3    N     N_R   0.132536 0.579133 0.261571 0.162956
O9    O     O_R   0.140389 0.502404 0.157755 -0.260507
O10   O     O_R   0.179306 0.690580 0.250481 -0.374987
O11   O     O_3   0.238864 0.874500 0.609295 -0.573031
C29   C     C_3   0.271498 0.940991 0.730524 -0.295254
H9    H     H_    0.204977 0.014978 0.752573 0.167318
H10   H     H_    0.366071 0.979090 0.725818 0.172257
H11   H     H_    0.265817 0.876407 0.819930 0.158642
N4    N     N_R   0.397498 0.296342 0.139858 0.127689
O12   O     O_R   0.296023 0.308050 0.208561 -0.324784
O13   O     O_R   0.431506 0.185534 0.104154 -0.428544
N5    N     N_R   0.641012 0.803207 0.129179 0.125299
O14   O     O_R   0.696058 0.766228 0.240343 -0.321430
O15   O     O_R   0.675990 0.907532 0.071372 -0.354347
O16   O     O_3   0.423437 0.761255 0.134305 -0.577047
C30   C     C_3   0.397841 0.888296 0.114660 -0.172821
H12   H     H_    0.303233 0.905141 0.149816 0.183286
H13   H     H_    0.404843 0.917092 0.004111 0.140226
H14   H     H_    0.459302 0.948102 0.177532 0.231390
O17   O     O_3   0.207197 0.473029 0.825834 -0.561577
C31   C     C_3   0.209873 0.598779 0.869975 -0.120771
H15   H     H_    0.125072 0.626934 0.925173 0.176677
H16   H     H_    0.226663 0.661528 0.780073 0.168651
H17   H     H_    0.284867 0.611968 0.944604 0.199367
O18   O     O_3   0.033338 0.336532 0.981191 -0.475949
C32   C     C_3   0.090852 0.226165 0.939308 -0.115846
H18   H     H_    0.185902 0.245100 0.903927 0.161284
H19   H     H_    0.038709 0.176214 0.856948 0.128441
H20   H     H_    0.095151 0.163258 0.030389 0.199154
O19   O     O_3   0.795278 0.648288 0.777534 -0.575401
C33   C     C_3   0.859046 0.761039 0.749724 -0.222873
H21   H     H_    0.877006 0.772389 0.636390 0.173799
H22   H     H_    0.945855 0.767796 0.808304 0.171842
H23   H     H_    0.802756 0.839963 0.784066 0.204830
N6    N     N_R   0.884742 0.527384 0.245422 0.156553
O20   O     O_R   0.894748 0.620397 0.159432 -0.310555
O21   O     O_R   0.846306 0.419607 0.200581 -0.323557
N7    N     N_R   0.726812 0.125443 0.577144 0.122237
O22   O     O_R   0.726710 0.231815 0.641437 -0.369881
O23   O     O_R   0.829749 0.069044 0.561178 -0.356298

loop_
_geom_bond_atom_site_label_1
_geom_bond_atom_site_label_2
_geom_bond_distance
_ccdc_geom_bond_type
C15   C20   1.374083 A    
C31   H17   1.106075 S    
C22   H5    1.108166 S    
O18   C32   1.411552 S    
C8    C9    1.410896 A    
Cu1   Cu2   2.705283 S    
C29   H9    1.109584 S    
O11   C29   1.412942 S    
C21   O11   1.428175 S    
Cu1   O7    1.992054 S    
C15   C16   1.391882 A    
C32   H19   1.114371 S    
C17   C18   1.406455 A    
C13   N6    1.429587 S    
C23   N1    1.375097 A    
O7    C4    1.303129 A    
N7    O23   1.301681 A    
N4    O13   1.300309 A    
C9    C14   1.413073 A    
C5    C6    1.417840 A    
C2    C11   1.480640 S    
N5    O15   1.302504 A    
C25   H6    1.081589 S    
C31   H16   1.109122 S    
O5    C3    1.293663 A    
C7    C8    1.381696 A    
C15   C22   1.495648 S    
N6    O20   1.300952 A    
C6    C7    1.389766 A    
N3    O10   1.299416 A    
C32   H20   1.109335 S    
C12   C13   1.393517 A    
Cu2   N1    2.032721 S    
Cu1   N2    2.032408 S    
C27   H7    1.105747 S    
O1    Cu1   1.950637 S    
C10   C11   1.444706 A    
C25   N2    1.360227 A    
O3    Cu1   1.996477 S    
C21   C22   1.537977 S    
C29   H10   1.111011 S    
C32   H18   1.110830 S    
C6    O18   1.385142 S    
C30   H14   1.107943 S    
C13   C14   1.403090 A    
O3    C2    1.291034 A    
N1    C24   1.387155 A    
C33   H22   1.114796 S    
O19   C33   1.413663 S    
O17   C31   1.416832 S    
C27   H8    1.109002 S    
C27   C28   1.526885 S    
C33   H21   1.111870 S    
N5    O14   1.300551 A    
O1    C1    1.295085 A    
C30   H13   1.109049 S    
C8    O19   1.383774 S    
N2    C26   1.360604 A    
C23   C26   1.410201 A    
C18   H2    1.081448 S    
O4    Cu2   1.992054 S    
C19   C20   1.387129 A    
Cu2   O8    1.996479 S    
C7    H1    1.076240 S    
C24   C25   1.421141 A    
N6    O21   1.300936 A    
O8    C4    1.310237 A    
C17   N7    1.442248 S    
C26   C27   1.480847 S    
C29   H11   1.106425 S    
Cu1   O5    1.951213 S    
C24   N4    1.428242 S    
C28   N5    1.472867 S    
N7    O22   1.299692 A    
C3    C19   1.431584 S    
O2    Cu2   1.951214 S    
O6    C3    1.297325 A    
C33   H23   1.107786 S    
C28   O16   1.418071 S    
C30   H12   1.108384 S    
C1    C16   1.435185 S    
O2    C1    1.296144 A    
C18   C19   1.399379 A    
C20   C21   1.500120 S    
N4    O12   1.298543 A    
O4    C2    1.320840 A    
C5    O17   1.375403 S    
C21   H3    1.109504 S    
C22   H4    1.111109 S    
C4    C14   1.484791 S    
C31   H15   1.114547 S    
C23   C28   1.514176 S    
C12   N3    1.430590 S    
O16   C30   1.413504 S    
C5    C10   1.449223 A    
C9    C10   1.408474 A    
Cu2   O6    1.950637 S    
N3    O9    1.297551 A    
C16   C17   1.422059 A    
C11   C12   1.421134 A    
