data_mof_unit_63796.cif
_audit_creation_date              2012-12-10T18:35:22-0500
_audit_creation_method            fapswitch 2.2
_symmetry_space_group_name_H-M    P1
_symmetry_Int_Tables_number       1
_space_group_crystal_system       triclinic
_cell_length_a                    25.724578
_cell_length_b                    36.109542
_cell_length_c                    22.166574
_cell_angle_alpha                 89.998437
_cell_angle_beta                  125.475447
_cell_angle_gamma                 90.0
_cell_volume                      16768.2421444

loop_
_atom_site_label
_atom_site_type_symbol
_atom_type_description
_atom_site_fract_x
_atom_site_fract_y
_atom_site_fract_z
_atom_type_partial_charge
C1    C     C_R   0.608223 0.249982 0.999948 0.923824
C2    C     C_3   0.724179 0.478551 0.043154 0.419216
C3    C     C_1   0.077697 0.249737 0.654850 0.114075
C4    C     C_1   0.610858 0.250077 0.721556 -0.058256
C5    C     C_1   0.610866 0.749918 0.721552 -0.063803
C6    C     C_1   0.110862 0.750079 0.721553 -0.063837
C7    C     C_1   0.110867 0.249918 0.721555 -0.058262
C8    C     C_3   0.781775 0.021643 0.080036 1.000557
C9    C     C_3   0.780776 0.978404 0.079908 0.973208
C10   C     C_3   0.282287 0.521643 0.080124 1.001574
C11   C     C_3   0.281314 0.478404 0.080013 0.972166
C12   C     C_3   0.789186 0.021635 0.970987 0.058706
C13   C     C_3   0.233063 0.021583 0.051910 0.469761
C14   C     C_3   0.790235 0.978272 0.972559 0.110955
C15   C     C_3   0.288702 0.521629 0.970349 0.054319
C16   C     C_3   0.289721 0.478266 0.971882 0.115801
C17   C     C_1   0.750088 0.889246 0.000076 -0.054666
C18   C     C_1   0.750074 0.110759 0.000077 -0.066877
C19   C     C_1   0.250082 0.389246 0.000072 -0.055699
C20   C     C_1   0.250078 0.610759 0.000077 -0.065695
C21   C     C_3   0.750428 0.036603 0.999939 -0.352341
C22   C     C_3   0.750445 0.963411 0.000066 -0.339933
C23   C     C_3   0.250428 0.536601 0.999927 -0.353146
C24   C     C_3   0.228048 0.978544 0.047149 0.418357
C25   C     C_3   0.250435 0.463411 0.000056 -0.339723
C26   C     C_3   0.681085 0.978499 0.947730 0.413562
C27   C     C_3   0.680983 0.021533 0.948659 0.416600
C28   C     C_3   0.181029 0.478500 0.948260 0.408488
C29   C     C_3   0.180944 0.521535 0.949167 0.421874
C30   C     C_1   0.750227 0.922588 0.000088 0.271641
C31   C     C_1   0.750206 0.077419 0.000059 0.209483
C32   C     C_1   0.250217 0.422588 0.000082 0.271779
C33   C     C_1   0.250210 0.577419 0.000055 0.209486
C34   C     C_R   0.650375 0.249962 0.800868 0.813270
C35   C     C_1   0.749197 0.577468 0.998884 0.064873
C36   C     C_R   0.650376 0.750038 0.800867 0.807921
C37   C     C_R   0.150376 0.749962 0.800867 0.808406
C38   C     C_R   0.150378 0.250037 0.800867 0.812876
C39   C     C_R   0.749978 0.150395 0.000027 0.818259
C40   C     C_R   0.749979 0.849607 0.000025 0.809181
C41   C     C_R   0.249979 0.650395 0.000027 0.813858
C42   C     C_R   0.249978 0.349606 0.000024 0.813839
C43   C     C_R   0.749925 0.349525 0.999980 0.822617
C44   C     C_R   0.749928 0.650478 0.999986 0.823993
C45   C     C_R   0.249925 0.849525 0.999978 0.819127
C46   C     C_1   0.749274 0.422547 0.998898 0.181726
C47   C     C_R   0.249929 0.150478 0.999987 0.826408
C48   C     C_3   0.702401 0.477958 0.915393 0.705524
C49   C     C_3   0.696878 0.521813 0.915885 0.595151
C50   C     C_3   0.199182 0.977965 0.916044 0.705133
C51   C     C_3   0.193909 0.021816 0.917055 0.595838
C52   C     C_3   0.816640 0.478534 0.033659 -0.474685
C53   C     C_3   0.815547 0.521275 0.028146 -0.447952
C54   C     C_3   0.315819 0.978533 0.029417 -0.471004
C55   C     C_3   0.314419 0.021274 0.023739 -0.451010
C56   C     C_1   0.749821 0.610818 0.999691 -0.081754
C57   C     C_1   0.249175 0.077468 0.998980 0.065209
C58   C     C_1   0.749819 0.389192 0.999661 -0.071610
C59   C     C_1   0.249816 0.110818 0.999739 -0.081211
C60   C     C_1   0.249808 0.889191 0.999679 -0.072380
C61   C     C_1   0.249240 0.922546 0.998944 0.180682
C62   C     C_3   0.007743 0.275328 0.049805 -0.290859
C63   C     C_3   0.972919 0.715775 0.981214 -0.345758
C64   C     C_3   0.473218 0.784306 0.981793 -0.343782
C65   C     C_R   0.608306 0.750066 0.000085 0.930757
C66   C     C_3   0.507772 0.224697 0.049865 -0.291305
C67   C     C_3   0.483270 0.759667 0.931446 -0.324130
C68   C     C_3   0.507955 0.215708 0.981126 -0.324549
C69   C     C_3   0.007915 0.284280 0.981046 -0.323330
C70   C     C_3   0.983178 0.740624 0.931280 -0.324622
C71   C     C_3   0.551302 0.750288 0.999915 -0.255779
C72   C     C_3   0.551031 0.249949 0.999456 -0.253212
C73   C     C_3   0.051032 0.250049 0.999456 -0.253206
C74   C     C_3   0.051295 0.749706 0.999901 -0.255494
C75   C     C_3   0.541436 0.774628 0.049473 0.647732
C76   C     C_R   0.108301 0.749929 0.000075 0.930334
C77   C     C_3   0.550881 0.258762 0.067164 0.603552
C78   C     C_3   0.050892 0.241273 0.067184 0.603058
C79   C     C_3   0.041224 0.725159 0.049049 0.647980
C80   C     C_3   0.992074 0.216347 0.018771 0.490714
C81   C     C_3   0.016333 0.758935 0.067343 0.495991
C82   C     C_3   0.516245 0.740778 0.067184 0.495702
C83   C     C_3   0.492033 0.283661 0.018693 0.493162
C84   C     C_3   0.525911 0.716698 0.017475 0.237007
C85   C     C_3   0.492161 0.274673 0.951228 0.276751
C86   C     C_3   0.992191 0.225298 0.951286 0.276209
C87   C     C_R   0.108225 0.250017 0.999949 0.924030
C88   C     C_3   0.026202 0.783223 0.018038 0.236915
C89   C     C_3   0.949364 0.258837 0.933316 0.368026
C90   C     C_3   0.958828 0.774372 0.950805 0.410017
C91   C     C_3   0.458619 0.725841 0.950388 0.409689
C92   C     C_3   0.449375 0.241124 0.933338 0.366850
C93   C     C_R   0.891662 0.249977 0.000052 0.957994
C94   C     C_R   0.891616 0.750081 0.999935 0.921222
C95   C     C_R   0.391611 0.749924 0.999926 0.922655
C96   C     C_R   0.391662 0.250023 0.000051 0.956877
C97   C     C_3   0.948798 0.250078 0.000494 -0.263216
C98   C     C_3   0.748077 0.463388 0.997351 -0.097332
C99   C     C_3   0.948406 0.750048 0.999645 -0.258057
C100  C     C_3   0.448400 0.749959 0.999634 -0.258532
C101  C     C_3   0.448798 0.249921 0.000495 -0.263730
C102  C     C_3   0.468067 0.263917 0.543076 0.874053
C103  C     C_3   0.468184 0.735853 0.543079 0.873081
C104  C     C_3   0.967190 0.762023 0.543081 0.872922
C105  C     C_3   0.968245 0.235738 0.543082 0.873951
C106  C     C_3   0.531555 0.210811 0.542670 0.532460
C107  C     C_3   0.531221 0.789232 0.542674 0.534215
C108  C     C_3   0.034251 0.711204 0.542671 0.533424
C109  C     C_3   0.747755 0.536651 0.997148 -0.149102
C110  C     C_3   0.031059 0.289251 0.542677 0.533372
C111  C     C_3   0.489668 0.211236 0.456702 -0.544744
C112  C     C_3   0.489320 0.788823 0.456705 -0.543496
C113  C     C_3   0.992319 0.711662 0.456701 -0.543129
C114  C     C_3   0.989164 0.288843 0.456708 -0.545423
C115  C     C_1   0.389346 0.250190 0.278468 -0.087920
C116  C     C_1   0.389334 0.749818 0.278467 -0.079949
C117  C     C_1   0.889333 0.750184 0.278467 -0.080290
C118  C     C_1   0.889336 0.249817 0.278469 -0.087959
C119  C     C_3   0.537152 0.250597 0.573183 -0.118076
C120  C     C_3   0.248001 0.963387 0.997450 -0.096824
C121  C     C_3   0.537155 0.749401 0.573177 -0.117220
C122  C     C_3   0.037125 0.750608 0.573178 -0.116741
C123  C     C_3   0.037159 0.249401 0.573182 -0.118540
C124  C     C_3   0.424968 0.263559 0.456490 -0.465835
C125  C     C_3   0.425074 0.736217 0.456493 -0.463688
C126  C     C_3   0.924107 0.761672 0.456496 -0.464237
C127  C     C_3   0.925134 0.236105 0.456496 -0.465220
C128  C     C_3   0.463768 0.250755 0.426768 0.004228
C129  C     C_3   0.463757 0.749260 0.426765 -0.000021
C130  C     C_3   0.963715 0.750751 0.426765 0.000495
C131  C     C_3   0.247687 0.036650 0.997296 -0.149565
C132  C     C_3   0.963764 0.249258 0.426769 0.004216
C133  C     C_3   0.521661 0.277175 0.456528 0.257129
C134  C     C_3   0.521871 0.723030 0.456504 0.259840
C135  C     C_3   0.019735 0.778639 0.456507 0.259508
C136  C     C_3   0.021989 0.223119 0.456514 0.257137
C137  C     C_3   0.565777 0.276765 0.543086 0.134396
C138  C     C_3   0.565986 0.723422 0.543058 0.133270
C139  C     C_3   0.063888 0.778267 0.543062 0.133506
C140  C     C_3   0.066101 0.223515 0.543068 0.134910
C141  C     C_R   0.849529 0.249936 0.199140 0.837234
C142  C     C_3   0.729049 0.521592 0.048070 0.469351
C143  C     C_R   0.849531 0.750066 0.199139 0.832280
C144  C     C_R   0.349529 0.749935 0.199139 0.832685
C145  C     C_R   0.349531 0.250065 0.199139 0.837006
C146  C     C_1   0.422829 0.250393 0.345182 0.086633
C147  C     C_1   0.422811 0.749623 0.345180 0.090099
C148  C     C_1   0.922797 0.750385 0.345180 0.089786
C149  C     C_1   0.922817 0.249621 0.345183 0.086461
C150  C     C_1   0.577686 0.250256 0.654851 0.113905
C151  C     C_1   0.577696 0.749737 0.654846 0.112488
C152  C     C_1   0.077686 0.750261 0.654847 0.112269
F1    F     F_    0.983681 0.181604 0.038097 -0.595452
F2    F     F_    0.590820 0.803899 0.569733 -0.571047
F3    F     F_    0.094911 0.698362 0.569731 -0.571988
F4    F     F_    0.090596 0.304016 0.569740 -0.572718
F5    F     F_    0.842534 0.964927 0.127320 -0.609911
F6    F     F_    0.844282 0.034199 0.125882 -0.609517
F7    F     F_    0.343130 0.464937 0.126943 -0.607182
F8    F     F_    0.344818 0.534209 0.125510 -0.611780
F9    F     F_    0.644190 0.034521 0.971431 -0.523810
F10   F     F_    0.642877 0.964639 0.967873 -0.523843
F11   F     F_    0.144560 0.534540 0.972483 -0.518949
F12   F     F_    0.033017 0.768327 0.136952 -0.594059
F13   F     F_    0.143254 0.464656 0.969025 -0.528382
F14   F     F_    0.749453 0.035196 0.108262 -0.507974
F15   F     F_    0.746286 0.965823 0.106049 -0.504257
F16   F     F_    0.250387 0.535188 0.108882 -0.503296
F17   F     F_    0.247295 0.465814 0.106755 -0.508914
F18   F     F_    0.759161 0.463254 0.113696 -0.569911
F19   F     F_    0.773589 0.532681 0.120774 -0.564508
F20   F     F_    0.265897 0.963222 0.117569 -0.570444
F21   F     F_    0.280269 0.032645 0.123790 -0.564536
F22   F     F_    0.585029 0.799881 0.101210 -0.569609
F23   F     F_    0.532827 0.731087 0.136621 -0.594512
F24   F     F_    0.604281 0.268054 0.136502 -0.596461
F25   F     F_    0.104303 0.232022 0.136547 -0.597736
F26   F     F_    0.084593 0.699679 0.100342 -0.569670
F27   F     F_    0.483596 0.318414 0.037935 -0.591830
F28   F     F_    0.441984 0.239568 0.567226 -0.620486
F29   F     F_    0.441904 0.760036 0.567238 -0.621639
F30   F     F_    0.942836 0.736369 0.567238 -0.622564
F31   F     F_    0.941864 0.259839 0.567244 -0.619901
F32   F     F_    0.591278 0.196338 0.569742 -0.573588
H1    H     H_    0.383971 0.244417 0.435895 0.224421
H2    H     H_    0.448697 0.808380 0.435127 0.193035
H3    H     H_    0.953252 0.690966 0.435117 0.192633
H4    H     H_    0.948460 0.308338 0.435126 0.193843
H5    H     H_    0.518102 0.201482 0.436520 0.250057
H6    H     H_    0.517659 0.798751 0.436512 0.252983
H7    H     H_    0.021368 0.703260 0.436508 0.253036
H8    H     H_    0.017465 0.298850 0.436518 0.249878
H9    H     H_    0.569462 0.305445 0.563936 0.131288
H10   H     H_    0.569902 0.694709 0.563882 0.129777
H11   H     H_    0.065615 0.806681 0.563903 0.130414
H12   H     H_    0.383914 0.755226 0.435906 0.224106
H13   H     H_    0.070136 0.194788 0.563896 0.130960
H14   H     H_    0.847607 0.470282 0.093050 0.280928
H15   H     H_    0.851074 0.532938 0.084218 0.280788
H16   H     H_    0.349152 0.970292 0.088601 0.282113
H17   H     H_    0.351940 0.032946 0.079052 0.279942
H18   H     H_    0.403796 0.291335 0.433754 0.232743
H19   H     H_    0.404139 0.708402 0.433753 0.234655
H20   H     H_    0.901041 0.789073 0.433764 0.234681
H21   H     H_    0.904309 0.208270 0.433753 0.232769
H22   H     H_    0.549011 0.267201 0.434843 0.183041
H23   H     H_    0.884461 0.741484 0.435906 0.223614
H24   H     H_    0.549133 0.733188 0.434825 0.186191
H25   H     H_    0.047719 0.769999 0.434817 0.186085
H26   H     H_    0.049209 0.233355 0.434835 0.182414
H27   H     H_    0.839636 0.031430 0.008443 0.177365
H28   H     H_    0.840658 0.968878 0.012350 0.166769
H29   H     H_    0.339187 0.531412 0.007445 0.173714
H30   H     H_    0.340191 0.468859 0.011282 0.170557
H31   H     H_    0.658444 0.031821 0.891218 0.136225
H32   H     H_    0.659942 0.968932 0.890149 0.143051
H33   H     H_    0.158049 0.531812 0.891650 0.135965
H34   H     H_    0.883898 0.255050 0.435910 0.224685
H35   H     H_    0.159477 0.468921 0.890591 0.143188
H36   H     H_    0.839122 0.466321 0.007973 0.205573
H37   H     H_    0.831979 0.529855 0.993749 0.183148
H38   H     H_    0.335699 0.966312 0.000796 0.205503
H39   H     H_    0.327897 0.029842 0.986488 0.182551
H40   H     H_    0.673525 0.470342 0.015991 0.116771
H41   H     H_    0.682270 0.533237 0.030870 0.101769
H42   H     H_    0.177910 0.970353 0.023154 0.114791
H43   H     H_    0.187300 0.033242 0.038050 0.103281
H44   H     H_    0.470154 0.766979 0.875578 0.211484
H45   H     H_    0.509283 0.192035 0.561450 0.141277
H46   H     H_    0.514509 0.187984 0.964811 0.210438
H47   H     H_    0.014433 0.311996 0.964671 0.210971
H48   H     H_    0.969982 0.733554 0.875281 0.211423
H49   H     H_    0.013995 0.295652 0.091121 0.223593
H50   H     H_    0.950713 0.687866 0.966871 0.212682
H51   H     H_    0.451261 0.812279 0.967931 0.213778
H52   H     H_    0.514037 0.204395 0.091222 0.223804
H53   H     H_    0.748926 0.542395 0.884018 0.320114
H54   H     H_    0.764435 0.479695 0.889928 0.329375
H55   H     H_    0.241568 0.042439 0.879407 0.320585
H56   H     H_    0.508804 0.807870 0.561473 0.141723
H57   H     H_    0.256885 0.979747 0.884304 0.328889
H58   H     H_    0.526615 0.665986 0.043314 0.372128
H59   H     H_    0.441855 0.311756 0.877824 0.377329
H60   H     H_    0.941924 0.188177 0.877962 0.376119
H61   H     H_    0.027404 0.833812 0.044835 0.373313
H62   H     H_    0.910354 0.271860 0.831818 0.364967
H63   H     H_    0.935234 0.811313 0.877020 0.365305
H64   H     H_    0.434680 0.689246 0.875920 0.364103
H65   H     H_    0.410385 0.228053 0.831872 0.364633
H66   H     H_    0.657590 0.274553 0.618623 0.360009
H67   H     H_    0.013317 0.691346 0.561463 0.141359
H68   H     H_    0.657790 0.725814 0.618556 0.355865
H69   H     H_    0.155790 0.777945 0.618583 0.355960
H70   H     H_    0.157897 0.226018 0.618570 0.359477
H71   H     H_    0.537075 0.327355 0.439157 0.363602
H72   H     H_    0.537523 0.673047 0.438460 0.363568
H73   H     H_    0.031501 0.829531 0.438563 0.363679
H74   H     H_    0.037857 0.173184 0.438497 0.363298
H75   H     H_    0.475872 0.318216 0.544098 0.327375
H76   H     H_    0.476438 0.681585 0.544089 0.327676
H77   H     H_    0.971273 0.816510 0.544124 0.327775
H78   H     H_    0.008560 0.307821 0.561472 0.141811
H79   H     H_    0.976717 0.181487 0.544081 0.327427
H80   H     H_    0.780976 0.059576 0.903363 0.358064
H81   H     H_    0.800783 0.966478 0.894694 0.387496
H82   H     H_    0.279931 0.559597 0.902458 0.356150
H83   H     H_    0.299550 0.466347 0.893505 0.388446
H84   H     H_    0.615538 0.467735 0.829643 0.410492
H85   H     H_    0.629269 0.558012 0.886582 0.373599
H86   H     H_    0.110765 0.967744 0.834162 0.409928
H87   H     H_    0.127468 0.057998 0.892459 0.376022
H88   H     H_    0.449212 0.191550 0.435106 0.193494
O1    O     O_3   0.749950 0.249950 0.000000 -0.529445
O2    O     O_R   0.637220 0.728540 0.836030 -0.626574
O3    O     O_R   0.137220 0.771460 0.836030 -0.625432
O4    O     O_R   0.137220 0.228540 0.836030 -0.618221
O5    O     O_R   0.654190 0.228460 0.043020 -0.622815
O6    O     O_R   0.654190 0.771540 0.043020 -0.597075
O7    O     O_R   0.154190 0.728460 0.043020 -0.597561
O8    O     O_R   0.154190 0.271540 0.043020 -0.622324
O9    O     O_R   0.845720 0.228460 0.956990 -0.602251
O10   O     O_R   0.845720 0.771540 0.956990 -0.594777
O11   O     O_R   0.345720 0.728460 0.956990 -0.595531
O12   O     O_3   0.749950 0.750050 0.000000 -0.531906
O13   O     O_R   0.345720 0.271540 0.956990 -0.601177
O14   O     O_R   0.611190 0.271450 0.957030 -0.591959
O15   O     O_R   0.611190 0.728550 0.957030 -0.623518
O16   O     O_R   0.111190 0.771450 0.957030 -0.622723
O17   O     O_R   0.111190 0.228550 0.957030 -0.592954
O18   O     O_R   0.888700 0.271440 0.042960 -0.649858
O19   O     O_R   0.888700 0.728560 0.042960 -0.622928
O20   O     O_R   0.388700 0.771440 0.042960 -0.622609
O21   O     O_R   0.388700 0.228560 0.042960 -0.650413
O22   O     O_R   0.801200 0.228440 0.163980 -0.609557
O23   O     O_3   0.249950 0.749950 0.000000 -0.532130
O24   O     O_R   0.801200 0.771560 0.163980 -0.610508
O25   O     O_R   0.301200 0.728440 0.163980 -0.610865
O26   O     O_R   0.301200 0.271560 0.163980 -0.609608
O27   O     O_R   0.698710 0.228470 0.836030 -0.620205
O28   O     O_R   0.698710 0.771530 0.836030 -0.616654
O29   O     O_R   0.198710 0.728470 0.836030 -0.617985
O30   O     O_R   0.198710 0.271530 0.836030 -0.618564
O31   O     O_R   0.740720 0.167960 0.043020 -0.610648
O32   O     O_R   0.740720 0.832040 0.043020 -0.602720
O33   O     O_R   0.240720 0.667960 0.043020 -0.598771
O34   O     O_3   0.249950 0.250050 0.000000 -0.529263
O35   O     O_R   0.240720 0.332040 0.043020 -0.614447
O36   O     O_R   0.697700 0.331940 0.957000 -0.609004
O37   O     O_R   0.697700 0.668060 0.957000 -0.623843
O38   O     O_R   0.197700 0.831940 0.957000 -0.612899
O39   O     O_R   0.197700 0.168060 0.957000 -0.620305
O40   O     O_R   0.759220 0.167970 0.957030 -0.631649
O41   O     O_R   0.759220 0.832030 0.957030 -0.624436
O42   O     O_R   0.259220 0.667970 0.957030 -0.634664
O43   O     O_R   0.259220 0.332030 0.957030 -0.621597
O44   O     O_R   0.802170 0.331930 0.042960 -0.633524
O45   O     O_R   0.862680 0.271430 0.163960 -0.632996
O46   O     O_R   0.802170 0.668070 0.042960 -0.627883
O47   O     O_R   0.302170 0.831930 0.042960 -0.631547
O48   O     O_R   0.302170 0.168070 0.042960 -0.628889
O49   O     O_3   0.703366 0.538036 0.862399 -0.706030
O50   O     O_3   0.724699 0.466229 0.873232 -0.712172
O51   O     O_3   0.196674 0.038061 0.860814 -0.703574
O52   O     O_3   0.217862 0.966265 0.870283 -0.714132
O53   O     O_3   0.553874 0.681556 0.035359 -0.696238
O54   O     O_3   0.484303 0.300417 0.899419 -0.662827
O55   O     O_3   0.984360 0.199525 0.899535 -0.666444
O56   O     O_R   0.862680 0.728570 0.163960 -0.621637
O57   O     O_3   0.054481 0.818284 0.036529 -0.692470
O58   O     O_3   0.894900 0.267549 0.863084 -0.710961
O59   O     O_3   0.915166 0.800536 0.899994 -0.682754
O60   O     O_3   0.414731 0.699900 0.899126 -0.685457
O61   O     O_3   0.394923 0.232372 0.863128 -0.712183
O62   O     O_3   0.627291 0.265106 0.567404 -0.659487
O63   O     O_3   0.627403 0.735289 0.567378 -0.660140
O64   O     O_3   0.126140 0.768343 0.567368 -0.660514
O65   O     O_3   0.127470 0.235485 0.567393 -0.659786
O66   O     O_3   0.500042 0.313362 0.430404 -0.757184
O67   O     O_R   0.362680 0.771430 0.163960 -0.621473
O68   O     O_3   0.500549 0.686809 0.430366 -0.756250
O69   O     O_3   0.995622 0.814483 0.430382 -0.755977
O70   O     O_3   0.000819 0.186880 0.430379 -0.757615
O71   O     O_3   0.468984 0.299187 0.571025 -0.687216
O72   O     O_3   0.469399 0.700525 0.571024 -0.691246
O73   O     O_3   0.965696 0.796794 0.571031 -0.690765
O74   O     O_3   0.969608 0.200382 0.571026 -0.687866
O75   O     O_3   0.762764 0.034626 0.898691 -0.675196
O76   O     O_3   0.766517 0.963551 0.902197 -0.666710
O77   O     O_3   0.261829 0.534631 0.897954 -0.675167
O78   O     O_R   0.362680 0.228570 0.163960 -0.632667
O79   O     O_3   0.265473 0.463560 0.901360 -0.666124
O80   O     O_3   0.641785 0.461834 0.883389 -0.708815
O81   O     O_3   0.635272 0.530906 0.895594 -0.739764
O82   O     O_3   0.139237 0.961824 0.887856 -0.712115
O83   O     O_3   0.133764 0.030886 0.901237 -0.738074
O84   O     O_R   0.637220 0.271460 0.836030 -0.616669
Zn1   Zn    Zn3+2 0.824580 0.280660 0.061400 1.019870
Zn2   Zn    Zn3+2 0.763170 0.780750 0.938580 1.045211
Zn3   Zn    Zn3+2 0.263170 0.719250 0.938580 1.038553
Zn4   Zn    Zn3+2 0.263170 0.280750 0.938580 1.053006
Zn5   Zn    Zn3+2 0.675310 0.280670 0.938580 1.060710
Zn6   Zn    Zn3+2 0.675310 0.719330 0.938580 1.024715
Zn7   Zn    Zn3+2 0.175310 0.780670 0.938580 1.032967
Zn8   Zn    Zn3+2 0.175310 0.219330 0.938580 1.051648
Zn9   Zn    Zn3+2 0.824580 0.719340 0.061400 1.035391
Zn10  Zn    Zn3+2 0.324580 0.780660 0.061400 1.036222
Zn11  Zn    Zn3+2 0.324580 0.219340 0.061400 1.019671
Zn12  Zn    Zn3+2 0.736740 0.219240 0.061440 1.052772
Zn13  Zn    Zn3+2 0.736740 0.780760 0.061440 1.074925
Zn14  Zn    Zn3+2 0.236740 0.719240 0.061440 1.075520
Zn15  Zn    Zn3+2 0.236740 0.280760 0.061440 1.052145
Zn16  Zn    Zn3+2 0.763170 0.219250 0.938580 1.046011

loop_
_geom_bond_atom_site_label_1
_geom_bond_atom_site_label_2
_ccdc_geom_bond_type
O34   Zn4   S    
C107  C112  S    
C29   F11   S    
O25   Zn14  S    
C136  C140  S    
C11   F7    S    
O23   Zn7   S    
C133  O66   S    
C122  C139  S    
H64   O60   S    
C104  O73   S    
C57   C59   T    
C53   H37   S    
O31   Zn12  S    
C5    C36   S    
C105  C123  S    
O34   Zn15  S    
H66   O62   S    
C80   C86   S    
C145  O78   A    
C43   C58   S    
O23   Zn10  S    
H58   O53   S    
H54   O50   S    
C109  C142  S    
C84   C91   S    
C112  C129  S    
C35   C109  S    
C94   O10   A    
C46   C98   S    
O34   Zn8   S    
C17   C30   T    
C111  H88   S    
C49   O81   S    
H61   O57   S    
C19   C32   T    
C36   O2    A    
C1    O14   A    
C3    C123  S    
C4    C34   S    
C38   O30   A    
O18   Zn1   S    
C64   H51   S    
C90   O59   S    
O28   Zn2   S    
C81   C99   S    
H82   O77   S    
C48   O50   S    
C50   O52   S    
H70   O65   S    
O35   Zn15  S    
H55   O51   S    
C108  C113  S    
C118  C149  T    
C13   F21   S    
C1    O5    A    
C110  C123  S    
C126  H23   S    
C68   C72   S    
O23   Zn14  S    
C89   O58   S    
H80   O75   S    
C136  H26   S    
C20   C33   T    
C111  H5    S    
C82   C84   S    
C74   C79   S    
O15   Zn6   S    
C52   H14   S    
C103  C121  S    
C10   F8    S    
C102  O71   S    
C142  H41   S    
C53   C109  S    
C16   C25   S    
C66   C77   S    
C103  F29   S    
H87   O83   S    
C13   H43   S    
C116  C147  T    
C4    C150  T    
C107  H56   S    
H69   O64   S    
C5    C151  T    
C42   O35   A    
C65   O15   A    
O47   Zn10  S    
C127  H21   S    
C141  O22   A    
C108  F3    S    
C123  C140  S    
O11   Zn3   S    
C68   C92   S    
C87   O8    A    
C51   O83   S    
C129  C147  S    
C81   C88   S    
C47   C59   S    
C125  C129  S    
O26   Zn15  S    
H63   O59   S    
C10   F16   S    
C89   C97   S    
C65   O6    A    
H60   O55   S    
C18   C31   T    
C44   O46   A    
C45   O47   A    
C102  C119  S    
C127  H34   S    
C80   C97   S    
C78   F25   S    
C102  F28   S    
H71   O66   S    
C15   H29   S    
C72   C85   S    
C80   F1    S    
O41   Zn2   S    
C21   C31   S    
C115  C146  T    
O84   Zn5   S    
C74   C76   S    
C93   O18   A    
C117  C148  T    
C50   C120  S    
C23   C29   S    
C26   H32   S    
C45   O38   A    
C136  O70   S    
C78   C80   S    
C104  C122  S    
C11   C25   S    
C55   H17   S    
C52   C98   S    
O1    Zn1   S    
C96   O21   A    
C16   O79   S    
C63   C99   S    
C40   O41   A    
O29   Zn3   S    
C11   F17   S    
C116  C144  S    
O6    Zn13  S    
C15   O77   S    
C110  C114  S    
C19   C42   S    
C46   C58   T    
C61   C120  S    
C143  O56   A    
C66   C101  S    
C69   C89   S    
C144  O25   A    
C85   C92   S    
C68   H46   S    
C106  C111  S    
H73   O69   S    
C79   F26   S    
C1    C72   S    
C113  C130  S    
C105  C127  S    
H75   O71   S    
C53   H15   S    
C133  H22   S    
C121  C151  S    
C122  C152  S    
C16   H30   S    
C70   C74   S    
O1    Zn5   S    
C62   C97   S    
C134  H24   S    
C132  C136  S    
C2    H40   S    
O40   Zn16  S    
C69   C73   S    
C49   O49   S    
C77   F24   S    
C91   C100  S    
H57   O52   S    
O44   Zn1   S    
O1    Zn12  S    
C93   C97   S    
C85   O54   S    
O5    Zn12  S    
C52   C53   S    
H83   O79   S    
C54   C55   S    
C83   C101  S    
C35   C56   T    
C44   O37   A    
C62   C78   S    
C12   H27   S    
O36   Zn5   S    
C75   C82   S    
O12   Zn9   S    
C83   F27   S    
C135  C139  S    
C14   C22   S    
C27   F9    S    
C63   H50   S    
C128  C146  S    
C2    C142  S    
C81   F12   S    
C64   C75   S    
H74   O70   S    
H85   O81   S    
C24   F20   S    
O21   Zn11  S    
C10   C11   S    
C112  H6    S    
O12   Zn2   S    
C82   F23   S    
O8    Zn15  S    
C111  C128  S    
C76   O16   A    
O42   Zn3   S    
H77   O73   S    
O1    Zn16  S    
C142  F19   S    
O4    Zn8   S    
C104  F30   S    
C138  O63   S    
C106  C119  S    
C90   C99   S    
C130  C135  S    
H65   O61   S    
C133  C137  S    
C118  C141  S    
C8    F6    S    
C25   C28   S    
C14   O76   S    
C26   C27   S    
O43   Zn4   S    
C28   C29   S    
C3    C7    T    
C69   H47   S    
H68   O63   S    
C36   O28   A    
C139  O64   S    
C126  C130  S    
C113  H3    S    
O78   Zn11  S    
C114  H4    S    
C47   O39   A    
C105  O74   S    
C73   C87   S    
O37   Zn6   S    
C39   O40   A    
O12   Zn6   S    
H53   O49   S    
C22   C30   S    
O19   Zn9   S    
C124  C128  S    
C6    C152  T    
C119  C150  S    
C21   C27   S    
C62   H49   S    
C96   C101  S    
C27   H31   S    
C132  C149  S    
H62   O58   S    
C82   C100  S    
C102  C124  S    
C103  O72   S    
H86   O82   S    
C138  H10   S    
C24   C120  S    
C95   C100  S    
C63   C79   S    
H79   O74   S    
C26   F10   S    
C62   C69   S    
C124  H18   S    
C60   C61   T    
C17   C40   S    
C18   C39   S    
C88   O57   S    
C44   C56   S    
C12   O75   S    
O24   Zn13  S    
C9    F5    S    
C67   C91   S    
C50   C51   S    
C13   C131  S    
O67   Zn10  S    
C105  F31   S    
C139  H11   S    
C106  F32   S    
C28   F13   S    
C2    F18   S    
O38   Zn7   S    
C48   C49   S    
C135  H25   S    
C88   C90   S    
C28   H35   S    
C55   C131  S    
O14   Zn5   S    
C43   O36   A    
C134  O68   S    
C107  C121  S    
O22   Zn12  S    
C55   H39   S    
O56   Zn9   S    
C125  H19   S    
C51   C131  S    
C76   O7    A    
C145  O26   A    
C144  O67   A    
C86   C89   S    
C140  O65   S    
H76   O72   S    
C115  C145  S    
C106  H45   S    
C14   H28   S    
O39   Zn8   S    
O10   Zn2   S    
C43   O44   A    
O46   Zn9   S    
C41   O33   A    
C87   O17   A    
C67   C71   S    
C9    C22   S    
C70   H48   S    
C50   O82   S    
C110  F4    S    
C129  C134  S    
C64   C100  S    
O13   Zn4   S    
C22   C26   S    
C47   O48   A    
C74   C88   S    
C94   O19   A    
C66   C68   S    
C45   C60   S    
C54   C120  S    
C84   O53   S    
C91   O60   S    
C86   O55   S    
C140  H13   S    
C93   O9    A    
C20   C41   S    
C141  O45   A    
C51   O51   S    
C135  O69   S    
C67   H44   S    
C117  C143  S    
C137  O62   S    
C112  H2    S    
C124  H1    S    
C143  O24   A    
C54   H38   S    
C77   C83   S    
C37   O29   A    
C15   C16   S    
C54   H16   S    
C39   O31   A    
C40   O32   A    
C127  C132  S    
C48   O80   S    
C34   O27   A    
C8    C9    S    
C23   C33   S    
O16   Zn7   S    
C42   O43   A    
C73   C78   S    
C25   C32   S    
C15   C23   S    
O33   Zn14  S    
C70   C90   S    
O17   Zn8   S    
C24   H42   S    
H81   O76   S    
C96   O13   A    
C113  H7    S    
C137  H9    S    
C52   H36   S    
C114  H8    S    
C108  H67   S    
C130  C148  S    
C119  C137  S    
C64   C67   S    
C9    F15   S    
O9    Zn16  S    
C79   C81   S    
O48   Zn11  S    
C92   O61   S    
C125  H12   S    
C126  H20   S    
C65   C71   S    
O30   Zn4   S    
C12   C21   S    
C13   C24   S    
C66   H52   S    
C121  C138  S    
O45   Zn1   S    
O2    Zn6   S    
C72   C77   S    
O27   Zn16  S    
C63   C70   S    
C8    C21   S    
C6    C37   S    
C95   O20   A    
C8    F14   S    
C92   C101  S    
C12   C14   S    
C41   O42   A    
O20   Zn10  S    
C49   C109  S    
C71   C84   S    
C83   C85   S    
C114  C132  S    
C57   C131  S    
C108  C122  S    
C134  C138  S    
C34   O84   A    
O23   Zn3   S    
C10   C23   S    
C48   C98   S    
C95   O11   A    
C128  C133  S    
C37   O3    A    
O7    Zn14  S    
C71   C75   S    
C38   O4    A    
C94   C99   S    
C29   H33   S    
O34   Zn11  S    
C7    C38   S    
H59   O54   S    
C73   C86   S    
C110  H78   S    
C107  F2    S    
O12   Zn13  S    
C104  C126  S    
C2    C98   S    
H84   O80   S    
C103  C125  S    
H72   O68   S    
O32   Zn13  S    
C75   F22   S    
O3    Zn7   S    
