data_mof_unit_29714.cif
_audit_creation_date              2012-12-10T19:00:44-0500
_audit_creation_method            fapswitch 2.2
_symmetry_space_group_name_H-M    P1
_symmetry_Int_Tables_number       1
_space_group_crystal_system       triclinic
_cell_length_a                    15.084066
_cell_length_b                    10.837617
_cell_length_c                    9.543711
_cell_angle_alpha                 90.495506
_cell_angle_beta                  89.83961
_cell_angle_gamma                 90.319048
_cell_volume                      1560.07287102

loop_
_atom_site_label
_atom_site_type_symbol
_atom_type_description
_atom_site_fract_x
_atom_site_fract_y
_atom_site_fract_z
_atom_type_partial_charge
C1    C     C_R   0.497855 0.262401 0.499405 0.800682
C2    C     C_R   0.907017 0.521123 0.373656 0.062812
C3    C     C_R   0.953571 0.445939 0.746018 -0.178066
C4    C     C_R   0.045854 0.444547 0.744969 -0.152155
C5    C     C_R   0.092663 0.470608 0.621582 0.109669
C6    C     C_R   0.046628 0.496058 0.496276 0.057077
C7    C     C_R   0.093440 0.521931 0.370610 0.017215
C8    C     C_R   0.045788 0.547056 0.245766 -0.000198
C9    C     C_R   0.952861 0.546371 0.249678 -0.201476
C10   C     C_R   0.184887 0.471883 0.622038 -0.229301
C11   C     C_R   0.231775 0.498862 0.499455 -0.059463
C12   C     C_R   0.328635 0.499838 0.500085 0.810721
C13   C     C_R   0.186348 0.524368 0.375214 -0.250336
C14   C     C_R   0.481436 0.065281 0.623596 0.127066
C15   C     C_R   0.488218 0.129487 0.498059 -0.099538
C16   C     C_R   0.482499 0.063288 0.371095 -0.213733
C17   C     C_R   0.483105 0.934577 0.371858 -0.211721
C18   C     C_R   0.489509 0.871095 0.499570 -0.099536
C19   C     C_R   0.482132 0.938234 0.624565 0.136880
C20   C     C_3   0.537528 0.935898 0.753989 -0.488518
C21   C     C_3   0.536190 0.075717 0.753040 -0.451427
C22   C     C_R   0.575093 0.529835 0.073621 0.261067
C23   C     C_R   0.498479 0.737835 0.500295 0.804785
C24   C     C_R   0.428737 0.458258 0.074219 -0.088582
C25   C     C_R   0.428671 0.458472 0.925505 -0.079255
C26   C     C_R   0.575428 0.528302 0.926207 0.253032
C27   C     C_3   0.626294 0.646019 0.919886 -0.506206
C28   C     C_3   0.624297 0.649529 0.078730 -0.495773
C29   C     C_R   0.671380 0.499375 0.499910 0.812291
C30   C     C_R   0.814699 0.520280 0.375198 -0.230475
C31   C     C_R   0.768241 0.497913 0.499713 -0.068094
C32   C     C_R   0.814588 0.473851 0.623573 -0.246349
C33   C     C_R   0.907046 0.471937 0.623132 0.104460
C34   C     C_R   0.953624 0.496291 0.497571 0.065446
Cu1   Cu    Cu3+1 0.500000 0.499980 0.640670 0.942608
Cu2   Cu    Cu3+1 0.500000 0.500020 0.359330 0.941465
H1    H     H_    0.779127 0.537796 0.279302 0.143203
H2    H     H_    0.483054 0.885643 0.272434 0.162804
H3    H     H_    0.500754 0.896650 0.844482 0.198861
H4    H     H_    0.604708 0.897515 0.734494 0.199328
H5    H     H_    0.498457 0.116399 0.842208 0.198371
H6    H     H_    0.602422 0.117951 0.733610 0.201155
H7    H     H_    0.370541 0.425758 0.129258 0.139089
H8    H     H_    0.370429 0.426220 0.870313 0.136589
H9    H     H_    0.693891 0.632868 0.875724 0.197970
H10   H     H_    0.587499 0.720383 0.871654 0.215281
H11   H     H_    0.691140 0.640973 0.125392 0.189601
H12   H     H_    0.778850 0.455435 0.719974 0.147923
H13   H     H_    0.583680 0.726198 0.122212 0.211251
H14   H     H_    0.918619 0.426656 0.842837 0.145158
H15   H     H_    0.080742 0.423615 0.840876 0.148405
H16   H     H_    0.220122 0.451744 0.717989 0.140978
H17   H     H_    0.224655 0.548187 0.283663 0.141986
H18   H     H_    0.915729 0.564453 0.154914 0.174633
H19   H     H_    0.482290 0.110222 0.271359 0.166254
N1    N     N_R   0.500570 0.500930 0.147930 -0.185605
N2    N     N_R   0.500570 0.500890 0.852020 -0.184234
O1    O     O_R   0.500000 0.319640 0.618810 -0.581101
O2    O     O_R   0.500010 0.319680 0.381230 -0.584028
O3    O     O_R   0.370250 0.499950 0.618800 -0.590991
O4    O     O_R   0.370260 0.499990 0.381220 -0.594575
O5    O     O_R   0.499990 0.680320 0.618770 -0.575412
O6    O     O_R   0.500000 0.680360 0.381190 -0.584612
O7    O     O_R   0.629740 0.500010 0.618780 -0.587832
O8    O     O_R   0.629750 0.500050 0.381200 -0.584383
C35   C     C_2   0.090143 0.572573 0.109494 0.332780
H20   H     H_    0.156485 0.540133 0.087218 0.048278
O9    O     O_2   0.051898 0.629825 0.018268 -0.544201

loop_
_geom_bond_atom_site_label_1
_geom_bond_atom_site_label_2
_ccdc_geom_bond_type
C35   O9    D    
C11   C12   S    
C28   H11   S    
C8    C35   S    
C6    C7    A    
C1    C15   S    
C24   N1    A    
Cu2   O6    S    
C11   C13   A    
C28   H13   S    
C19   C20   S    
C2    C30   A    
Cu1   N2    S    
Cu2   O2    S    
C10   H16   S    
C32   C33   A    
C27   H9    S    
C23   O6    A    
C35   H20   S    
C16   H19   S    
C5    C10   A    
C29   C31   S    
C22   C28   S    
C1    O1    A    
C24   C25   A    
C12   O4    A    
C32   H12   S    
C2    C34   A    
C26   C27   S    
Cu1   O7    S    
C25   N2    A    
Cu1   O1    S    
C29   O8    A    
C5    C6    A    
C14   C21   S    
Cu2   N1    S    
C9    H18   S    
C3    H14   S    
C33   C34   A    
Cu1   O5    S    
C13   H17   S    
C17   H2    S    
C1    O2    A    
Cu2   O4    S    
C30   C31   A    
C20   H4    S    
C26   N2    A    
C21   H5    S    
C29   O7    A    
C7    C8    A    
C10   C11   A    
C3    C33   A    
C4    H15   S    
C18   C23   S    
C12   O3    A    
C6    C34   A    
C7    C13   A    
C27   H10   S    
C20   C21   S    
C25   H8    S    
C30   H1    S    
C17   C18   A    
C18   C19   A    
C22   C26   A    
C27   C28   S    
C24   H7    S    
C20   H3    S    
Cu2   O8    S    
Cu1   O3    S    
C22   N1    A    
C21   H6    S    
C23   O5    A    
C14   C15   A    
C2    C9    A    
C4    C5    A    
C14   C19   A    
C31   C32   A    
C3    C4    A    
C15   C16   A    
C16   C17   A    
C8    C9    A    
Cu1   Cu2   S    
