data_mof_unit_13214.cif
_audit_creation_date              2013-03-05T15:54:33-0500
_audit_creation_method            fapswitch 2.2
_symmetry_space_group_name_H-M    P1
_symmetry_Int_Tables_number       1
_space_group_crystal_system       triclinic
_cell_length_a                    18.915798
_cell_length_b                    18.50012
_cell_length_c                    12.364033
_cell_angle_alpha                 90.333133
_cell_angle_beta                  129.334382
_cell_angle_gamma                 89.639209
_cell_volume                      3346.47362175

loop_
_atom_site_label
_atom_site_type_symbol
_atom_site_description
_atom_site_fract_x
_atom_site_fract_y
_atom_site_fract_z
_atom_type_partial_charge
O1    O     O_R   0.608610 0.924520 0.551740 -0.479070
O2    O     O_R   0.608610 0.075480 0.551740 -0.503731
O3    O     O_R   0.108610 0.424520 0.551740 -0.479081
O4    O     O_R   0.108610 0.575480 0.551740 -0.503596
O5    O     O_R   0.564110 0.924510 0.685150 -0.615021
O6    O     O_R   0.564110 0.075490 0.685150 -0.616506
O7    O     O_R   0.064110 0.424510 0.685150 -0.615027
O8    O     O_R   0.064110 0.575490 0.685150 -0.616653
C1    C     C_R   0.611641 0.897116 0.651511 0.818338
C2    C     C_R   0.607123 0.105273 0.646338 0.813102
C3    C     C_R   0.111629 0.397109 0.651496 0.818338
C4    C     C_R   0.107143 0.605265 0.646359 0.813569
Cu1   Cu    Cu3+1 0.526340 0.000000 0.421010 0.986713
Cu2   Cu    Cu3+1 0.026340 0.500000 0.421010 0.986547
Cu3   Cu    Cu3+1 0.473640 0.000000 0.578990 0.906596
Cu4   Cu    Cu3+1 0.973640 0.500000 0.578990 0.906627
O9    O     O_R   0.435880 0.075470 0.314850 -0.596711
O10   O     O_R   0.435880 0.924530 0.314850 -0.592191
O11   O     O_R   0.935880 0.575470 0.314850 -0.597185
O12   O     O_R   0.935880 0.424530 0.314850 -0.592207
O13   O     O_R   0.391380 0.075460 0.448260 -0.599021
O14   O     O_R   0.391380 0.924540 0.448260 -0.597188
O15   O     O_R   0.891380 0.575460 0.448260 -0.599012
O16   O     O_R   0.891380 0.424540 0.448260 -0.597145
C5    C     C_R   0.384330 0.099146 0.343189 0.778382
C6    C     C_R   0.384363 0.900928 0.342702 0.782485
C7    C     C_R   0.884333 0.599148 0.343195 0.778655
C8    C     C_R   0.884354 0.400936 0.342691 0.782485
C9    C     C_R   0.662783 0.299195 0.135754 -0.206097
C10   C     C_R   0.655939 0.691751 0.116586 -0.214738
C11   C     C_R   0.162888 0.799053 0.135927 -0.205641
C12   C     C_R   0.155911 0.191711 0.116540 -0.214833
H1    H     H_    0.236195 0.863754 0.321385 0.147459
H2    H     H_    0.223963 0.122981 0.295934 0.146187
H3    H     H_    0.736078 0.363922 0.321177 0.147785
H4    H     H_    0.723969 0.622998 0.295947 0.146215
H5    H     H_    0.526594 0.224171 0.917649 0.134722
H6    H     H_    0.519627 0.759865 0.886431 0.140629
H7    H     H_    0.026662 0.724086 0.917744 0.134679
H8    H     H_    0.019602 0.259860 0.886430 0.140662
H9    H     H_    0.605286 0.292567 0.133943 0.135235
H10   H     H_    0.593304 0.692737 0.102669 0.136679
H11   H     H_    0.105437 0.792351 0.134205 0.135044
H12   H     H_    0.093280 0.192697 0.102635 0.136630
C13   C     C_R   0.311191 0.850633 0.244056 -0.046086
C14   C     C_R   0.311322 0.149795 0.245493 -0.039088
C15   C     C_R   0.811157 0.350666 0.244012 -0.046081
C16   C     C_R   0.811339 0.649813 0.245526 -0.039029
C17   C     C_R   0.715990 0.201086 0.689596 0.426999
C18   C     C_R   0.747906 0.821184 0.733330 0.456200
C19   C     C_R   0.216126 0.701001 0.689747 0.427539
C20   C     C_R   0.247816 0.321105 0.733195 0.456178
C21   C     C_R   0.282483 0.752020 0.779906 -0.238162
C22   C     C_R   0.321267 0.278760 0.838821 -0.260449
C23   C     C_R   0.782416 0.252040 0.779839 -0.237374
C24   C     C_R   0.821394 0.778898 0.839050 -0.260524
C25   C     C_R   0.291900 0.776788 0.894668 -0.269296
C26   C     C_R   0.321754 0.248586 0.941507 -0.263319
C27   C     C_R   0.791902 0.276751 0.894692 -0.269581
C28   C     C_R   0.821866 0.748719 0.941716 -0.263224
C29   C     C_R   0.729850 0.255205 0.916001 0.085310
C30   C     C_R   0.746228 0.756969 0.938725 0.088573
C31   C     C_R   0.229858 0.755223 0.915986 0.085285
C32   C     C_R   0.246160 0.256900 0.938610 0.088554
C33   C     C_R   0.657561 0.208078 0.817260 0.027058
C34   C     C_R   0.669501 0.797101 0.827975 0.019311
C35   C     C_R   0.157585 0.708082 0.817259 0.026699
C36   C     C_R   0.169452 0.297069 0.827915 0.019304
C37   C     C_R   0.234719 0.781679 0.028542 0.092484
C38   C     C_R   0.243040 0.224386 0.039396 0.095560
C39   C     C_R   0.734698 0.281685 0.028531 0.092483
C40   C     C_R   0.743089 0.724438 0.039481 0.095514
C41   C     C_R   0.660915 0.270006 0.029180 0.170867
C42   C     C_R   0.660978 0.726416 0.021049 0.170432
C43   C     C_R   0.160974 0.769938 0.029262 0.170789
C44   C     C_R   0.160941 0.226377 0.020993 0.170469
C45   C     C_R   0.584862 0.231280 0.921235 -0.245809
C46   C     C_R   0.583760 0.760403 0.904672 -0.242940
C47   C     C_R   0.084915 0.731225 0.921299 -0.245886
C48   C     C_R   0.083726 0.260384 0.904645 -0.242955
C49   C     C_R   0.582720 0.201301 0.816281 -0.175777
C50   C     C_R   0.587412 0.794136 0.808533 -0.173974
C51   C     C_R   0.082748 0.701295 0.816290 -0.175700
C52   C     C_R   0.087376 0.294132 0.808514 -0.173950
C53   C     C_R   0.310832 0.819632 0.140565 -0.261782
C54   C     C_R   0.318680 0.188461 0.156793 -0.262331
C55   C     C_R   0.810824 0.319622 0.140574 -0.261759
C56   C     C_R   0.818716 0.688495 0.156865 -0.262112
C57   C     C_R   0.237475 0.839505 0.242683 -0.195469
C58   C     C_R   0.230550 0.152796 0.227600 -0.212954
C59   C     C_R   0.737386 0.339623 0.242536 -0.195404
C60   C     C_R   0.730567 0.652821 0.227632 -0.213136
C61   C     C_R   0.660032 0.172340 0.717716 -0.224165
C62   C     C_R   0.675661 0.836708 0.736022 -0.216856
C63   C     C_R   0.160089 0.672316 0.717765 -0.223370
C64   C     C_R   0.175614 0.336674 0.735962 -0.216906
H13   H     H_    0.371057 0.825765 0.149719 0.150404
H14   H     H_    0.384266 0.188180 0.180949 0.144015
H15   H     H_    0.871075 0.325706 0.149785 0.150368
H16   H     H_    0.884304 0.688202 0.181032 0.143893
H17   H     H_    0.344199 0.816774 0.958781 0.152535
H18   H     H_    0.380724 0.216026 0.017282 0.149542
H19   H     H_    0.844235 0.316709 0.958847 0.152524
H20   H     H_    0.880880 0.716220 0.017572 0.149491
H21   H     H_    0.326858 0.772806 0.760334 0.153510
H22   H     H_    0.379171 0.269626 0.842162 0.139032
H23   H     H_    0.826751 0.272856 0.760212 0.153785
H24   H     H_    0.879350 0.769823 0.842500 0.138989
H25   H     H_    0.519069 0.176665 0.730553 0.176821
H26   H     H_    0.523498 0.814665 0.715421 0.174009
H27   H     H_    0.019092 0.676669 0.730553 0.176829
H28   H     H_    0.023467 0.314687 0.715433 0.174087
C65   C     C_R   0.686287 0.000728 0.288902 -0.419812
C66   C     C_R   0.186287 0.500720 0.288903 -0.420278
H29   H     H_    0.758518 0.998112 0.342433 0.162797
H30   H     H_    0.258514 0.498090 0.342415 0.162832
N1    N     N_R   0.566260 0.000000 0.302220 -0.224082
N2    N     N_R   0.066260 0.500000 0.302220 -0.224126
C67   C     C_R   0.342865 0.999627 0.627019 0.064263
C68   C     C_R   0.842865 0.499628 0.627019 0.064438
C69   C     C_R   0.308354 0.999583 0.698582 -0.271686
C70   C     C_R   0.808354 0.499589 0.698582 -0.271609
C71   C     C_R   0.367689 0.000043 0.844456 -0.177921
C72   C     C_R   0.867689 0.500052 0.844457 -0.177944
C73   C     C_R   0.463171 0.000511 0.921605 0.007412
C74   C     C_R   0.963171 0.500519 0.921605 0.007346
C75   C     C_R   0.495210 0.000433 0.843202 0.229305
C76   C     C_R   0.995210 0.500436 0.843202 0.229290
C77   C     C_R   0.527685 0.000833 0.072708 -0.069339
C78   C     C_R   0.027685 0.500842 0.072709 -0.069169
C79   C     C_R   0.622785 0.001085 0.141769 0.100657
C80   C     C_R   0.122785 0.501086 0.141769 0.100597
C81   C     C_R   0.653261 0.000922 0.063070 0.146308
C82   C     C_R   0.153260 0.500924 0.063069 0.146303
C83   C     C_R   0.589833 0.000658 0.917460 -0.175357
C84   C     C_R   0.089833 0.500661 0.917460 -0.175368
C85   C     C_R   0.502072 0.000259 0.159167 -0.099361
C86   C     C_R   0.002073 0.500274 0.159168 -0.099175
C87   C     C_R   0.657247 0.001537 0.368818 0.684836
C88   C     C_R   0.157250 0.501528 0.368826 0.685328
N3    N     N_R   0.434410 0.000000 0.697680 -0.200605
N4    N     N_R   0.934410 0.500000 0.697680 -0.200616
H31   H     H_    0.431426 0.999792 0.115006 0.152044
H32   H     H_    0.931426 0.499815 0.115007 0.151989
H33   H     H_    0.296128 0.999344 0.513909 0.119069
H34   H     H_    0.796128 0.499344 0.513910 0.119050
H35   H     H_    0.336947 0.000019 0.893866 0.137027
H36   H     H_    0.836947 0.500031 0.893867 0.137028
H37   H     H_    0.235187 0.999213 0.640653 0.141429
H38   H     H_    0.735187 0.499219 0.640654 0.141409
H39   H     H_    0.617660 0.000455 0.865122 0.215976
H40   H     H_    0.117659 0.500455 0.865121 0.215968
C89   C     C_3   0.753839 0.001061 0.131750 -0.874883
H41   H     H_    0.765481 0.001641 0.054255 0.227300
H42   H     H_    0.786997 0.049949 0.198358 0.235379
H43   H     H_    0.787330 0.951686 0.196343 0.233987
C90   C     C_3   0.253839 0.501063 0.131747 -0.874918
H44   H     H_    0.286998 0.549949 0.198364 0.235372
H45   H     H_    0.287329 0.451686 0.196329 0.233980
H46   H     H_    0.265479 0.501651 0.054251 0.227289
O17   O     O_3   0.704448 0.181093 0.571496 -0.595773
C91   C     C_3   0.640516 0.228797 0.461948 0.081857
H47   H     H_    0.674435 0.280784 0.474779 0.140382
H48   H     H_    0.580646 0.239942 0.457646 0.124708
C92   C     C_3   0.603632 0.195192 0.322689 -0.801696
H49   H     H_    0.568116 0.144027 0.307009 0.265417
H50   H     H_    0.553335 0.232432 0.236546 0.180841
H51   H     H_    0.660198 0.184232 0.319746 0.245404
O18   O     O_3   0.748125 0.849534 0.630060 -0.535213
C93   C     C_3   0.742944 0.792349 0.548674 0.076157
H52   H     H_    0.691354 0.751004 0.522317 0.122112
H53   H     H_    0.810858 0.765874 0.604949 0.132853
C94   C     C_3   0.714668 0.822109 0.411982 -0.736392
H54   H     H_    0.765112 0.862544 0.433064 0.249088
H55   H     H_    0.711976 0.777584 0.349198 0.197930
H56   H     H_    0.645910 0.847399 0.351125 0.246556
O19   O     O_3   0.204730 0.680830 0.571837 -0.595704
C95   C     C_3   0.141747 0.728999 0.462448 0.080853
H57   H     H_    0.176939 0.780193 0.474921 0.140723
H58   H     H_    0.082384 0.741780 0.458739 0.124484
C96   C     C_3   0.103493 0.694764 0.322983 -0.800793
H59   H     H_    0.067053 0.644249 0.307966 0.266064
H60   H     H_    0.053693 0.732231 0.236904 0.180639
H61   H     H_    0.159455 0.682474 0.319155 0.244905
O20   O     O_3   0.248015 0.349432 0.629894 -0.535299
C97   C     C_3   0.242521 0.292234 0.548258 0.076121
H62   H     H_    0.190814 0.251012 0.521916 0.122083
H63   H     H_    0.310329 0.265603 0.604323 0.132870
C98   C     C_3   0.214194 0.322022 0.411554 -0.736368
H64   H     H_    0.264738 0.362339 0.432599 0.249040
H65   H     H_    0.211256 0.277484 0.348573 0.197857
H66   H     H_    0.145530 0.347462 0.350911 0.246571
O21   O     O_3   0.717828 0.994620 0.513637 -0.517372
C99   C     C_3   0.796832 0.038205 0.580771 0.120548
H67   H     H_    0.806076 0.067209 0.667748 0.199847
H68   H     H_    0.792466 0.080721 0.513202 0.131194
C100  C     C_3   0.881379 0.991006 0.646143 -0.846201
H69   H     H_    0.877357 0.960639 0.564884 0.230707
H70   H     H_    0.943313 0.025515 0.704680 0.208563
H71   H     H_    0.887904 0.951916 0.719898 0.282153
O22   O     O_3   0.217818 0.494590 0.513647 -0.517317
C101  C     C_3   0.296963 0.538009 0.580840 0.120655
H72   H     H_    0.306353 0.566997 0.667949 0.199840
H73   H     H_    0.292687 0.580536 0.513370 0.130955
C102  C     C_3   0.381350 0.490638 0.645992 -0.846121
H74   H     H_    0.377168 0.460242 0.564615 0.230732
H75   H     H_    0.443391 0.525026 0.704518 0.208496
H76   H     H_    0.387818 0.451567 0.719722 0.282185

loop_
_geom_bond_atom_site_label_1
_geom_bond_atom_site_label_2
_geom_bond_distance
_ccdc_geom_bond_type
C7    C16   1.458211 S    
C3    C64   1.483151 S    
C99   H68   1.114794 S    
C8    C15   1.460155 S    
C68   H34   1.081683 S    
C92   H49   1.107099 S    
C23   C27   1.388587 A    
C100  H71   1.110696 S    
O22   C101  1.416822 S    
C78   C80   1.420567 A    
O10   C6    1.300535 A    
C16   C60   1.398912 A    
C48   C52   1.385806 A    
C14   C54   1.392001 A    
O17   C91   1.414174 S    
H3    C59   1.083219 S    
C102  H74   1.108096 S    
O7    C3    1.305371 A    
C72   H36   1.077838 S    
C52   H28   1.079861 S    
C101  H73   1.114771 S    
Cu1   O10   1.939525 S    
C81   C89   1.514166 S    
C70   H38   1.082562 S    
C75   C83   1.401224 A    
C76   C84   1.401219 A    
C75   N3    1.391681 A    
C10   C42   1.402851 A    
C95   H58   1.118226 S    
C71   C73   1.410004 A    
C99   C100  1.524919 S    
C9    C41   1.400747 A    
C93   H52   1.116651 S    
C74   C78   1.445472 A    
C28   C30   1.414909 A    
O18   C93   1.416084 S    
C50   H26   1.079864 S    
C98   H65   1.107534 S    
O2    Cu1   1.948505 S    
C24   H24   1.081826 S    
C6    C13   1.460168 S    
C84   H40   1.061864 S    
O6    Cu3   1.939877 S    
Cu3   N3    2.021054 S    
C33   C49   1.414388 A    
Cu3   O14   1.948188 S    
C12   C58   1.392212 A    
C31   C37   1.419551 A    
C20   C22   1.395560 A    
Cu2   N2    2.033052 S    
C101  C102  1.524955 S    
C76   N4    1.391681 A    
C74   C76   1.432383 A    
C44   C48   1.390646 A    
C16   C56   1.391974 A    
C4    C63   1.484327 S    
C20   C64   1.415494 A    
C26   H18   1.076184 S    
C66   C88   1.402215 A    
O4    C4    1.306323 A    
O11   C7    1.300558 A    
C17   O17   1.381024 S    
C53   H13   1.077717 S    
C34   C62   1.421876 A    
H4    C60   1.083217 S    
O8    Cu4   1.939877 S    
C33   C61   1.420275 A    
C99   H67   1.109537 S    
C85   H31   1.076611 S    
Cu4   O16   1.948188 S    
C94   H54   1.108793 S    
C35   C63   1.420331 A    
C65   C87   1.402166 A    
N1    C87   1.358229 A    
C15   C59   1.400200 A    
N2    C88   1.358248 A    
C67   H33   1.081683 S    
C40   C56   1.400808 A    
C77   C85   1.426285 A    
C68   C70   1.393308 A    
C25   C31   1.416026 A    
C55   H15   1.077729 S    
C67   C69   1.393309 A    
C26   C32   1.414904 A    
C31   C35   1.416590 A    
C27   C29   1.416039 A    
O5    Cu3   1.935345 S    
C101  H72   1.109547 S    
C22   H22   1.081829 S    
C36   C52   1.414095 A    
Cu2   O12   1.939525 S    
O1    C1    1.303554 A    
C40   C42   1.419973 A    
C96   H60   1.109026 S    
C39   C41   1.418673 A    
C30   C34   1.418295 A    
C18   C62   1.415519 A    
C82   C84   1.393706 A    
O12   C8    1.300527 A    
C2    C61   1.484298 S    
C11   C57   1.390643 A    
C96   H59   1.107620 S    
H5    C45   1.083462 S    
C18   C24   1.395591 A    
C24   C28   1.384523 A    
C90   H44   1.110539 S    
C23   H23   1.083351 S    
C66   H30   1.077186 S    
C19   C21   1.392103 A    
H7    C47   1.083471 S    
C90   H45   1.110554 S    
C98   H66   1.110191 S    
Cu4   N4    2.021054 S    
C32   C38   1.421439 A    
H2    C58   1.083216 S    
O5    C1    1.305383 A    
C19   O19   1.381053 S    
H1    C57   1.083221 S    
C34   C50   1.414095 A    
C91   C92   1.519227 S    
C46   C50   1.385796 A    
C11   C43   1.400773 A    
C45   C49   1.385060 A    
O8    C4    1.303720 A    
C17   C23   1.392032 A    
H8    C48   1.084397 S    
C12   H12   1.083969 S    
C30   C40   1.421457 A    
C68   N4    1.357995 A    
C36   C64   1.421875 A    
C35   C51   1.414407 A    
C89   H43   1.110554 S    
O3    Cu2   1.947930 S    
C56   H16   1.076330 S    
C94   H55   1.107550 S    
C11   H11   1.081273 S    
C38   C54   1.400812 A    
C39   C55   1.399215 A    
C80   C82   1.410733 A    
O7    Cu4   1.935345 S    
C49   H25   1.079042 S    
O19   C95   1.414463 S    
Cu4   O15   1.947613 S    
O15   C7    1.297567 A    
Cu1   Cu3   2.697660 S    
C73   C77   1.445468 A    
C38   C44   1.419959 A    
C67   N3    1.357995 A    
Cu2   Cu4   2.697660 S    
C89   H42   1.110539 S    
C20   O20   1.385573 S    
C97   H63   1.112351 S    
O2    C2    1.306369 A    
C32   C36   1.418296 A    
C9    C59   1.390631 A    
C37   C53   1.399198 A    
C72   C74   1.410003 A    
C91   H47   1.113013 S    
C22   C26   1.384542 A    
C96   H61   1.111232 S    
C98   H64   1.108808 S    
O13   C5    1.297590 A    
C21   C25   1.388557 A    
C13   C57   1.400208 A    
C65   C79   1.407901 A    
C9    H9    1.081287 S    
C66   C80   1.407903 A    
Cu2   O11   1.934992 S    
N1    C85   1.371207 A    
O16   C8    1.298559 A    
C71   H35   1.077837 S    
C79   C81   1.410724 A    
C12   C44   1.402842 A    
Cu1   N1    2.033052 S    
C14   C58   1.398913 A    
C90   H46   1.110979 S    
C92   H51   1.110786 S    
C25   H17   1.078219 S    
H6    C46   1.084396 S    
Cu1   O9    1.934992 S    
C13   C53   1.395263 A    
C27   H19   1.078222 S    
C97   C98   1.518768 S    
C100  H70   1.110435 S    
C89   H41   1.110981 S    
O9    C5    1.300542 A    
C91   H48   1.117453 S    
C28   H20   1.076167 S    
C88   O22   1.391211 S    
C47   C51   1.385071 A    
C29   C39   1.419536 A    
O20   C97   1.416084 S    
C65   H29   1.077206 S    
C43   C47   1.389963 A    
C83   H39   1.061867 S    
C1    C62   1.483142 S    
C94   H56   1.110183 S    
C69   H37   1.082562 S    
C37   C43   1.418681 A    
C18   O18   1.385621 S    
C51   H27   1.079037 S    
C29   C33   1.416598 A    
O4    Cu2   1.948505 S    
C100  H69   1.108095 S    
C54   H14   1.076368 S    
C69   C71   1.395168 A    
C95   C96   1.519680 S    
O3    C3    1.303572 A    
O6    C2    1.303659 A    
O14   C6    1.298557 A    
C21   H21   1.083354 S    
Cu3   O13   1.947613 S    
C82   C90   1.514169 S    
O1    Cu1   1.947930 S    
C92   H50   1.109004 S    
O21   C99   1.416803 S    
C42   C46   1.390638 A    
C19   C63   1.414171 A    
C73   C75   1.432380 A    
C81   C83   1.393708 A    
C41   C45   1.389965 A    
C10   H10   1.083970 S    
C86   H32   1.076611 S    
C102  H76   1.110690 S    
C93   H53   1.112327 S    
C17   C61   1.414174 A    
C97   H62   1.116673 S    
N2    C86   1.371199 A    
C102  H75   1.110446 S    
C70   C72   1.395169 A    
C5    C14   1.458220 S    
C93   C94   1.518780 S    
C87   O21   1.391147 S    
C15   C55   1.395270 A    
C95   H57   1.113547 S    
C77   C79   1.420577 A    
C10   C60   1.392206 A    
C78   C86   1.426278 A    
