data_mof_unit_17813.cif
_audit_creation_date              2013-03-05T16:00:48-0500
_audit_creation_method            fapswitch 2.2
_symmetry_space_group_name_H-M    P1
_symmetry_Int_Tables_number       1
_space_group_crystal_system       triclinic
_cell_length_a                    14.707076
_cell_length_b                    14.744897
_cell_length_c                    15.87512
_cell_angle_alpha                 76.870396
_cell_angle_beta                  102.854451
_cell_angle_gamma                 114.940395
_cell_volume                      3008.50595951

loop_
_atom_site_label
_atom_site_type_symbol
_atom_site_description
_atom_site_fract_x
_atom_site_fract_y
_atom_site_fract_z
_atom_type_partial_charge
O1    O     O_R   0.977910 0.338120 0.529720 -0.596428
O2    O     O_R   0.839850 0.379180 0.491640 -0.542725
C1    C     C_R   0.879970 0.312404 0.512919 0.818399
O3    O     O_R   0.069060 0.479460 0.639610 -0.581103
O4    O     O_R   0.931000 0.520530 0.601530 -0.594389
C2    C     C_R   0.999730 0.499951 0.659688 0.810518
Cu1   Cu    Cu3+1 0.081750 0.475690 0.522550 0.943090
Cu2   Cu    Cu3+1 0.918250 0.524310 0.477450 1.030255
O5    O     O_R   0.160150 0.620820 0.508360 -0.600793
O6    O     O_R   0.022090 0.661880 0.470280 -0.540420
O7    O     O_R   0.069000 0.479470 0.398470 -0.590930
O8    O     O_R   0.930940 0.520540 0.360390 -0.506710
C3    C     C_R   0.119798 0.687655 0.486046 0.803492
C4    C     C_R   0.000211 0.499964 0.340318 0.848532
C5    C     C_3   0.043813 0.424424 0.975859 -0.371126
C6    C     C_3   0.890204 0.468333 0.935576 -0.380036
C7    C     C_3   0.890646 0.468255 0.033314 -0.356780
H1    H     H_    0.998654 0.346713 0.104017 0.173424
H2    H     H_    0.997993 0.346811 0.959400 0.166756
H3    H     H_    0.856630 0.521566 0.894242 0.167646
H4    H     H_    0.841615 0.391518 0.918376 0.167920
H5    H     H_    0.842258 0.391402 0.062999 0.179512
H6    H     H_    0.857269 0.521446 0.038865 0.176132
C8    C     C_1   0.000612 0.499785 0.250720 -0.132133
C9    C     C_3   0.999479 0.499893 0.917151 0.315721
C10   C     C_3   0.044261 0.424355 0.073595 -0.371100
C11   C     C_3   0.000227 0.499767 0.082865 0.298816
C12   C     C_3   0.065320 0.606767 0.039720 -0.367860
C13   C     C_3   0.064873 0.606844 0.941986 -0.373296
C14   C     C_1   0.000583 0.499729 0.175136 -0.090871
C15   C     C_1   0.999164 0.499966 0.824880 -0.111096
C16   C     C_1   0.999222 0.499997 0.749294 -0.169652
H7    H     H_    0.143956 0.631279 0.929456 0.170043
H8    H     H_    0.034445 0.662576 0.900777 0.165877
H9    H     H_    0.144614 0.631156 0.074073 0.175151
H10   H     H_    0.122515 0.445551 0.963945 0.169747
H11   H     H_    0.123175 0.445467 0.108559 0.172550
H12   H     H_    0.035111 0.662468 0.045392 0.173858
C17   C     C_R   0.811540 0.205410 0.528367 -0.149996
C18   C     C_R   0.187668 0.795130 0.480811 -0.058978
C19   C     C_R   0.781261 0.037287 0.609400 -0.189251
C20   C     C_R   0.847297 0.136525 0.586457 -0.238734
C21   C     C_R   0.708115 0.173087 0.491836 0.251280
C22   C     C_R   0.638848 0.078774 0.527774 -0.003550
C23   C     C_R   0.677163 0.008024 0.581050 0.127275
C24   C     C_R   0.532477 0.052300 0.511126 0.080009
C25   C     C_R   0.466044 0.949640 0.529709 0.070785
C26   C     C_R   0.507459 0.879017 0.577616 -0.203488
C27   C     C_R   0.611038 0.908879 0.605278 -0.188065
C28   C     C_R   0.491064 0.126686 0.483584 -0.147223
C29   C     C_R   0.387088 0.100311 0.464657 -0.223145
C30   C     C_R   0.321189 0.998805 0.471602 0.153977
C31   C     C_R   0.360138 0.922306 0.503120 0.089977
C32   C     C_R   0.216514 0.972846 0.447987 -0.190279
C33   C     C_R   0.150031 0.871561 0.453092 -0.165692
C34   C     C_R   0.292022 0.820992 0.504967 -0.242605
H13   H     H_    0.639626 0.853688 0.645127 0.141160
H14   H     H_    0.319209 0.760869 0.522504 0.154651
H15   H     H_    0.069525 0.853177 0.434397 0.185732
H16   H     H_    0.358249 0.159703 0.443723 0.156593
H17   H     H_    0.811126 0.984408 0.651972 0.141981
H18   H     H_    0.926546 0.159332 0.614161 0.165606
H19   H     H_    0.461110 0.801411 0.599630 0.140294
H20   H     H_    0.538226 0.206175 0.481038 0.186161
H21   H     H_    0.186155 0.030967 0.425094 0.143336
N1    N     N_R   0.795410 0.560790 0.443550 -0.221360
N2    N     N_R   0.204590 0.439170 0.556520 -0.180990
C35   C     C_R   0.715107 0.667548 0.354834 -0.305034
C36   C     C_R   0.796712 0.638321 0.377868 0.780654
C37   C     C_R   0.714430 0.508946 0.487814 -0.008966
C38   C     C_R   0.628019 0.534298 0.466876 -0.094838
C39   C     C_R   0.630740 0.616505 0.399266 -0.064856
C40   C     C_R   0.540327 0.482248 0.510699 0.104068
C41   C     C_R   0.458001 0.515368 0.487243 -0.021041
C42   C     C_R   0.465637 0.598573 0.420291 -0.305693
C43   C     C_R   0.549760 0.647539 0.376906 0.651277
C44   C     C_R   0.531895 0.397986 0.576778 -0.202857
C45   C     C_R   0.447376 0.349008 0.619754 -0.207637
C46   C     C_R   0.367374 0.381105 0.598399 0.165762
C47   C     C_R   0.370729 0.464053 0.531605 0.010125
C48   C     C_R   0.283232 0.330012 0.643068 -0.319532
C49   C     C_R   0.202317 0.360436 0.621016 0.082320
C50   C     C_R   0.285377 0.490920 0.512115 0.010013
H22   H     H_    0.280144 0.551469 0.461387 0.130140
H23   H     H_    0.136809 0.320434 0.654776 0.123352
H24   H     H_    0.444498 0.284839 0.670218 0.143142
H25   H     H_    0.718442 0.730209 0.302676 0.220638
H26   H     H_    0.720149 0.449417 0.539546 0.143557
H27   H     H_    0.407391 0.628201 0.399395 0.163489
H28   H     H_    0.589338 0.367214 0.596812 0.128201
H29   H     H_    0.279736 0.266449 0.694327 0.140720
N3    N     N_R   0.678666 0.220436 0.406316 0.112093
O9    O     O_R   0.642950 0.168223 0.341876 -0.329143
O10   O     O_R   0.673833 0.308649 0.394385 -0.365331
F1    F     F_    0.552006 0.726792 0.312694 -0.658843
F2    F     F_    0.878028 0.688355 0.334666 -0.661231

loop_
_geom_bond_atom_site_label_1
_geom_bond_atom_site_label_2
_geom_bond_distance
_ccdc_geom_bond_type
C9    C15   1.463548 S    
C2    C16   1.424356 S    
Cu2   N1    2.024411 S    
C6    H4    1.113164 S    
C33   H15   1.083036 S    
C28   H20   1.077868 S    
C40   C41   1.434768 A    
H1    C10   1.113158 S    
C19   H17   1.083939 S    
C39   C43   1.396976 A    
C36   F2    1.354943 S    
C37   H26   1.075189 S    
C48   C49   1.390487 A    
Cu1   Cu2   2.695046 S    
C32   H21   1.083915 S    
C44   C45   1.388734 A    
C22   C23   1.415632 A    
Cu1   O7    1.926891 S    
C10   C11   1.549688 S    
C7    H6    1.113182 S    
C12   C13   1.549833 S    
O3    Cu1   1.923889 S    
C43   F1    1.359052 S    
O4    C2    1.297074 A    
O7    C4    1.297140 A    
C5    C9    1.549972 S    
N1    C36   1.357703 A    
C13   H7    1.113158 S    
C27   H13   1.084228 S    
C19   C20   1.390600 A    
C4    C8    1.424312 S    
O5    C3    1.299977 A    
C3    C18   1.468875 S    
C24   C25   1.418105 A    
C50   H22   1.074830 S    
C12   H9    1.113169 S    
C22   C24   1.420381 A    
C6    C7    1.549921 S    
C18   C34   1.399611 A    
C37   C38   1.421807 A    
C12   H12   1.113175 S    
C20   H18   1.083287 S    
Cu2   O8    1.923891 S    
C25   C31   1.421956 A    
C45   H24   1.084325 S    
C1    C17   1.468639 S    
C41   C47   1.434223 A    
C11   C14   1.463531 S    
C47   C50   1.420999 A    
C30   C32   1.403011 A    
C17   C20   1.402775 A    
C9    C13   1.549817 S    
C44   H28   1.076522 S    
C41   C42   1.411366 A    
C29   C30   1.393130 A    
C7    C11   1.549985 S    
C25   C26   1.415194 A    
O3    C2    1.296416 A    
C38   C40   1.434643 A    
C45   C46   1.393749 A    
C35   C36   1.388946 A    
C5    C10   1.549880 S    
C17   C21   1.413808 A    
C13   H8    1.113181 S    
C35   C39   1.401513 A    
O1    C1    1.305407 A    
C5    H2    1.113162 S    
C42   C43   1.387888 A    
C15   C16   1.200016 T    
C23   C27   1.393839 A    
C6    H3    1.113187 S    
C18   C33   1.400887 A    
N3    O10   1.301068 A    
C28   C29   1.388173 A    
N2    C50   1.361829 A    
C26   C27   1.389895 A    
O8    C4    1.296347 A    
C21   C22   1.414406 A    
C5    H10   1.113161 S    
C30   C31   1.418373 A    
C46   C48   1.401179 A    
C31   C34   1.402550 A    
C6    C9    1.549684 S    
Cu1   O5    1.942986 S    
C32   C33   1.393459 A    
C19   C23   1.398989 A    
O1    Cu1   1.954426 S    
O2    Cu2   1.942986 S    
C7    H5    1.113170 S    
C26   H19   1.078283 S    
O6    C3    1.301786 A    
O4    Cu2   1.926891 S    
C10   H11   1.113171 S    
C49   H23   1.081761 S    
C24   C28   1.411436 A    
C21   N3    1.442548 S    
O2    C1    1.296876 A    
C38   C39   1.417755 A    
N1    C37   1.362756 A    
N3    O9    1.301079 A    
C34   H14   1.077283 S    
C8    C14   1.199998 T    
C42   H27   1.076118 S    
Cu1   N2    2.024764 S    
C46   C47   1.416289 A    
C48   H29   1.083844 S    
N2    C49   1.356349 A    
Cu2   O6    1.954426 S    
C11   C12   1.549775 S    
C35   H25   1.083491 S    
C40   C44   1.412538 A    
C29   H16   1.084229 S    
