data_mof_unit_21294.cif
_audit_creation_date              2012-12-10T19:54:26-0500
_audit_creation_method            fapswitch 2.2
_symmetry_space_group_name_H-M    P1
_symmetry_Int_Tables_number       1
_space_group_crystal_system       triclinic
_cell_length_a                    15.706076
_cell_length_b                    14.962858
_cell_length_c                    14.140743
_cell_angle_alpha                 89.928811
_cell_angle_beta                  90.463893
_cell_angle_gamma                 90.090807
_cell_volume                      3323.0690824

loop_
_atom_site_label
_atom_site_type_symbol
_atom_type_description
_atom_site_fract_x
_atom_site_fract_y
_atom_site_fract_z
_atom_type_partial_charge
C1    C     C_R   0.500920 0.328297 0.500053 1.102387
C2    C     C_R   0.456883 0.908265 0.574085 0.366754
C3    C     C_R   0.483757 0.050197 0.491454 -0.123091
C4    C     C_R   0.479117 0.953704 0.490940 -0.133473
C5    C     C_R   0.465353 0.573658 0.104965 0.370339
C6    C     C_R   0.575938 0.482911 0.895725 0.374903
C7    C     C_R   0.464676 0.570122 0.204807 -0.081059
C8    C     C_R   0.573304 0.481467 0.796003 -0.094777
C9    C     C_R   0.535758 0.431089 0.204220 -0.043540
C10   C     C_R   0.427211 0.518726 0.795408 -0.039861
C11   C     C_R   0.536025 0.430376 0.104938 -0.283480
C12   C     C_R   0.498844 0.672641 0.499712 0.971364
C13   C     C_R   0.426309 0.519622 0.894732 -0.277637
C14   C     C_R   0.500301 0.501787 0.053404 0.042754
C15   C     C_R   0.500977 0.501425 0.946843 0.047704
C16   C     C_R   0.337798 0.499464 0.499655 0.918578
C17   C     C_R   0.662158 0.500322 0.500347 0.910323
C18   C     C_3   0.970137 0.415068 0.496477 0.538829
C19   C     C_3   0.029561 0.580763 0.502775 0.534568
C20   C     C_3   0.026153 0.457052 0.418605 -0.400008
C21   C     C_3   0.973602 0.538782 0.580651 -0.399876
C22   C     C_1   0.249007 0.497355 0.498924 -0.173650
C23   C     C_R   0.418817 0.192791 0.522874 0.246467
C24   C     C_1   0.750882 0.500797 0.501024 -0.178181
C25   C     C_3   0.027405 0.452320 0.575681 0.100661
C26   C     C_3   0.972237 0.543489 0.423585 0.098914
C27   C     C_3   0.082952 0.495318 0.498773 -0.008493
C28   C     C_3   0.916802 0.500407 0.500576 -0.009522
C29   C     C_1   0.173769 0.495746 0.498601 0.001742
C30   C     C_1   0.826079 0.500925 0.501110 0.002714
C31   C     C_R   0.410618 0.100404 0.511491 0.373588
C32   C     C_R   0.504359 0.907383 0.409788 0.390999
C33   C     C_3   0.987859 0.265657 0.461141 0.089390
C34   C     C_R   0.517569 0.815789 0.415379 0.271906
C35   C     C_3   0.954122 0.172753 0.483584 -0.828037
C36   C     C_3   0.012371 0.730645 0.536185 0.093302
C37   C     C_3   0.049979 0.822906 0.518775 -0.837965
C38   C     C_3   0.936028 0.593894 0.338199 -0.399718
C39   C     C_3   0.006575 0.630144 0.275371 -0.816931
C40   C     C_3   0.062018 0.400761 0.661026 -0.401798
C41   C     C_3   0.990527 0.369722 0.725644 -0.808958
C42   C     C_3   0.277686 0.075032 0.450253 0.116767
C43   C     C_3   0.202976 0.010431 0.455084 -0.868047
C44   C     C_3   0.457344 0.944839 0.262584 0.130277
C45   C     C_R   0.496156 0.233389 0.499662 -0.356017
C46   C     C_3   0.477197 0.000139 0.175218 -0.853730
C47   C     C_3   0.328748 0.225397 0.645295 0.182242
C48   C     C_3   0.301002 0.310881 0.694150 -0.869952
C49   C     C_3   0.640055 0.768907 0.346945 0.175510
C50   C     C_3   0.675876 0.711154 0.268266 -0.860823
C51   C     C_3   0.661484 0.221762 0.356785 0.166965
C52   C     C_3   0.729590 0.290033 0.331786 -0.845552
C53   C     C_3   0.341017 0.757160 0.645736 0.187582
C54   C     C_3   0.303334 0.744310 0.743553 -0.812711
C55   C     C_3   0.681833 0.027343 0.539011 0.119358
C56   C     C_R   0.492917 0.769190 0.497675 -0.418822
C57   C     C_3   0.763604 0.978271 0.515205 -0.845763
C58   C     C_3   0.493108 0.969417 0.716478 0.133303
C59   C     C_3   0.455925 0.996778 0.811062 -0.820564
C60   C     C_3   0.485322 0.718816 0.062935 0.100308
C61   C     C_3   0.449652 0.795002 0.003402 -0.831786
C62   C     C_3   0.697547 0.542682 0.955844 0.104311
C63   C     C_3   0.775907 0.523081 0.016215 -0.818327
C64   C     C_R   0.567630 0.184331 0.472995 0.249745
C65   C     C_R   0.458589 0.815396 0.575275 0.276053
C66   C     C_R   0.563057 0.091428 0.475452 0.362229
H1    H     H_    0.049947 0.424307 0.353594 0.158298
H2    H     H_    0.992264 0.272543 0.383003 0.141175
H3    H     H_    0.890187 0.163414 0.450949 0.260223
H4    H     H_    0.998007 0.121420 0.455153 0.203752
H5    H     H_    0.949269 0.163876 0.561351 0.257201
H6    H     H_    0.003123 0.722373 0.613610 0.140113
H7    H     H_    0.949547 0.726992 0.499334 0.131702
H8    H     H_    0.059643 0.833415 0.441828 0.255806
H9    H     H_    0.005993 0.875005 0.545404 0.208166
H10   H     H_    0.112168 0.829404 0.556160 0.257169
H11   H     H_    0.046396 0.679089 0.314785 0.285753
H12   H     H_    0.949729 0.571499 0.645639 0.154599
H13   H     H_    0.047422 0.574757 0.249976 0.257576
H14   H     H_    0.977900 0.664348 0.213128 0.234067
H15   H     H_    0.895258 0.547608 0.296300 0.211735
H16   H     H_    0.895712 0.649970 0.362806 0.188475
H17   H     H_    0.954163 0.427943 0.752327 0.253172
H18   H     H_    0.946593 0.324066 0.687153 0.289077
H19   H     H_    0.018084 0.333215 0.787025 0.234732
H20   H     H_    0.098113 0.341747 0.636213 0.196954
H21   H     H_    0.106151 0.444703 0.701531 0.208144
H22   H     H_    0.309386 0.065809 0.380769 0.114898
H23   H     H_    0.563872 0.376107 0.242761 0.143609
H24   H     H_    0.252360 0.144231 0.454425 0.176356
H25   H     H_    0.168684 0.019165 0.522837 0.262456
H26   H     H_    0.158111 0.023444 0.395568 0.206372
H27   H     H_    0.226207 0.940505 0.450233 0.256080
H28   H     H_    0.396742 0.969722 0.293036 0.112995
H29   H     H_    0.448688 0.874087 0.240286 0.168788
H30   H     H_    0.536896 0.975975 0.142402 0.259504
H31   H     H_    0.424349 0.993992 0.122966 0.207318
H32   H     H_    0.484938 0.071556 0.194927 0.250545
H33   H     H_    0.382132 0.196239 0.687949 0.133121
H34   H     H_    0.369099 0.532434 0.756699 0.148438
H35   H     H_    0.274501 0.177644 0.645338 0.179628
H36   H     H_    0.250879 0.344807 0.651729 0.252537
H37   H     H_    0.275620 0.295159 0.765325 0.203837
H38   H     H_    0.356277 0.356573 0.702182 0.278544
H39   H     H_    0.660136 0.739091 0.415914 0.104996
H40   H     H_    0.667464 0.837308 0.340527 0.175123
H41   H     H_    0.658493 0.739813 0.198249 0.239992
H42   H     H_    0.746338 0.708159 0.274582 0.201704
H43   H     H_    0.649806 0.642269 0.273326 0.272969
H44   H     H_    0.604084 0.235514 0.312191 0.115358
H45   H     H_    0.563369 0.373725 0.068653 0.192239
H46   H     H_    0.686300 0.154339 0.339273 0.196315
H47   H     H_    0.788026 0.278056 0.374615 0.288304
H48   H     H_    0.745494 0.284558 0.255646 0.200310
H49   H     H_    0.706100 0.358559 0.345884 0.267128
H50   H     H_    0.328750 0.696029 0.603050 0.131186
H51   H     H_    0.307116 0.814626 0.611887 0.147708
H52   H     H_    0.311057 0.806565 0.785471 0.258046
H53   H     H_    0.234462 0.728294 0.737171 0.204406
H54   H     H_    0.336078 0.688974 0.781198 0.253133
H55   H     H_    0.645450 0.985240 0.589405 0.099119
H56   H     H_    0.367103 0.533304 0.930582 0.190778
H57   H     H_    0.699170 0.091982 0.573261 0.170129
H58   H     H_    0.801262 0.017882 0.463859 0.260409
H59   H     H_    0.802271 0.968154 0.580423 0.203859
H60   H     H_    0.748421 0.912047 0.483870 0.236314
H61   H     H_    0.533688 0.025103 0.690634 0.102456
H62   H     H_    0.533113 0.908819 0.728414 0.146630
H63   H     H_    0.415117 0.942274 0.839000 0.260555
H64   H     H_    0.508116 0.010182 0.862588 0.199916
H65   H     H_    0.417042 0.058231 0.802419 0.245831
H66   H     H_    0.549026 0.701031 0.034500 0.123693
H67   H     H_    0.436072 0.624017 0.244277 0.166358
H68   H     H_    0.492655 0.742741 0.137064 0.167988
H69   H     H_    0.386907 0.816129 0.031227 0.253112
H70   H     H_    0.493957 0.852881 0.005792 0.206420
H71   H     H_    0.441786 0.773164 0.928769 0.272314
H72   H     H_    0.659035 0.593798 0.993442 0.125929
H73   H     H_    0.718709 0.570245 0.886682 0.133628
H74   H     H_    0.816817 0.473241 0.980370 0.256279
H75   H     H_    0.813027 0.585467 0.027368 0.200626
H76   H     H_    0.756397 0.496302 0.086100 0.256946
H77   H     H_    0.630540 0.465798 0.757504 0.157609
H78   H     H_    0.052677 0.271840 0.493047 0.135606
N1    N     N_R   0.500000 0.499980 0.252470 -0.114046
N2    N     N_R   0.500000 0.500020 0.747530 -0.109464
O1    O     O_R   0.500010 0.369070 0.579480 -0.611119
O2    O     O_3   0.069260 0.665480 0.502572 -0.611539
O3    O     O_3   0.333616 0.057653 0.526745 -0.568673
O4    O     O_3   0.525145 0.953274 0.328076 -0.558879
O5    O     O_3   0.350913 0.245398 0.550757 -0.622450
O6    O     O_3   0.550542 0.771739 0.337862 -0.591771
O7    O     O_3   0.643660 0.227879 0.454367 -0.597243
O8    O     O_3   0.429811 0.771001 0.654755 -0.567099
O9    O     O_3   0.634418 0.040962 0.455146 -0.573593
O10   O     O_3   0.425903 0.953700 0.651769 -0.545952
O11   O     O_3   0.428921 0.645373 0.058123 -0.620566
O12   O     O_R   0.499990 0.630930 0.420520 -0.587161
O13   O     O_3   0.651147 0.462823 0.942332 -0.620557
O14   O     O_R   0.500010 0.369060 0.420520 -0.635301
O15   O     O_R   0.499990 0.630940 0.579480 -0.577675
O16   O     O_R   0.376780 0.500000 0.579460 -0.637141
O17   O     O_R   0.623220 0.500000 0.420540 -0.630269
O18   O     O_R   0.376780 0.499990 0.420510 -0.614792
O19   O     O_R   0.623220 0.500010 0.579490 -0.630953
O20   O     O_3   0.931195 0.329972 0.497090 -0.604331
Zn1   Zn    Zn3+2 0.500000 0.500010 0.606140 0.960809
Zn2   Zn    Zn3+2 0.500000 0.499990 0.393860 0.954749

loop_
_geom_bond_atom_site_label_1
_geom_bond_atom_site_label_2
_ccdc_geom_bond_type
N2    Zn1   S    
C55   H55   S    
C59   H64   S    
C34   C56   A    
C51   H46   S    
C47   H35   S    
C22   C29   T    
C54   H54   S    
C27   C29   S    
C63   H74   S    
C20   H1    S    
C33   O20   S    
C37   H8    S    
C2    C65   A    
C1    C45   S    
C60   H66   S    
C6    O13   S    
C18   O20   S    
O12   Zn2   S    
C53   C54   S    
C16   O18   A    
C55   O9    S    
C59   H65   S    
C62   C63   S    
C23   C45   A    
C39   H11   S    
C40   H21   S    
C36   C37   S    
C19   C21   S    
C7    H67   S    
C25   C40   S    
C57   H59   S    
C66   O9    S    
C31   O3    S    
C11   C14   A    
C53   H51   S    
C39   H13   S    
C56   C65   A    
C41   H17   S    
C47   H33   S    
C40   H20   S    
C42   O3    S    
C19   C26   S    
C21   C25   S    
C17   O17   A    
C43   H27   S    
C6    C15   A    
C36   O2    S    
C59   H63   S    
C35   H4    S    
C21   H12   S    
C16   C22   S    
C62   H73   S    
C19   C27   S    
C53   H50   S    
C3    C31   A    
C9    N1    A    
C46   H32   S    
C35   H5    S    
C58   H61   S    
O19   Zn1   S    
C54   H53   S    
C38   H16   S    
C50   H42   S    
C18   C25   S    
C44   C46   S    
C24   C30   T    
C33   H78   S    
C55   H57   S    
C17   C24   S    
C4    C32   A    
C11   H45   S    
C51   C52   S    
O18   Zn2   S    
C18   C28   S    
C60   O11   S    
C9    H23   S    
C57   H60   S    
C5    C7    A    
C34   O6    S    
C26   C38   S    
C6    C8    A    
C16   O16   A    
C58   C59   S    
C52   H47   S    
C48   H37   S    
C64   O7    S    
C50   H43   S    
C44   O4    S    
C60   C61   S    
C42   H24   S    
C23   C31   A    
C2    C4    A    
C65   O8    S    
C47   C48   S    
C48   H36   S    
C63   H75   S    
C32   O4    S    
C12   C56   S    
C12   O15   A    
C10   H34   S    
C9    C11   A    
C64   C66   A    
C5    C14   A    
O15   Zn1   S    
O1    Zn1   S    
C10   N2    A    
C40   C41   S    
C62   H72   S    
C37   H10   S    
C47   O5    S    
C51   H44   S    
C5    O11   S    
C55   C57   S    
C38   H15   S    
C50   H41   S    
C1    O1    A    
C3    C66   A    
C42   H22   S    
C42   C43   S    
C3    C4    S    
C54   H52   S    
C60   H68   S    
C61   H69   S    
C52   H49   S    
C23   O5    S    
C51   O7    S    
C2    O10   S    
C49   O6    S    
C14   C15   S    
C46   H31   S    
C1    O14   A    
C8    N2    A    
C19   O2    S    
C33   H2    S    
C10   C13   A    
C49   H39   S    
C49   H40   S    
C20   C27   S    
C52   H48   S    
C25   C27   S    
C41   H19   S    
C45   C64   A    
C26   C28   S    
C43   H26   S    
C39   H14   S    
C13   C15   A    
O17   Zn2   S    
C44   H29   S    
C17   O19   A    
C58   H62   S    
C57   H58   S    
C13   H56   S    
C41   H18   S    
C61   H71   S    
C38   C39   S    
C20   C26   S    
C28   C30   S    
C33   C35   S    
C63   H76   S    
C8    H77   S    
C18   C20   S    
O14   Zn2   S    
C37   H9    S    
C43   H25   S    
C44   H28   S    
C36   H7    S    
C21   C28   S    
O16   Zn1   S    
C53   O8    S    
C46   H30   S    
C35   H3    S    
C49   C50   S    
C58   O10   S    
C62   O13   S    
C12   O12   A    
C36   H6    S    
C61   H70   S    
C32   C34   A    
C7    N1    A    
N1    Zn2   S    
C48   H38   S    
