data_mof_unit_39388.cif
_audit_creation_date              2012-12-10T18:50:48-0500
_audit_creation_method            fapswitch 2.2
_symmetry_space_group_name_H-M    P1
_symmetry_Int_Tables_number       1
_space_group_crystal_system       triclinic
_cell_length_a                    10.63566
_cell_length_b                    9.948227
_cell_length_c                    15.785715
_cell_angle_alpha                 89.401205
_cell_angle_beta                  91.725032
_cell_angle_gamma                 89.142554
_cell_volume                      1669.17954739

loop_
_atom_site_label
_atom_site_type_symbol
_atom_type_description
_atom_site_fract_x
_atom_site_fract_y
_atom_site_fract_z
_atom_type_partial_charge
C1    C     C_R   0.262168 0.501457 0.512380 0.929015
C2    C     C_R   0.934858 0.622973 0.507555 -0.159212
C3    C     C_R   0.874630 0.499711 0.509806 -0.073290
C4    C     C_R   0.130938 0.506699 0.533980 -0.166637
C5    C     C_R   0.554808 0.069512 0.565771 -0.018600
C6    C     C_R   0.556246 0.926135 0.565340 -0.019495
C7    C     C_R   0.497630 0.500833 0.338606 0.900223
C8    C     C_R   0.444156 0.930172 0.434387 -0.062752
C9    C     C_R   0.442578 0.073673 0.435107 -0.045572
C10   C     C_R   0.740576 0.499278 0.500451 0.898876
C11   C     C_R   0.502212 0.499413 0.661359 0.906436
C12   C     C_3   0.652200 0.489573 0.955654 0.837612
C13   C     C_3   0.425117 0.626993 0.043929 -0.285626
C14   C     C_3   0.442885 0.366758 0.047455 -0.269075
C15   C     C_3   0.439272 0.370771 0.948536 -0.311050
C16   C     C_3   0.445495 0.632727 0.946328 -0.323923
C17   C     C_1   0.508195 0.498383 0.749865 -0.060408
C18   C     C_3   0.499850 0.502066 0.083011 -0.092753
C19   C     C_3   0.510788 0.497852 0.916748 -0.013185
C20   C     C_2   0.333313 0.690744 0.894636 1.031888
C21   C     C_2   0.312439 0.346465 0.904185 1.046884
C22   C     C_2   0.385717 0.860267 0.361663 0.987443
C23   C     C_3   0.644854 0.512984 0.056864 -0.281395
C24   C     C_2   0.374314 0.147435 0.366439 0.971861
C25   C     C_2   0.290610 0.643200 0.073481 1.067079
C26   C     C_2   0.322623 0.314641 0.085724 0.974679
C27   C     C_2   0.694412 0.650921 0.086677 0.878240
C28   C     C_2   0.732442 0.408628 0.103703 0.997675
C29   C     C_3   0.856887 0.580604 0.930880 -0.074884
C30   C     C_3   0.730881 0.323057 0.858644 -0.291103
C31   C     C_2   0.129408 0.267641 0.595183 0.953157
C32   C     C_2   0.116074 0.765482 0.532207 1.016722
C33   C     C_2   0.611401 0.138615 0.638923 0.971649
C34   C     C_1   0.511997 0.498166 0.824994 0.023839
C35   C     C_2   0.622580 0.852251 0.635188 0.969497
C36   C     C_1   0.493943 0.504269 0.174827 0.103753
C37   C     C_1   0.494190 0.503179 0.249963 -0.003578
C38   C     C_R   0.067921 0.385866 0.551427 -0.037148
C39   C     C_R   0.062016 0.629259 0.523861 -0.054337
C40   C     C_R   0.940035 0.382033 0.533316 -0.197020
H1    H     H_    0.511175 0.285529 0.065640 0.199488
H2    H     H_    0.368253 0.202906 0.243658 0.356371
H3    H     H_    0.177150 0.718286 0.162131 0.354837
H4    H     H_    0.202293 0.160197 0.093182 0.363902
H5    H     H_    0.723989 0.847521 0.061707 0.373797
H6    H     H_    0.910644 0.340397 0.125200 0.373719
H7    H     H_    0.904162 0.632000 0.878189 0.178573
H8    H     H_    0.895539 0.476643 0.933841 0.219108
H9    H     H_    0.885539 0.633349 0.989553 0.206765
H10   H     H_    0.752122 0.409763 0.816935 0.169973
H11   H     H_    0.651490 0.266149 0.830916 0.222538
H12   H     H_    0.468203 0.719523 0.069736 0.197566
H13   H     H_    0.814490 0.255028 0.859477 0.208792
H14   H     H_    0.121141 0.070921 0.626326 0.367307
H15   H     H_    0.123953 0.954148 0.484796 0.375761
H16   H     H_    0.757679 0.242822 0.686716 0.313436
H17   H     H_    0.624965 0.795844 0.758379 0.353536
H18   H     H_    0.494415 0.280982 0.929406 0.202893
H19   H     H_    0.516379 0.711401 0.935619 0.218975
H20   H     H_    0.890921 0.288648 0.540637 0.251146
H21   H     H_    0.882331 0.715777 0.495375 0.224065
H22   H     H_    0.217540 0.851175 0.873942 0.364805
H23   H     H_    0.216471 0.241537 0.815378 0.364052
H24   H     H_    0.244349 0.745319 0.317391 0.361492
N1    N     N_R   0.499970 0.857200 0.499980 -0.148873
N2    N     N_R   0.499970 0.142800 0.499980 -0.153401
O1    O     O_R   0.316750 0.614620 0.499990 -0.583409
O2    O     O_R   0.291678 0.821397 0.911824 -0.752736
O3    O     O_2   0.217251 0.405888 0.924943 -0.553795
O4    O     O_R   0.305161 0.251370 0.839643 -0.728738
O5    O     O_2   0.433880 0.866334 0.292385 -0.542068
O6    O     O_R   0.274745 0.789759 0.371516 -0.772069
O7    O     O_2   0.271780 0.199122 0.379131 -0.601620
O8    O     O_R   0.425127 0.152636 0.285962 -0.735550
O9    O     O_2   0.201199 0.599084 0.032860 -0.552751
O10   O     O_R   0.269614 0.712305 0.148520 -0.776971
O11   O     O_2   0.263908 0.379829 0.136919 -0.609108
O12   O     O_R   0.316750 0.385380 0.499990 -0.576844
O13   O     O_R   0.281952 0.186190 0.063766 -0.757060
O14   O     O_2   0.732133 0.664193 0.160185 -0.585310
O15   O     O_R   0.690814 0.763947 0.033016 -0.772499
O16   O     O_2   0.691858 0.324634 0.152536 -0.606892
O17   O     O_R   0.862084 0.412319 0.091384 -0.770410
O18   O     O_3   0.724744 0.590767 0.914775 -0.652896
O19   O     O_3   0.705157 0.357204 0.943342 -0.647991
O20   O     O_2   0.225124 0.281626 0.638912 -0.590135
O21   O     O_R   0.073009 0.141757 0.591310 -0.790760
O22   O     O_2   0.192745 0.788870 0.589288 -0.593193
O23   O     O_R   0.499990 0.614720 0.377140 -0.608363
O24   O     O_R   0.075182 0.868382 0.476479 -0.749409
O25   O     O_2   0.557594 0.138360 0.706249 -0.574388
O26   O     O_R   0.727846 0.199423 0.632122 -0.808045
O27   O     O_2   0.724722 0.799014 0.623572 -0.629829
O28   O     O_R   0.570354 0.848148 0.715397 -0.741894
O29   O     O_R   0.499990 0.385280 0.377140 -0.604589
O30   O     O_R   0.683220 0.614710 0.500000 -0.605056
O31   O     O_R   0.683220 0.385290 0.500000 -0.599908
O32   O     O_R   0.499980 0.614620 0.622860 -0.603343
O33   O     O_R   0.499980 0.385380 0.622860 -0.592693
O34   O     O_2   0.281261 0.627639 0.837967 -0.580417
Zn1   Zn    Zn3+2 0.499980 0.653120 0.500000 1.050216
Zn2   Zn    Zn3+2 0.499980 0.346880 0.500000 1.054419

loop_
_geom_bond_atom_site_label_1
_geom_bond_atom_site_label_2
_ccdc_geom_bond_type
C30   H11   S    
C40   H20   S    
O12   Zn2   S    
N2    Zn2   S    
N1    Zn1   S    
C29   H9    S    
C15   C19   S    
C12   C23   S    
C13   C18   S    
C29   H7    S    
C11   O32   A    
C36   C37   T    
H15   O24   S    
C33   O25   D    
H14   O21   S    
C24   O7    D    
C32   O22   D    
C6    C35   S    
C12   O18   S    
C11   O33   A    
C32   C39   S    
C14   C18   S    
C9    N2    A    
C2    C39   A    
C6    N1    A    
C32   O24   S    
C8    C9    A    
C5    C33   S    
C8    C22   S    
H23   O4    S    
C23   C27   S    
O31   Zn2   S    
C2    H21   S    
C30   H10   S    
C8    N1    A    
C31   O20   D    
O30   Zn1   S    
C28   O17   S    
C1    O12   A    
C13   C25   S    
C22   O6    S    
C35   O27   D    
C30   H13   S    
H2    O8    S    
C26   O11   D    
C31   O21   S    
C29   H8    S    
C28   O16   D    
C18   C23   S    
C27   O15   S    
C29   O18   S    
C27   O14   D    
C33   O26   S    
C21   O3    D    
C25   O9    D    
C16   H19   S    
C10   O31   A    
C13   H12   S    
C20   O34   D    
C4    C39   A    
C10   O30   A    
C16   C20   S    
C7    C37   S    
C23   C28   S    
C14   C26   S    
C30   O19   S    
C14   H1    S    
C12   O19   S    
C4    C38   A    
C3    C40   A    
H17   O28   S    
C15   H18   S    
C17   C34   T    
C22   O5    D    
O1    Zn1   S    
C35   O28   S    
H3    O10   S    
C11   C17   S    
O23   Zn1   S    
C20   O2    S    
H4    O13   S    
H5    O15   S    
C5    N2    A    
C19   C34   S    
O29   Zn2   S    
C9    C24   S    
O32   Zn1   S    
C7    O29   A    
C26   O13   S    
C31   C38   S    
H22   O2    S    
C21   O4    S    
C1    C4    S    
C25   O10   S    
C2    C3    A    
C3    C10   S    
C38   C40   A    
C24   O8    S    
C5    C6    A    
C16   C19   S    
C12   C19   S    
C1    O1    A    
H24   O6    S    
H6    O17   S    
C15   C21   S    
O33   Zn2   S    
C13   C16   S    
C14   C15   S    
H16   O26   S    
C18   C36   S    
C7    O23   A    
