data_mof_unit_62620.cif
_audit_creation_date              2012-12-10T16:59:36-0500
_audit_creation_method            fapswitch 2.2
_symmetry_space_group_name_H-M    P1
_symmetry_Int_Tables_number       1
_space_group_crystal_system       triclinic
_cell_length_a                    21.737407
_cell_length_b                    21.732924
_cell_length_c                    47.127593
_cell_angle_alpha                 89.867938
_cell_angle_beta                  90.460685
_cell_angle_gamma                 90.034574
_cell_volume                      22263.113013

loop_
_atom_site_label
_atom_site_type_symbol
_atom_type_description
_atom_site_fract_x
_atom_site_fract_y
_atom_site_fract_z
_atom_type_partial_charge
C1    C     C_R   0.997703 0.881014 0.999905 0.925143
C2    C     C_R   0.447634 0.023509 0.219997 -0.095341
C3    C     C_R   0.501814 0.943904 0.101692 -0.207903
C4    C     C_R   0.556722 0.002015 0.601721 -0.207803
C5    C     C_R   0.997639 0.555551 0.601655 -0.208435
C6    C     C_R   0.445103 0.997732 0.601633 -0.207194
C7    C     C_R   0.002272 0.443929 0.601700 -0.205211
C8    C     C_R   0.001021 0.500117 0.086654 -0.035047
C9    C     C_R   0.499875 0.999791 0.086667 -0.035261
C10   C     C_R   0.500706 0.999920 0.586669 -0.035299
C11   C     C_R   0.999997 0.499800 0.586669 -0.038068
C12   C     C_R   0.002834 0.500101 0.146004 0.329846
C13   C     C_R   0.985028 0.446429 0.220239 -0.095179
C14   C     C_R   0.499477 0.999537 0.146038 0.328421
C15   C     C_R   0.501501 0.999714 0.646043 0.328341
C16   C     C_R   0.999743 0.499565 0.646041 0.328235
C17   C     C_2   0.684940 0.997594 0.003905 -0.262325
C18   C     C_2   0.002623 0.684825 0.004067 -0.265910
C19   C     C_2   0.315240 0.002521 0.004098 -0.266607
C20   C     C_2   0.997525 0.315124 0.003991 -0.264162
C21   C     C_2   0.184939 0.497605 0.503988 -0.260792
C22   C     C_2   0.502623 0.184825 0.504066 -0.265559
C23   C     C_2   0.815015 0.502274 0.495885 -0.278452
C24   C     C_R   0.550598 0.975345 0.220522 -0.095410
C25   C     C_2   0.497524 0.815124 0.503991 -0.263581
C26   C     C_2   0.783844 0.037075 0.019023 -0.146700
C27   C     C_2   0.963703 0.783348 0.019457 -0.146557
C28   C     C_2   0.216865 0.963719 0.019769 -0.146396
C29   C     C_2   0.036872 0.216449 0.019405 -0.146554
C30   C     C_2   0.283863 0.537209 0.518998 -0.146854
C31   C     C_2   0.463695 0.283349 0.519451 -0.143604
C32   C     C_2   0.716043 0.460878 0.482123 -0.149035
C33   C     C_2   0.536868 0.716449 0.519405 -0.147631
C34   C     C_2   0.815286 0.009060 0.998510 -0.312108
C35   C     C_R   0.525568 0.051316 0.720300 -0.095361
C36   C     C_2   0.991151 0.815254 0.998847 -0.312755
C37   C     C_2   0.184741 0.991308 0.999066 -0.312636
C38   C     C_2   0.008902 0.184739 0.998742 -0.312453
C39   C     C_2   0.315279 0.509064 0.498513 -0.312841
C40   C     C_2   0.491160 0.315254 0.498846 -0.313987
C41   C     C_2   0.684659 0.492197 0.501577 -0.333004
C42   C     C_2   0.508900 0.684739 0.498742 -0.310565
C43   C     C_R   0.500027 0.000066 0.944674 1.079851
C44   C     C_R   0.999772 0.499989 0.944675 1.079767
C45   C     C_R   0.000373 0.500072 0.444645 1.077165
C46   C     C_R   0.947676 0.523172 0.719989 -0.095347
C47   C     C_R   0.499772 0.999991 0.444675 1.080028
C48   C     C_R   0.619124 0.999811 0.001085 0.997281
C49   C     C_R   0.000241 0.619095 0.001107 0.996936
C50   C     C_R   0.380918 0.000192 0.001112 0.996663
C51   C     C_R   0.999797 0.380894 0.001099 0.997205
C52   C     C_R   0.119119 0.499813 0.501145 1.000220
C53   C     C_R   0.500241 0.119095 0.501106 0.997252
C54   C     C_R   0.880820 0.500151 0.499103 0.979810
C55   C     C_R   0.499796 0.880894 0.501099 0.997076
C56   C     C_R   0.500003 0.999935 0.055528 0.839783
C57   C     C_R   0.477639 0.948169 0.720229 -0.095224
C58   C     C_R   0.000257 0.500028 0.055523 0.839606
C59   C     C_R   0.000027 0.499936 0.555528 0.847376
C60   C     C_R   0.500225 0.999986 0.555527 0.839828
C61   C     C_R   0.988977 0.447012 0.190386 0.493660
C62   C     C_R   0.550792 0.980487 0.190686 0.493293
C63   C     C_R   0.019922 0.552460 0.190340 0.493637
C64   C     C_R   0.447686 0.018332 0.190171 0.493333
C65   C     C_R   0.483009 0.948029 0.690427 0.493438
C66   C     C_R   0.051165 0.480886 0.690697 0.493487
C67   C     C_R   0.520628 0.051278 0.690442 0.493613
C68   C     C_R   0.050987 0.475749 0.720533 -0.095200
C69   C     C_R   0.947794 0.518002 0.690163 0.493831
C70   C     C_2   0.080482 0.657165 0.221965 0.508208
C71   C     C_2   0.346828 0.084601 0.221401 0.507962
C72   C     C_2   0.931444 0.341369 0.222333 0.508216
C73   C     C_2   0.651335 0.914175 0.222990 0.508181
C74   C     C_2   0.586525 0.152276 0.722386 0.508562
C75   C     C_2   0.846417 0.583523 0.721374 0.508041
C76   C     C_2   0.416822 0.847105 0.722018 0.507981
C77   C     C_2   0.152182 0.415330 0.723023 0.508342
C78   C     C_R   0.006000 0.499391 0.235119 0.006912
C79   C     C_R   0.499066 0.999456 0.235185 0.007046
C80   C     C_R   0.501437 0.999817 0.735189 0.007145
C81   C     C_R   0.118984 0.997720 0.999984 0.925099
C82   C     C_R   0.999267 0.499487 0.735186 0.007135
C83   C     C_R   0.049538 0.603895 0.235603 -0.037106
C84   C     C_R   0.397798 0.049916 0.235242 -0.037077
C85   C     C_R   0.962782 0.394751 0.235800 -0.037279
C86   C     C_R   0.600315 0.948966 0.236282 -0.037166
C87   C     C_R   0.551708 0.101253 0.735854 -0.037148
C88   C     C_R   0.897631 0.549211 0.735224 -0.036756
C89   C     C_R   0.451230 0.898347 0.735679 -0.036891
C90   C     C_R   0.100884 0.449735 0.736303 -0.036981
C91   C     C_R   0.549170 0.100782 0.765509 -0.111633
C92   C     C_R   0.002302 0.118984 0.999864 0.924945
C93   C     C_R   0.898160 0.547106 0.764899 -0.111791
C94   C     C_R   0.453042 0.899154 0.765358 -0.111939
C95   C     C_R   0.100118 0.451973 0.765965 -0.111766
C96   C     C_R   0.048069 0.603046 0.265276 -0.111817
C97   C     C_R   0.398341 0.047816 0.264917 -0.112039
C98   C     C_R   0.965739 0.395411 0.265460 -0.112219
C99   C     C_R   0.599596 0.951214 0.265943 -0.112149
C100  C     C_R   0.524314 0.050856 0.780232 -0.071377
C101  C     C_R   0.948219 0.522767 0.779932 -0.071393
C102  C     C_R   0.477459 0.949281 0.780166 -0.071297
C103  C     C_R   0.881021 0.002321 0.999785 0.924860
C104  C     C_R   0.049955 0.476412 0.780464 -0.071284
C105  C     C_R   0.026979 0.551523 0.280088 -0.071474
C106  C     C_R   0.448235 0.023117 0.279941 -0.071515
C107  C     C_R   0.987130 0.447008 0.280174 -0.071109
C108  C     C_R   0.549630 0.976025 0.280453 -0.071321
C109  C     C_R   0.501075 0.999983 0.765161 -0.011222
C110  C     C_R   0.999145 0.499551 0.765159 -0.011206
C111  C     C_R   0.006760 0.499285 0.265092 -0.011318
C112  C     C_R   0.498974 0.999528 0.265158 -0.011302
C113  C     C_R   0.523225 0.050193 0.809982 0.551373
C114  C     C_R   0.497707 0.381014 0.499905 0.923446
C115  C     C_R   0.948948 0.522145 0.809692 0.551536
C116  C     C_R   0.477805 0.950281 0.809921 0.551445
C117  C     C_R   0.049014 0.477215 0.810213 0.551330
C118  C     C_R   0.026399 0.550792 0.309845 0.551810
C119  C     C_R   0.448990 0.022498 0.309701 0.551373
C120  C     C_R   0.987981 0.447985 0.309922 0.550602
C121  C     C_R   0.548729 0.976845 0.310202 0.550946
C122  C     C_R   0.444507 0.002487 0.869005 -0.135130
C123  C     C_R   0.996927 0.444135 0.869322 -0.135268
C124  C     C_R   0.555887 0.998190 0.869476 -0.135675
C125  C     C_R   0.618951 0.498028 0.500228 0.935766
C126  C     C_R   0.000858 0.555554 0.869161 -0.135547
C127  C     C_R   0.949010 0.497824 0.368300 -0.137879
C128  C     C_R   0.496524 0.944149 0.369322 -0.135243
C129  C     C_R   0.060277 0.502753 0.370011 -0.133996
C130  C     C_R   0.501154 0.055542 0.369161 -0.136223
C131  C     C_R   0.443776 0.002336 0.898612 0.376531
C132  C     C_R   0.997211 0.443529 0.898928 0.377202
C133  C     C_R   0.556492 0.998206 0.899082 0.377516
C134  C     C_R   0.000979 0.556283 0.898768 0.376835
C135  C     C_R   0.946699 0.497694 0.397861 0.383039
C136  C     C_R   0.502300 0.618984 0.499864 0.924252
C137  C     C_R   0.496844 0.943544 0.398929 0.377014
C138  C     C_R   0.059276 0.502920 0.399624 0.377186
C139  C     C_R   0.501308 0.056271 0.398768 0.377524
C140  C     C_R   0.500102 0.000217 0.913764 -0.337703
C141  C     C_R   0.999254 0.499935 0.913765 -0.337650
C142  C     C_R   0.002110 0.500284 0.413694 -0.337074
C143  C     C_R   0.499249 0.999937 0.413765 -0.337798
C144  C     C_2   0.716981 0.042534 0.016482 -0.155492
C145  C     C_2   0.958147 0.716504 0.016893 -0.155292
C146  C     C_2   0.283674 0.958081 0.017176 -0.155709
C147  C     C_R   0.381019 0.502325 0.499785 0.925296
C148  C     C_2   0.042380 0.283306 0.016856 -0.155380
C149  C     C_2   0.216995 0.542657 0.516468 -0.155444
C150  C     C_2   0.458141 0.216505 0.516887 -0.155514
C151  C     C_2   0.782741 0.455291 0.485147 -0.076867
C152  C     C_2   0.542376 0.783306 0.516857 -0.155493
C153  C     C_R   0.500236 0.000362 0.854491 0.137345
C154  C     C_R   0.998846 0.499810 0.854492 0.137372
C155  C     C_R   0.005453 0.500188 0.354411 0.135799
C156  C     C_R   0.498773 0.999809 0.354492 0.137379
C157  C     C_R   0.057995 0.504318 0.131040 -0.101121
C158  C     C_R   0.026076 0.552518 0.220152 -0.095676
C159  C     C_R   0.497499 0.055353 0.131193 -0.100456
C160  C     C_R   0.946741 0.495932 0.131347 -0.100423
C161  C     C_R   0.501666 0.943845 0.131232 -0.100009
C162  C     C_R   0.557050 0.001967 0.631267 -0.099266
C163  C     C_R   0.997457 0.555365 0.631192 -0.099968
C164  C     C_R   0.445568 0.997581 0.631167 -0.100854
C165  C     C_R   0.002198 0.443881 0.631240 -0.099156
C166  C     C_R   0.057170 0.504237 0.101513 -0.207122
C167  C     C_R   0.497746 0.055548 0.101656 -0.207455
C168  C     C_R   0.945763 0.496044 0.101800 -0.207652
H1    H     H_    0.694059 0.081824 0.025903 0.171886
H2    H     H_    0.496213 0.099258 0.090595 0.169015
H3    H     H_    0.901892 0.492781 0.090856 0.168818
H4    H     H_    0.503478 0.900291 0.090659 0.168914
H5    H     H_    0.600217 0.003735 0.590704 0.168869
H6    H     H_    0.995853 0.599248 0.590591 0.168723
H7    H     H_    0.401297 0.996083 0.590554 0.169122
H8    H     H_    0.004139 0.400323 0.590668 0.169339
H9    H     H_    0.707114 0.955117 0.997440 0.168953
H10   H     H_    0.044963 0.707166 0.997515 0.168813
H11   H     H_    0.292891 0.044920 0.997400 0.168782
H12   H     H_    0.919111 0.693298 0.026415 0.172147
H13   H     H_    0.955015 0.292840 0.997360 0.168861
H14   H     H_    0.207117 0.455074 0.497599 0.169241
H15   H     H_    0.544967 0.207165 0.497518 0.167735
H16   H     H_    0.792987 0.545974 0.500504 0.158272
H17   H     H_    0.455015 0.792841 0.497358 0.168812
H18   H     H_    0.807235 0.057764 0.037091 0.176335
H19   H     H_    0.943402 0.806346 0.037554 0.176652
H20   H     H_    0.194060 0.943284 0.037928 0.176299
H21   H     H_    0.057573 0.193281 0.037561 0.176526
H22   H     H_    0.307280 0.558010 0.537031 0.176442
H23   H     H_    0.306959 0.919013 0.026856 0.171539
H24   H     H_    0.443379 0.306347 0.537544 0.176433
H25   H     H_    0.692659 0.437206 0.464852 0.180915
H26   H     H_    0.557567 0.693281 0.537562 0.175225
H27   H     H_    0.792714 0.994836 0.978927 0.179572
H28   H     H_    0.004928 0.793046 0.979255 0.179744
H29   H     H_    0.206744 0.005180 0.979428 0.179650
H30   H     H_    0.994703 0.207104 0.979100 0.179666
H31   H     H_    0.292679 0.494729 0.478953 0.179646
H32   H     H_    0.504953 0.293047 0.479255 0.178022
H33   H     H_    0.707202 0.509381 0.520652 0.157626
H34   H     H_    0.081669 0.306408 0.026452 0.171990
H35   H     H_    0.494702 0.707104 0.479100 0.179646
H36   H     H_    0.568935 0.138937 0.777233 0.227959
H37   H     H_    0.859936 0.566820 0.776379 0.227873
H38   H     H_    0.433040 0.861102 0.777002 0.227859
H39   H     H_    0.138241 0.432297 0.777853 0.227928
H40   H     H_    0.065646 0.642347 0.276925 0.228015
H41   H     H_    0.360275 0.067813 0.276404 0.227928
H42   H     H_    0.948806 0.355992 0.277184 0.227804
H43   H     H_    0.637584 0.931259 0.277824 0.227957
H44   H     H_    0.401897 0.004311 0.856992 0.212198
H45   H     H_    0.194089 0.582042 0.525812 0.172090
H46   H     H_    0.995208 0.401459 0.857548 0.212178
H47   H     H_    0.598548 0.996389 0.857822 0.212182
H48   H     H_    0.002489 0.598179 0.857268 0.212166
H49   H     H_    0.907040 0.495910 0.355817 0.212198
H50   H     H_    0.494529 0.901483 0.357549 0.212193
H51   H     H_    0.103561 0.504247 0.358839 0.213317
H52   H     H_    0.503035 0.098155 0.357268 0.212037
H53   H     H_    0.101455 0.507416 0.142342 0.141388
H54   H     H_    0.495955 0.098524 0.142593 0.141939
H55   H     H_    0.903986 0.492755 0.142897 0.141565
H56   H     H_    0.419100 0.193300 0.526405 0.171736
H57   H     H_    0.503066 0.900578 0.142662 0.142058
H58   H     H_    0.600408 0.003495 0.642722 0.142296
H59   H     H_    0.995705 0.598530 0.642590 0.141837
H60   H     H_    0.402509 0.995990 0.642545 0.141865
H61   H     H_    0.003842 0.400627 0.642674 0.142234
H62   H     H_    0.106524 0.651304 0.202649 0.110287
H63   H     H_    0.354586 0.110743 0.202151 0.110242
H64   H     H_    0.903958 0.347241 0.203236 0.110767
H65   H     H_    0.643680 0.888004 0.203738 0.110332
H66   H     H_    0.612848 0.144546 0.703296 0.110431
H67   H     H_    0.805206 0.413734 0.477803 0.203509
H68   H     H_    0.854000 0.609740 0.702131 0.109934
H69   H     H_    0.390786 0.854600 0.702614 0.110165
H70   H     H_    0.144743 0.389089 0.703774 0.110243
H71   H     H_    0.275932 0.007093 0.904050 0.390188
H72   H     H_    0.992711 0.275664 0.905273 0.389797
H73   H     H_    0.724324 0.993555 0.905865 0.389586
H74   H     H_    0.005049 0.724183 0.904653 0.389991
H75   H     H_    0.778764 0.489231 0.401300 0.390013
H76   H     H_    0.491517 0.775704 0.405271 0.389893
H77   H     H_    0.226681 0.509513 0.408182 0.389182
H78   H     H_    0.581664 0.806408 0.526454 0.171391
H79   H     H_    0.506409 0.224142 0.404649 0.388985
H80   H     H_    0.100414 0.507486 0.090357 0.169020
N1    N     N_R   0.003849 0.499880 0.176374 -0.340264
N2    N     N_R   0.499304 0.999422 0.176423 -0.339900
N3    N     N_R   0.501836 0.999637 0.676429 -0.339955
N4    N     N_R   0.999556 0.499458 0.676426 -0.339978
N5    N     N_R   0.500350 0.000311 0.824125 -0.334678
N6    N     N_R   0.998931 0.499723 0.824126 -0.334688
N7    N     N_R   0.006978 0.499544 0.324059 -0.334261
N8    N     N_R   0.498825 0.999718 0.324126 -0.334642
O1    O     O_R   0.999970 0.909590 0.023670 -0.615885
O2    O     O_R   0.090410 1.000000 0.976330 -0.611442
O3    O     O_R   0.000000 0.090410 0.976330 -0.611614
O4    O     O_R   0.909590 1.000000 0.976330 -0.611798
O5    O     O_R   0.500000 0.409590 0.476330 -0.616220
O6    O     O_R   0.590410 0.500000 0.476330 -0.607825
O7    O     O_R   0.500000 0.590410 0.476330 -0.610532
O8    O     O_R   0.409590 0.500000 0.476330 -0.611757
O9    O     O_R   0.500030 0.051130 0.958080 -0.577292
O10   O     O_R   0.948870 0.500030 0.958080 -0.577353
O11   O     O_R   0.499970 0.948870 0.958080 -0.577165
O12   O     O_R   0.090410 0.999970 0.023670 -0.615917
O13   O     O_R   0.051130 0.499970 0.958080 -0.577044
O14   O     O_R   0.000030 0.551130 0.458080 -0.578740
O15   O     O_R   0.448870 0.000030 0.458080 -0.577337
O16   O     O_R   0.999970 0.448870 0.458080 -0.578859
O17   O     O_R   0.551130 0.999970 0.458080 -0.577225
O18   O     O_R   0.590470 0.051110 0.000000 -0.605745
O19   O     O_R   0.948890 0.590470 0.000000 -0.605061
O20   O     O_R   0.409530 0.948890 0.000000 -0.605082
O21   O     O_R   0.051110 0.409530 0.000000 -0.605026
O22   O     O_R   0.090470 0.551110 0.500000 -0.602387
O23   O     O_R   0.000030 0.090410 0.023670 -0.615842
O24   O     O_R   0.448890 0.090470 0.500000 -0.605420
O25   O     O_R   0.909530 0.448890 0.500000 -0.615897
O26   O     O_R   0.551110 0.909530 0.500000 -0.605464
O27   O     O_R   0.590450 0.948970 0.000000 -0.610646
O28   O     O_R   0.051030 0.590450 0.000000 -0.610934
O29   O     O_R   0.409550 0.051030 0.000000 -0.610489
O30   O     O_R   0.948970 0.409550 0.000000 -0.610904
O31   O     O_R   0.090450 0.448970 0.500000 -0.612629
O32   O     O_R   0.551030 0.090450 0.500000 -0.610838
O33   O     O_R   0.909550 0.551030 0.500000 -0.609850
O34   O     O_R   0.909590 0.000030 0.023670 -0.615684
O35   O     O_R   0.448970 0.909550 0.500000 -0.610520
O36   O     O_R   0.499980 0.051120 0.041920 -0.638864
O37   O     O_R   0.948880 0.499980 0.041920 -0.638392
O38   O     O_R   0.500020 0.948880 0.041920 -0.639205
O39   O     O_R   0.051120 0.500020 0.041920 -0.639678
O40   O     O_R   0.999980 0.551120 0.541920 -0.638030
O41   O     O_R   0.448880 0.999980 0.541920 -0.638681
O42   O     O_R   0.000020 0.448880 0.541920 -0.634016
O43   O     O_R   0.551120 0.000020 0.541920 -0.639340
O44   O     O_2   0.979917 0.395187 0.175249 -0.570686
O45   O     O_R   0.499970 0.409590 0.523670 -0.612216
O46   O     O_2   0.602169 0.968626 0.175833 -0.570639
O47   O     O_2   0.027987 0.604536 0.175219 -0.570330
O48   O     O_2   0.396435 0.030172 0.174817 -0.570739
O49   O     O_2   0.471385 0.896625 0.675347 -0.570531
O50   O     O_2   0.102631 0.469374 0.675850 -0.570591
O51   O     O_2   0.532498 0.102591 0.675314 -0.570305
O52   O     O_2   0.896477 0.529489 0.674800 -0.570278
O53   O     O_2   0.544535 0.099084 0.824701 -0.518020
O54   O     O_2   0.900013 0.543433 0.824133 -0.518047
O55   O     O_2   0.456160 0.901541 0.824588 -0.518231
O56   O     O_R   0.590410 0.499970 0.523670 -0.620140
O57   O     O_2   0.097854 0.456024 0.825160 -0.518185
O58   O     O_2   0.044506 0.601040 0.324490 -0.518660
O59   O     O_2   0.400224 0.044143 0.324151 -0.518116
O60   O     O_2   0.970090 0.397812 0.324655 -0.518716
O61   O     O_2   0.597432 0.955307 0.325138 -0.518524
O62   O     O_2   0.078813 0.708193 0.232739 -0.529191
O63   O     O_2   0.295694 0.085928 0.231939 -0.529070
O64   O     O_2   0.934426 0.290202 0.233032 -0.528911
O65   O     O_2   0.702389 0.912798 0.233990 -0.529388
O66   O     O_2   0.587749 0.203422 0.733068 -0.529185
O67   O     O_R   0.500030 0.590410 0.523670 -0.617177
O68   O     O_2   0.795260 0.584455 0.731900 -0.529343
O69   O     O_2   0.415603 0.796034 0.732875 -0.529317
O70   O     O_2   0.203238 0.414352 0.734030 -0.529304
O71   O     O_2   0.365854 0.948370 0.934543 -0.297811
O72   O     O_2   0.369212 0.061085 0.934349 -0.306285
O73   O     O_3   0.313713 0.006148 0.892445 -0.532935
O74   O     O_2   0.051696 0.365825 0.935278 -0.297724
O75   O     O_2   0.938985 0.368921 0.935056 -0.307775
O76   O     O_3   0.993484 0.313417 0.893462 -0.533105
O77   O     O_2   0.634299 0.052065 0.935550 -0.298548
O78   O     O_R   0.409590 0.500030 0.523670 -0.615546
O79   O     O_2   0.630985 0.939330 0.935479 -0.307699
O80   O     O_3   0.686573 0.994456 0.893955 -0.533184
O81   O     O_2   0.947241 0.633934 0.934816 -0.297886
O82   O     O_2   0.059951 0.631177 0.934789 -0.306929
O83   O     O_3   0.004161 0.686386 0.892946 -0.533037
O84   O     O_2   0.871421 0.434875 0.431514 -0.320657
O85   O     O_2   0.866367 0.547519 0.433757 -0.306604
O86   O     O_3   0.817019 0.493019 0.390144 -0.532713
O87   O     O_2   0.550948 0.865569 0.435273 -0.298141
O88   O     O_2   0.438253 0.869229 0.435060 -0.307220
O89   O     O_R   0.000000 0.909590 0.976330 -0.611618
O90   O     O_3   0.492455 0.813454 0.393460 -0.533059
O91   O     O_2   0.131326 0.561751 0.436977 -0.291911
O92   O     O_2   0.135848 0.449030 0.436673 -0.316408
O93   O     O_3   0.189537 0.508432 0.395875 -0.533741
O94   O     O_2   0.448020 0.134225 0.434820 -0.298152
O95   O     O_2   0.560713 0.130846 0.434784 -0.308605
O96   O     O_3   0.505211 0.186352 0.392944 -0.534394
S1    S     S_3+6 0.372020 0.004531 0.916117 0.030825
S2    S     S_3+6 0.995312 0.371810 0.916818 0.030056
S3    S     S_3+6 0.628199 0.995961 0.917157 0.029599
S4    S     S_3+6 0.003141 0.628063 0.916463 0.030400
S5    S     S_3+6 0.874144 0.493232 0.414429 0.026449
S6    S     S_3+6 0.494586 0.871836 0.416818 0.030099
S7    S     S_3+6 0.130043 0.505583 0.418444 0.029147
S8    S     S_3+6 0.503880 0.128042 0.416462 0.029056
Zn1   Zn    Zn3+2 0.000000 1.000000 0.031610 0.994436
Zn2   Zn    Zn3+2 0.431750 0.000010 0.500000 1.052428
Zn3   Zn    Zn3+2 0.999990 0.431750 0.500000 1.048377
Zn4   Zn    Zn3+2 0.568250 0.999990 0.500000 1.051478
Zn5   Zn    Zn3+2 0.500000 0.500000 0.531610 0.997237
Zn6   Zn    Zn3+2 0.000000 1.000000 0.968400 1.023007
Zn7   Zn    Zn3+2 0.500000 0.500000 0.468400 1.018250
Zn8   Zn    Zn3+2 0.500010 0.068250 0.000000 1.052383
Zn9   Zn    Zn3+2 0.931750 0.500010 0.000000 1.052593
Zn10  Zn    Zn3+2 0.499990 0.931750 0.000000 1.052470
Zn11  Zn    Zn3+2 0.068250 0.499990 0.000000 1.052180
Zn12  Zn    Zn3+2 0.000010 0.568250 0.500000 1.051851

loop_
_geom_bond_atom_site_label_1
_geom_bond_atom_site_label_2
_ccdc_geom_bond_type
C22   C150  D    
C87   C91   A    
C5    H6    S    
O29   Zn8   S    
H77   O93   S    
C17   C48   S    
C52   O31   A    
C16   N4    S    
C55   O35   A    
C90   C95   A    
O73   S1    S    
C127  H49   S    
C124  C133  A    
C25   C152  D    
O18   Zn8   S    
C96   H40   S    
H76   O90   S    
C38   C92   S    
C35   C80   A    
C42   C136  S    
O6    Zn7   S    
C89   C94   A    
C138  S7    S    
C131  C140  A    
C8    C168  A    
O16   Zn3   S    
C135  C142  A    
C2    C64   A    
C125  O6    A    
O36   Zn8   S    
C81   O12   A    
C68   C90   A    
C91   C100  A    
C74   H66   S    
O42   Zn3   S    
C46   C88   A    
C107  C111  A    
C100  C109  A    
C61   O44   S    
C165  H61   S    
C37   C81   S    
C21   H14   S    
C163  H59   S    
C121  O61   S    
C66   N4    A    
H73   O80   S    
C41   C125  S    
O17   Zn4   S    
C93   C101  A    
C31   C150  S    
C30   C149  S    
C167  H2    S    
O5    Zn7   S    
C101  C110  A    
C144  H1    S    
C113  O53   S    
C12   N1    S    
C76   H69   S    
C10   C60   S    
O28   Zn11  S    
O87   S6    D    
C27   C145  S    
C27   H19   S    
C130  H52   S    
C86   C99   A    
C25   H17   S    
C64   N2    A    
C126  C154  A    
C33   H26   S    
C4    H5    S    
C45   C142  S    
C101  C115  A    
C122  H44   S    
C105  C118  A    
H72   O76   S    
C128  H50   S    
C107  C120  A    
C104  C117  A    
C56   O38   A    
C153  N5    S    
O2    Zn6   S    
O34   Zn1   S    
O82   S4    D    
C25   C55   S    
C53   O32   A    
C147  O78   A    
C43   O9    A    
C49   O28   A    
C166  H80   S    
C14   C161  A    
C134  C141  A    
C104  C110  A    
C66   O50   S    
O40   Zn12  S    
O14   Zn12  S    
C159  C167  A    
C160  C168  A    
C149  H45   S    
C118  N7    A    
C128  C156  A    
C62   N2    A    
C126  C134  A    
O32   Zn4   S    
C123  H46   S    
C13   C85   A    
C71   H63   S    
C102  C109  A    
C19   H11   S    
C18   C49   S    
C123  C154  A    
C48   O18   A    
C53   O24   A    
C47   C143  S    
C123  C132  A    
C103  O4    A    
C51   O30   A    
C94   H38   S    
C29   H21   S    
C119  N8    A    
C29   C148  S    
C70   H62   S    
C72   C85   S    
C148  H34   S    
C67   O51   S    
C99   C108  A    
C115  N6    A    
C97   H41   S    
C17   C144  D    
C33   C42   D    
C120  O60   S    
O79   S3    D    
C54   O33   A    
O38   Zn10  S    
C51   O21   A    
O11   Zn10  S    
C1    O89   A    
O92   S7    D    
C71   O63   D    
C46   C82   A    
C35   C87   A    
O67   Zn5   S    
C168  H3    S    
C59   O40   A    
C44   C141  S    
C29   C38   D    
C32   C41   D    
C38   H30   S    
C78   C111  A    
C21   C149  D    
C74   C87   S    
C91   H36   S    
C76   C89   S    
C124  C153  A    
C136  O7    A    
C157  H53   S    
O84   S5    D    
C57   C80   A    
H79   O96   S    
C162  H58   S    
C45   O14   A    
C19   C146  D    
C43   C140  S    
C70   O62   D    
C133  S3    S    
H74   O83   S    
C36   H28   S    
C43   O11   A    
C139  S8    S    
C3    C9    A    
C59   O42   A    
C24   C79   A    
C35   C67   A    
C16   C165  A    
C151  H67   S    
C7    H8    S    
C75   H68   S    
C9    C56   S    
C94   C102  A    
O13   Zn11  S    
C126  H48   S    
O39   Zn11  S    
O83   S4    S    
O96   S8    S    
C50   O29   A    
C12   C157  A    
C122  C153  A    
C146  H23   S    
C122  C131  A    
C92   O3    A    
O85   S5    D    
O95   S8    D    
C132  C141  A    
C39   H31   S    
C13   C78   A    
C24   C62   A    
C72   H64   S    
C150  H56   S    
O91   S7    D    
C32   H25   S    
C134  S4    S    
C130  C156  A    
C74   O66   D    
C131  S1    S    
C28   C146  S    
C34   C103  S    
C14   C159  A    
C68   C82   A    
C39   C147  S    
C120  N7    A    
O35   Zn2   S    
C58   O39   A    
C26   H18   S    
C28   C37   D    
C60   O41   A    
C30   C39   D    
C30   H22   S    
C69   O52   S    
C118  O58   S    
O27   Zn10  S    
C47   O15   A    
C18   H10   S    
C61   N1    A    
O86   S5    S    
C24   C86   A    
C1    C36   S    
C44   O13   A    
C124  H47   S    
C34   H27   S    
C45   O16   A    
C96   C105  A    
C106  C119  A    
C77   O70   D    
C2    C84   A    
C108  C121  A    
C18   C145  D    
O74   S2    D    
O71   S1    D    
C81   O2    A    
C57   C89   A    
C79   C112  A    
C23   C54   S    
C84   C97   A    
O15   Zn2   S    
C127  C135  A    
C5    C11   A    
C20   C51   S    
C28   H20   S    
O45   Zn5   S    
C3    H4    S    
C6    H7    S    
O19   Zn9   S    
O76   S2    S    
O23   Zn1   S    
C31   C40   D    
C136  O67   A    
C135  S5    S    
O90   S6    S    
O4    Zn6   S    
C2    C79   A    
C8    C58   S    
C80   C109  A    
C132  S2    S    
C152  H78   S    
C116  N5    A    
C54   O25   A    
O22   Zn12  S    
C105  C111  A    
O94   S8    D    
O31   Zn3   S    
C11   C59   S    
C130  C139  A    
C48   O27   A    
C1    O1    A    
O72   S1    D    
C95   H39   S    
C77   C90   S    
C113  N5    A    
C62   O46   S    
C15   C164  A    
C138  C142  A    
O8    Zn7   S    
C127  C155  A    
C129  C155  A    
C58   O37   A    
C117  O57   S    
C40   H32   S    
C60   O43   A    
O89   Zn6   S    
O75   S2    D    
C98   C107  A    
C108  C112  A    
C137  S6    S    
C56   O36   A    
O88   S6    D    
C12   C160  A    
C70   C83   S    
O10   Zn9   S    
C97   C106  A    
C63   N1    A    
C6    C164  A    
O80   S3    S    
C119  O59   S    
C41   H33   S    
C5    C163  A    
O56   Zn5   S    
O25   Zn3   S    
C52   O22   A    
C154  N6    S    
O33   Zn12  S    
C57   C65   A    
C6    C10   A    
C44   O10   A    
C14   N2    S    
C27   C36   D    
C159  H54   S    
C129  H51   S    
C19   C50   S    
C83   C158  A    
C31   H24   S    
C145  H12   S    
O43   Zn4   S    
C114  O45   A    
C3    C161  A    
C160  H55   S    
C133  C140  A    
C147  O8    A    
H75   O86   S    
O1    Zn1   S    
C66   C68   A    
C63   O47   S    
C64   O48   S    
C15   C162  A    
O21   Zn11  S    
C93   H37   S    
O93   S7    S    
C73   H65   S    
C106  C112  A    
C7    C11   A    
C98   H42   S    
C82   C110  A    
C114  O5    A    
O12   Zn1   S    
O37   Zn9   S    
C83   C96   A    
O3    Zn6   S    
C46   C69   A    
C85   C98   A    
C69   N4    A    
C155  N7    S    
C26   C34   D    
C40   C114  S    
C129  C138  A    
C49   O19   A    
C55   O26   A    
C37   H29   S    
O9    Zn8   S    
C137  C143  A    
C42   H35   S    
C139  C143  A    
C26   C144  S    
C65   O49   S    
C72   O64   D    
C22   C53   S    
C161  H57   S    
C76   O69   D    
C16   C163  A    
C78   C158  A    
O41   Zn2   S    
C9    C167  A    
C115  O54   S    
O26   Zn4   S    
C99   H43   S    
C103  O34   A    
C128  C137  A    
C116  O55   S    
C22   H15   S    
C117  N6    A    
C75   O68   D    
H71   O73   S    
C20   C148  D    
C164  H60   S    
C125  O56   A    
C8    C166  A    
C65   N3    A    
O24   Zn2   S    
C4    C10   A    
C95   C104  A    
C121  N8    A    
C71   C84   S    
C23   C151  D    
C88   C93   A    
C100  C113  A    
C33   C152  S    
C157  C166  A    
C47   O17   A    
C7    C165  A    
O81   S4    D    
C73   O65   D    
C92   O23   A    
C23   H16   S    
O20   Zn10  S    
C77   H70   S    
C32   C151  S    
C15   N3    S    
O7    Zn7   S    
O77   S3    D    
O78   Zn5   S    
C4    C162  A    
C73   C86   S    
C102  C116  A    
C75   C88   S    
C13   C61   A    
C50   O20   A    
C20   H13   S    
C17   H9    S    
C63   C158  A    
O30   Zn9   S    
C21   C52   S    
C156  N8    S    
C67   N3    A    
