data_mof_unit_65450.cif
_audit_creation_date              2012-12-10T17:04:20-0500
_audit_creation_method            fapswitch 2.2
_symmetry_space_group_name_H-M    P1
_symmetry_Int_Tables_number       1
_space_group_crystal_system       triclinic
_cell_length_a                    15.193483
_cell_length_b                    15.105428
_cell_length_c                    16.064202
_cell_angle_alpha                 89.259415
_cell_angle_beta                  90.391897
_cell_angle_gamma                 90.253855
_cell_volume                      3686.37066476

loop_
_atom_site_label
_atom_site_type_symbol
_atom_type_description
_atom_site_fract_x
_atom_site_fract_y
_atom_site_fract_z
_atom_type_partial_charge
Br1   Br    Br    0.513392 0.194055 0.705865 -0.372756
Br2   Br    Br    0.478380 0.022524 0.278941 -0.457403
Br3   Br    Br    0.502396 0.976649 0.723741 -0.401373
C1    C     C_R   0.260357 0.485350 0.488342 0.815730
C2    C     C_R   0.980918 0.497323 0.456548 0.056812
C3    C     C_R   0.018711 0.508529 0.538309 0.053520
C4    C     C_R   0.739560 0.514237 0.512141 0.812247
C5    C     C_R   0.110632 0.495553 0.549650 -0.077684
C6    C     C_R   0.128498 0.477618 0.400927 -0.231872
C7    C     C_R   0.038382 0.483621 0.387894 -0.009802
C8    C     C_R   0.508455 0.163620 0.526690 -0.164938
C9    C     C_R   0.480858 0.835626 0.475795 -0.114040
C10   C     C_R   0.482797 0.968680 0.389015 0.251643
C11   C     C_R   0.478210 0.876173 0.396410 -0.090623
C12   C     C_1   0.479431 0.520145 0.885884 -0.004021
C13   C     C_R   0.485856 0.886667 0.547211 -0.193875
C14   C     C_R   0.492555 0.978989 0.541507 0.003330
C15   C     C_R   0.491414 0.020233 0.461544 0.050286
C16   C     C_R   0.511058 0.259881 0.515248 0.869677
C17   C     C_R   0.499240 0.112218 0.455716 -0.240909
C18   C     C_R   0.509043 0.123332 0.606423 0.232897
C19   C     C_R   0.501427 0.030776 0.613891 0.243673
C20   C     C_R   0.486157 0.739608 0.485069 0.811100
C21   C     C_R   0.512924 0.488502 0.277497 0.824402
C22   C     C_R   0.487451 0.511135 0.722506 0.830067
C23   C     C_1   0.522968 0.478841 0.114271 -0.007110
C24   C     C_1   0.518609 0.483297 0.188863 -0.090932
C25   C     C_2   0.527304 0.473935 0.024757 -0.050848
C26   C     C_2   0.475390 0.525140 0.975401 -0.046868
C27   C     C_1   0.413624 0.587209 0.009873 0.238213
C28   C     C_1   0.469492 0.822916 0.322413 0.285504
C29   C     C_1   0.589077 0.411869 0.990308 0.247574
C30   C     C_1   0.150609 0.484931 0.631595 0.205995
C31   C     C_1   0.994059 0.560779 0.686100 0.194688
C32   C     C_1   0.010550 0.481278 0.301666 0.193915
C33   C     C_1   0.842526 0.475781 0.370878 0.192248
C34   C     C_1   0.483099 0.515856 0.811244 -0.084019
C35   C     C_R   0.164588 0.483756 0.480216 -0.070316
C36   C     C_R   0.835162 0.517527 0.516881 -0.059374
C37   C     C_R   0.962913 0.532439 0.605360 -0.007694
C38   C     C_R   0.872692 0.535202 0.593750 -0.227457
C39   C     C_R   0.887529 0.499434 0.447538 -0.081631
H1    H     H_    0.488123 0.852674 0.606841 0.198751
H2    H     H_    0.171820 0.470127 0.347988 0.169522
H3    H     H_    0.830453 0.551660 0.645568 0.157576
H4    H     H_    0.498712 0.145531 0.395732 0.217648
N1    N     N_1   0.364249 0.636844 0.037460 -0.155793
N2    N     N_1   0.462519 0.780255 0.263376 -0.155992
N3    N     N_1   0.638460 0.362235 0.962734 -0.134934
N4    N     N_1   0.183295 0.475924 0.696458 -0.157152
N5    N     N_1   0.018070 0.583904 0.750854 -0.150414
N6    N     N_1   0.989452 0.479495 0.232316 -0.151440
N7    N     N_1   0.805506 0.456852 0.310385 -0.166890
O1    O     O_3   0.500000 0.500000 0.500000 -0.508749
O2    O     O_R   0.461330 0.435620 0.316920 -0.631648
O3    O     O_R   0.434750 0.558200 0.677930 -0.627506
O4    O     O_R   0.559650 0.545720 0.316320 -0.625536
O5    O     O_R   0.544270 0.460460 0.688830 -0.615477
O6    O     O_R   0.559890 0.307360 0.561630 -0.599650
O7    O     O_R   0.434610 0.697530 0.534530 -0.630298
O8    O     O_R   0.307380 0.433810 0.444990 -0.637331
O9    O     O_R   0.698130 0.561300 0.458860 -0.630755
O10   O     O_R   0.296270 0.542620 0.535390 -0.631166
O11   O     O_R   0.698230 0.462280 0.560770 -0.634447
O12   O     O_R   0.461480 0.296280 0.460320 -0.637911
O13   O     O_R   0.544020 0.698820 0.443520 -0.635280
Zn1   Zn    Zn3+2 0.574310 0.433680 0.576480 1.031004
Zn2   Zn    Zn3+2 0.433700 0.417860 0.431740 1.004878
Zn3   Zn    Zn3+2 0.574160 0.575160 0.430870 1.003820
Zn4   Zn    Zn3+2 0.417840 0.573310 0.560900 1.007192

loop_
_geom_bond_atom_site_label_1
_geom_bond_atom_site_label_2
_ccdc_geom_bond_type
C3    C5    A    
C2    C39   A    
O10   Zn4   S    
C4    O9    A    
Br1   C18   S    
C26   C27   S    
O1    Zn1   S    
C6    C7    A    
C27   N1    T    
C16   O12   A    
C33   C39   S    
C14   C19   A    
O1    Zn4   S    
C22   O3    A    
O7    Zn4   S    
C11   C28   S    
C28   N2    T    
C21   C24   S    
O4    Zn3   S    
O12   Zn2   S    
C14   C15   A    
C23   C24   T    
C2    C7    A    
C36   C38   A    
C10   C11   A    
C4    C36   S    
C21   O2    A    
O8    Zn2   S    
C8    C16   S    
C31   N5    T    
C2    C3    A    
O1    Zn3   S    
C5    C35   A    
C10   C15   A    
C31   C37   S    
C1    O8    A    
C20   O13   A    
C1    O10   A    
C37   C38   A    
C1    C35   S    
C12   C26   S    
C36   C39   A    
O3    Zn4   S    
C5    C30   S    
C20   O7    A    
C29   N3    T    
C7    C32   S    
C3    C37   A    
C4    O11   A    
C13   H1    S    
O13   Zn3   S    
O1    Zn2   S    
C22   O5    A    
C9    C11   A    
O11   Zn1   S    
C17   H4    S    
O5    Zn1   S    
C25   C29   S    
C6    C35   A    
C15   C17   A    
C16   O6    A    
C21   O4    A    
C32   N6    T    
Br2   C10   S    
C38   H3    S    
C25   C26   D    
C6    H2    S    
C9    C20   S    
C33   N7    T    
Br3   C19   S    
O6    Zn1   S    
C30   N4    T    
C18   C19   A    
C23   C25   S    
C8    C17   A    
C8    C18   A    
C12   C34   T    
C9    C13   A    
O9    Zn3   S    
C22   C34   S    
C13   C14   A    
O2    Zn2   S    
