data_mof_unit_46800.cif
_audit_creation_date              2012-10-26T19:21:56-0400
_audit_creation_method            fapswitch 2.2
_symmetry_space_group_name_H-M    P1
_symmetry_Int_Tables_number       1
_space_group_crystal_system       triclinic
_cell_length_a                    23.529596
_cell_length_b                    11.057143
_cell_length_c                    10.009052
_cell_angle_alpha                 113.042282
_cell_angle_beta                  98.17773
_cell_angle_gamma                 91.617583
_cell_volume                      2361.84363673

loop_
_atom_site_label
_atom_site_type_symbol
_atom_type_description
_atom_site_fract_x
_atom_site_fract_y
_atom_site_fract_z
_atom_type_partial_charge
C1    C     C_R   0.497154 0.253623 0.438689 0.530102
C2    C     C_R   0.709778 0.516239 0.624992 -0.093026
C3    C     C_R   0.247130 0.480830 0.620478 0.284759
C4    C     C_R   0.769064 0.516946 0.626022 0.284594
C5    C     C_R   0.209273 0.494826 0.504876 0.249834
C6    C     C_R   0.791003 0.504502 0.496832 0.251111
C7    C     C_2   0.490058 0.112348 0.403502 -0.118746
C8    C     C_2   0.509761 0.887644 0.596486 -0.117804
C9    C     C_2   0.514531 0.060593 0.497801 0.015024
C10   C     C_2   0.485308 0.939257 0.502022 0.015144
C11   C     C_2   0.508474 0.498912 0.077500 0.357636
C12   C     C_R   0.502794 0.746366 0.561306 0.530939
C13   C     C_2   0.491644 0.500729 0.922377 0.360304
C14   C     C_R   0.391172 0.499645 0.500846 0.538257
C15   C     C_R   0.608870 0.500509 0.499194 0.538693
C16   C     C_R   0.885590 0.619696 0.549475 0.383598
C17   C     C_R   0.114113 0.379657 0.440870 0.380713
C18   C     C_R   0.875035 0.384693 0.447682 0.382451
C19   C     C_R   0.126694 0.612329 0.579437 0.383511
C20   C     C_R   0.934543 0.380217 0.443144 0.013915
C21   C     C_R   0.066689 0.617866 0.575193 0.013551
C22   C     C_R   0.970647 0.499907 0.511250 -0.092654
C23   C     C_R   0.231550 0.510073 0.387694 0.033372
C24   C     C_R   0.030883 0.497687 0.514346 -0.093780
C25   C     C_R   0.946385 0.621681 0.574421 -0.008176
C26   C     C_R   0.055260 0.375458 0.455382 -0.008378
C27   C     C_R   0.959186 0.259212 0.381461 0.245454
C28   C     C_R   0.042038 0.738997 0.637163 0.242998
C29   C     C_R   0.019264 0.255387 0.406525 0.054439
C30   C     C_R   0.983719 0.739626 0.654133 0.053016
C31   C     C_3   0.575050 0.646482 0.957535 -0.110110
C32   C     C_3   0.591794 0.759869 0.915834 -0.376364
C33   C     C_3   0.424998 0.353349 0.042450 -0.107880
C34   C     C_R   0.752752 0.491860 0.368533 0.030238
C35   C     C_3   0.408219 0.240083 0.084319 -0.375672
C36   C     C_3   0.042139 0.122447 0.386923 -0.220884
C37   C     C_3   0.018659 0.063918 0.486126 -0.408248
C38   C     C_3   0.964763 0.866012 0.764610 -0.215363
C39   C     C_3   0.998218 0.903940 0.920445 -0.415590
C40   C     C_3   0.193181 0.528235 0.263186 -0.258389
C41   C     C_3   0.190211 0.408379 0.117931 -0.404059
C42   C     C_3   0.773874 0.479249 0.228014 -0.254577
C43   C     C_3   0.765082 0.602720 0.197013 -0.418034
C44   C     C_3   0.425733 0.880003 0.409385 -0.258310
C45   C     C_R   0.291125 0.511411 0.387909 -0.155231
C46   C     C_3   0.378798 0.970174 0.467467 -0.438854
C47   C     C_3   0.574171 0.119604 0.590159 -0.258520
C48   C     C_3   0.620987 0.029109 0.531903 -0.438683
C49   C     C_R   0.693293 0.489601 0.370400 -0.149728
C50   C     C_R   0.328668 0.498340 0.502418 -0.065696
C51   C     C_R   0.671469 0.501979 0.497931 -0.066017
C52   C     C_R   0.306227 0.483453 0.617973 -0.083945
Cu1   Cu    Cu3+1 0.509980 0.521810 0.644910 0.936550
Cu2   Cu    Cu3+1 0.490020 0.478190 0.355090 0.934922
H1    H     H_    0.308244 0.524713 0.299105 0.139035
H2    H     H_    0.555559 0.822399 0.917959 0.160514
H3    H     H_    0.627796 0.824334 0.000821 0.095530
H4    H     H_    0.564552 0.703981 0.068285 0.135714
H5    H     H_    0.613163 0.590599 0.963941 0.157263
H6    H     H_    0.444433 0.177513 0.082275 0.159656
H7    H     H_    0.391617 0.272472 0.189177 0.191937
H8    H     H_    0.372224 0.175579 0.999342 0.100565
H9    H     H_    0.386877 0.409141 0.035800 0.168455
H10   H     H_    0.435564 0.295692 0.931813 0.135711
H11   H     H_    0.029840 0.133854 0.603368 0.158046
H12   H     H_    0.664081 0.477979 0.271390 0.181320
H13   H     H_    0.971267 0.040299 0.457336 0.223672
H14   H     H_    0.038311 0.970672 0.472713 0.140859
H15   H     H_    0.030494 0.052186 0.269965 0.172858
H16   H     H_    0.089307 0.129054 0.418422 0.197329
H17   H     H_    0.994125 0.820474 0.954973 0.151475
H18   H     H_    0.044521 0.931971 0.927857 0.221500
H19   H     H_    0.980182 0.990104 0.998684 0.149369
H20   H     H_    0.970763 0.948153 0.728805 0.177787
H21   H     H_    0.919328 0.857221 0.777514 0.200978
H22   H     H_    0.233523 0.393720 0.085403 0.160887
H23   H     H_    0.334576 0.472539 0.706865 0.194329
H24   H     H_    0.173215 0.318191 0.128048 0.205944
H25   H     H_    0.160952 0.423869 0.029820 0.153004
H26   H     H_    0.148605 0.544867 0.285716 0.163646
H27   H     H_    0.210383 0.617386 0.251045 0.148261
H28   H     H_    0.718567 0.618034 0.181242 0.148338
H29   H     H_    0.788710 0.690804 0.289713 0.204011
H30   H     H_    0.781899 0.591460 0.094973 0.176520
H31   H     H_    0.820269 0.462927 0.232546 0.170702
H32   H     H_    0.749991 0.392039 0.134438 0.149823
H33   H     H_    0.185962 0.462185 0.726328 0.340894
H34   H     H_    0.693760 0.525903 0.724655 0.151212
H35   H     H_    0.844506 0.524696 0.741634 0.341757
H36   H     H_    0.377473 0.985673 0.583530 0.159695
H37   H     H_    0.386015 0.067625 0.462386 0.151075
H38   H     H_    0.336197 0.923006 0.400239 0.152536
H39   H     H_    0.426134 0.858791 0.291623 0.142781
H40   H     H_    0.411923 0.784596 0.412411 0.175390
H41   H     H_    0.613663 0.931680 0.536961 0.149719
H42   H     H_    0.622291 0.013582 0.415823 0.158629
H43   H     H_    0.663633 0.076013 0.599035 0.158090
H44   H     H_    0.588041 0.214904 0.586965 0.177105
H45   H     H_    0.543838 0.942641 0.687300 0.082015
H46   H     H_    0.573841 0.140962 0.707982 0.139133
H47   H     H_    0.440773 0.380072 0.754655 0.342749
H48   H     H_    0.559493 0.619361 0.245136 0.345440
H49   H     H_    0.455909 0.057503 0.312818 0.083558
H50   H     H_    0.896814 0.161598 0.225248 0.350796
H51   H     H_    0.095153 0.854024 0.601884 0.346517
H52   H     H_    0.608363 0.727582 0.810936 0.190197
N1    N     N_R   0.852007 0.502942 0.496290 -0.413575
N2    N     N_R   0.148426 0.495584 0.508108 -0.413794
N3    N     N_2   0.475010 0.445410 0.137370 -0.205474
N4    N     N_2   0.524990 0.554590 0.862630 -0.203769
O1    O     O_R   0.505330 0.332340 0.577400 -0.517037
O2    O     O_2   0.136668 0.271573 0.354469 -0.525212
O3    O     O_2   0.840289 0.272726 0.407070 -0.465753
O4    O     O_2   0.163505 0.721459 0.655523 -0.463299
O5    O     O_3   0.925845 0.142635 0.294849 -0.684220
O6    O     O_3   0.073675 0.859092 0.681941 -0.687590
O7    O     O_3   0.228479 0.464928 0.737942 -0.696575
O8    O     O_3   0.803693 0.529118 0.755135 -0.703782
O9    O     O_3   0.436745 0.454559 0.847274 -0.742355
O10   O     O_3   0.563437 0.544793 0.152495 -0.750131
O11   O     O_R   0.494670 0.667660 0.422600 -0.516501
O12   O     O_R   0.488470 0.295500 0.332650 -0.500964
O13   O     O_R   0.511530 0.704500 0.667350 -0.499785
O14   O     O_R   0.426310 0.518390 0.622390 -0.461117
O15   O     O_R   0.573690 0.481610 0.377610 -0.459727
O16   O     O_R   0.409450 0.481550 0.377650 -0.517735
O17   O     O_R   0.590550 0.518450 0.622350 -0.522427
O18   O     O_2   0.859737 0.731392 0.570523 -0.515906

loop_
_geom_bond_atom_site_label_1
_geom_bond_atom_site_label_2
_ccdc_geom_bond_type
Cu1   N4    S    
C23   C45   A    
C48   H41   S    
C27   C29   A    
C43   H29   S    
H51   O6    S    
C34   C42   S    
Cu1   Cu2   S    
C48   H43   S    
Cu2   O16   S    
C29   C36   S    
C47   H44   S    
C17   C26   A    
C31   H4    S    
C36   C37   S    
C19   C21   A    
C8    H45   S    
C24   C26   A    
H33   O7    S    
C38   C39   S    
C46   H38   S    
C23   C40   S    
C37   H14   S    
C16   C25   A    
C30   C38   S    
C31   H5    S    
C1    O12   A    
C44   H39   S    
Cu1   O17   S    
C16   N1    A    
C18   N1    A    
C12   O11   A    
C31   C32   S    
C36   H16   S    
C49   C51   A    
C22   C25   A    
C37   H11   S    
C50   C52   A    
C39   H18   S    
C40   H26   S    
C2    H34   S    
C42   H32   S    
C15   C51   S    
C28   O6    S    
C9    C10   S    
C33   H9    S    
C19   N2    A    
Cu1   O1    S    
Cu2   O12   S    
C6    N1    S    
C7    H49   S    
C43   H30   S    
C4    O8    S    
C32   H3    S    
C11   O10   S    
C18   O3    S    
C13   O9    S    
C44   C46   S    
C38   H21   S    
Cu2   O15   S    
C14   O14   A    
C49   H12   S    
C10   C44   S    
H47   O9    S    
C15   O17   A    
C4    C6    A    
Cu1   O13   S    
C17   N2    A    
C41   H24   S    
C46   H37   S    
C19   O4    S    
C47   H46   S    
C6    C34   A    
Cu2   N3    S    
C35   H6    S    
C2    C4    A    
C13   N4    D    
H50   O5    S    
C47   C48   S    
C5    C23   A    
C8    C12   S    
C35   H7    S    
C42   H31   S    
C16   O18   S    
C40   C41   S    
Cu2   O11   S    
C20   C22   A    
C9    C47   S    
C22   C24   A    
C33   N3    S    
C42   C43   S    
C52   H23   S    
C17   O2    S    
C11   N3    D    
H48   O10   S    
C36   H15   S    
C38   H20   S    
C25   C30   A    
C7    C9    D    
C34   C49   A    
C48   H42   S    
C1    C7    S    
C40   H27   S    
C21   C28   A    
C3    C5    A    
Cu1   O14   S    
C41   H25   S    
C3    C52   A    
C46   H36   S    
C20   C27   A    
C14   O16   A    
C28   C30   A    
C1    O1    A    
C41   H22   S    
C11   C13   S    
C14   C50   S    
C12   O13   A    
C45   C50   A    
C33   H10   S    
C37   H13   S    
C33   C35   S    
C31   N4    S    
C35   H8    S    
C18   C20   A    
C39   H19   S    
C44   H40   S    
C2    C51   A    
H35   O8    S    
C45   H1    S    
C26   C29   A    
C8    C10   D    
C15   O15   A    
C21   C24   A    
C43   H28   S    
C39   H17   S    
C32   H52   S    
C3    O7    S    
C32   H2    S    
C5    N2    S    
C27   O5    S    
