data_mof_unit_20516.cif
_audit_creation_date              2013-03-05T15:45:31-0500
_audit_creation_method            fapswitch 2.2
_symmetry_space_group_name_H-M    P1
_symmetry_Int_Tables_number       1
_space_group_crystal_system       triclinic
_cell_length_a                    10.92519
_cell_length_b                    10.903977
_cell_length_c                    18.836669
_cell_angle_alpha                 90.071675
_cell_angle_beta                  89.692059
_cell_angle_gamma                 60.184474
_cell_volume                      1946.89376996

loop_
_atom_site_label
_atom_site_type_symbol
_atom_site_description
_atom_site_fract_x
_atom_site_fract_y
_atom_site_fract_z
_atom_type_partial_charge
O1    O     O_R   0.507430 0.255570 0.581420 -0.505147
O2    O     O_R   0.280190 0.527390 0.578910 -0.495926
C1    C     C_R   0.233348 0.647855 0.608839 0.607548
O3    O     O_R   0.260310 0.739740 0.584580 -0.504447
O4    O     O_R   0.532250 0.695150 0.573830 -0.505544
C2    C     C_R   0.650615 0.616397 0.603666 0.626522
O5    O     O_R   0.744930 0.503430 0.576380 -0.429785
O6    O     O_R   0.699250 0.276390 0.571950 -0.481053
C3    C     C_R   0.626195 0.231363 0.604058 0.562015
O7    O     O_R   0.499020 0.256400 0.419850 -0.468326
O8    O     O_R   0.272400 0.528160 0.429140 -0.526935
C4    C     C_R   0.220237 0.649019 0.402074 0.583291
O9    O     O_R   0.251910 0.740570 0.423020 -0.445930
O10   O     O_R   0.524460 0.695920 0.424060 -0.481553
C5    C     C_R   0.641683 0.624189 0.392592 0.568034
O11   O     O_R   0.736530 0.504260 0.414810 -0.516113
O12   O     O_R   0.691460 0.277160 0.422180 -0.506017
C6    C     C_R   0.619357 0.226496 0.395717 0.588082
Cr1   Cr    Cr6+3 0.392930 0.397900 0.502230 1.107641
Cr2   Cr    Cr6+3 0.398240 0.708600 0.501260 1.127745
Cr3   Cr    Cr6+3 0.708800 0.393470 0.496460 1.128666
O13   O     O_3   0.499990 0.499990 0.499980 -0.305351
C7    C     C_3   0.532194 0.732489 0.798211 0.527205
C8    C     C_3   0.519193 0.704719 0.718272 0.188839
H1    H     H_    0.444122 0.805566 0.691868 0.154925
H2    H     H_    0.726428 0.845971 0.787531 0.143265
H3    H     H_    0.649522 0.843556 0.674524 0.153829
C9    C     C_3   0.761973 0.735719 0.770180 -0.239336
C10   C     C_3   0.766291 0.506092 0.797313 -0.244970
C11   C     C_3   0.692719 0.666463 0.815941 -0.051803
H4    H     H_    0.877893 0.448776 0.815114 0.186490
H5    H     H_    0.713618 0.455226 0.825704 0.172106
C12   C     C_3   0.666859 0.635760 0.680276 -0.005423
C13   C     C_3   0.728594 0.734655 0.691115 0.195220
C14   C     C_3   0.760763 0.487012 0.717008 0.096427
H6    H     H_    0.708259 0.423107 0.708575 0.169147
H7    H     H_    0.878145 0.676740 0.777825 0.190488
C15   C     C_R   0.789570 0.131588 0.707740 -0.121682
H8    H     H_    0.881415 0.092700 0.673578 0.171847
C16   C     C_R   0.806280 0.116357 0.781326 -0.148244
H9    H     H_    0.911123 0.062131 0.803112 0.132526
C17   C     C_R   0.687640 0.162248 0.825784 0.015921
C18   C     C_R   0.552698 0.231778 0.796651 -0.060085
H10   H     H_    0.459392 0.267846 0.829693 0.160125
C19   C     C_R   0.536664 0.243505 0.724167 -0.065724
H11   H     H_    0.431335 0.292092 0.703463 0.147230
C20   C     C_R   0.653982 0.193845 0.678882 0.023292
C21   C     C_R   0.190909 0.554743 0.720635 -0.047472
H12   H     H_    0.210645 0.459304 0.693660 0.178972
C22   C     C_R   0.178488 0.562136 0.794333 -0.122672
H13   H     H_    0.180399 0.475141 0.822977 0.146774
C23   C     C_R   0.160649 0.682769 0.830166 0.062820
C24   C     C_R   0.154802 0.795080 0.791272 -0.054217
H14   H     H_    0.141847 0.889442 0.817156 0.175315
C25   C     C_R   0.159232 0.790633 0.718110 -0.083466
H15   H     H_    0.154153 0.879849 0.690202 0.146962
C26   C     C_R   0.182454 0.668255 0.682084 0.104443
C27   C     C_R   0.783860 0.614931 0.290054 -0.137279
H16   H     H_    0.878832 0.564289 0.321727 0.161859
C28   C     C_R   0.794855 0.624481 0.217767 -0.174422
H17   H     H_    0.899622 0.585045 0.195679 0.168786
C29   C     C_R   0.674075 0.682731 0.174386 -0.000766
C30   C     C_R   0.538885 0.739895 0.205115 0.180326
C31   C     C_R   0.529209 0.730633 0.278734 -0.067470
H18   H     H_    0.426438 0.766283 0.302621 0.190370
C32   C     C_R   0.651723 0.664589 0.320617 0.018670
C33   C     C_R   0.587463 0.100543 0.294534 0.192204
C34   C     C_R   0.585028 0.091704 0.221278 -0.076438
H19   H     H_    0.534000 0.038024 0.197812 0.192275
C35   C     C_R   0.655508 0.142795 0.178676 0.007747
C36   C     C_R   0.731900 0.200015 0.209128 -0.148260
H20   H     H_    0.791084 0.234610 0.176600 0.162204
C37   C     C_R   0.732715 0.212182 0.281948 -0.129827
H21   H     H_    0.786386 0.264254 0.304132 0.179213
C38   C     C_R   0.656355 0.167752 0.324874 0.041064
C39   C     C_R   0.076705 0.797978 0.304686 0.374011
C40   C     C_R   0.055248 0.809976 0.232726 -0.100682
H22   H     H_    0.992761 0.915241 0.211111 0.179036
C41   C     C_R   0.115979 0.688912 0.188840 -0.032155
C42   C     C_R   0.186866 0.553030 0.218179 0.154512
C43   C     C_R   0.204320 0.541979 0.291188 -0.188773
H23   H     H_    0.267217 0.437484 0.313621 0.196342
C44   C     C_R   0.157391 0.664233 0.333495 -0.011153
O14   O     O_R   0.089490 0.825610 0.930610 -0.484021
O15   O     O_R   0.818370 0.054540 0.929880 -0.512956
C45   C     C_R   0.701814 0.103662 0.896646 0.539887
O16   O     O_R   0.605870 0.077310 0.915530 -0.481302
O17   O     O_R   0.646440 0.806700 0.917570 -0.441143
C46   C     C_R   0.718792 0.684166 0.890725 0.590273
O18   O     O_R   0.837200 0.593290 0.915250 -0.535995
O19   O     O_R   0.065330 0.635370 0.931590 -0.507551
C47   C     C_R   0.114285 0.708908 0.904135 0.574941
O20   O     O_R   0.068300 0.828790 0.091860 -0.471580
O21   O     O_R   0.798730 0.057480 0.079370 -0.521460
C48   C     C_R   0.675426 0.104179 0.104858 0.561696
O22   O     O_R   0.584680 0.080480 0.076790 -0.475667
O23   O     O_R   0.626790 0.809640 0.067050 -0.460374
C49   C     C_R   0.698859 0.692289 0.099286 0.587371
O24   O     O_R   0.816010 0.596460 0.076500 -0.516864
O25   O     O_R   0.045680 0.638310 0.081070 -0.474685
C50   C     C_R   0.086833 0.712656 0.114355 0.616597
Cr4   Cr    Cr6+3 0.937620 0.938540 0.007640 1.090706
Cr5   Cr    Cr6+3 0.625150 0.937450 0.994520 1.160114
Cr6   Cr    Cr6+3 0.937990 0.625080 0.001190 1.085020
O26   O     O_3   0.833590 0.833690 0.001120 -0.317213
N1    N     N_R   0.450402 0.885163 0.814049 0.083752
O27   O     O_R   0.465215 0.976629 0.776073 -0.426086
O28   O     O_R   0.355252 0.931427 0.864194 -0.256814
N2    N     N_R   0.904788 0.405719 0.687769 0.122387
O29   O     O_R   0.998652 0.442086 0.701368 -0.317143
O30   O     O_R   0.945234 0.285490 0.656019 -0.335938
F1    F     F_    0.847963 0.694543 0.649749 -0.592329
F2    F     F_    0.477336 0.664759 0.839169 -0.574842
N3    N     N_R   0.412835 0.800006 0.163023 0.081924
O31   O     O_R   0.412511 0.746722 0.101217 -0.288482
O32   O     O_R   0.293863 0.897808 0.189752 -0.284954
N4    N     N_R   0.519311 0.042360 0.337174 0.080535
O33   O     O_R   0.403753 0.048008 0.315463 -0.282485
O34   O     O_R   0.577411 0.975257 0.395525 -0.318061
F3    F     F_    0.025355 0.916528 0.345389 -0.595503
F4    F     F_    0.464284 0.614863 0.711835 -0.646369
N5    N     N_R   0.248404 0.427160 0.175103 0.085612
O35   O     O_R   0.315090 0.420974 0.116564 -0.300128
O36   O     O_R   0.253223 0.312708 0.198647 -0.298755

loop_
_geom_bond_atom_site_label_1
_geom_bond_atom_site_label_2
_geom_bond_distance
_ccdc_geom_bond_type
C25   H15   1.083383 S    
C6    C38   1.445335 S    
O14   Cr4   2.076676 S    
C37   H21   1.083498 S    
C24   C25   1.378656 A    
C48   O22   1.260664 A    
O19   Cr6   1.950092 S    
C43   H23   1.083856 S    
C21   C26   1.398973 A    
O4    Cr2   1.960146 S    
C42   N5    1.437999 S    
C24   H14   1.081488 S    
C4    O9    1.271192 A    
O8    Cr1   1.952276 S    
C29   C30   1.406935 A    
C10   H5    1.113371 S    
N4    O34   1.301555 A    
O15   C45   1.277300 A    
C15   H8    1.081671 S    
N1    O27   1.301409 A    
C27   C28   1.374925 A    
C5    O11   1.271814 A    
O23   C49   1.277188 A    
O25   Cr6   1.963758 S    
C13   F1    1.385726 S    
Cr4   O26   1.976664 S    
C28   C29   1.411308 A    
C19   C20   1.400199 A    
C8    F4    1.385469 S    
C29   C49   1.452476 S    
C30   N3    1.438796 S    
C27   C32   1.386225 A    
C14   H6    1.112658 S    
C34   H19   1.084100 S    
C22   C23   1.401865 A    
C7    C8    1.556672 S    
C35   C36   1.391740 A    
C17   C45   1.455927 S    
C14   N2    1.472223 S    
C16   C17   1.405020 A    
O24   Cr6   2.068840 S    
C9    C13   1.536607 S    
Cr3   O13   1.980155 S    
C37   C38   1.407155 A    
C11   C46   1.470069 S    
C39   C44   1.388195 A    
Cr6   O26   1.973612 S    
C43   C44   1.410064 A    
C12   C13   1.543896 S    
C40   C41   1.409465 A    
H3    C13   1.112541 S    
O1    Cr1   2.072150 S    
C33   C34   1.384473 A    
C7    C11   1.567446 S    
O10   Cr2   1.955430 S    
Cr1   O13   1.975707 S    
O1    C3    1.265206 A    
C8    H1    1.112711 S    
O20   C50   1.253559 A    
O19   C47   1.273188 A    
C36   C37   1.378432 A    
C45   O16   1.266330 A    
O6    C3    1.276365 A    
C22   H13   1.083092 S    
C27   H16   1.084058 S    
C40   H22   1.083611 S    
C5    C32   1.446438 S    
O12   Cr3   1.959432 S    
C30   C31   1.397785 A    
C4    C44   1.436847 S    
C28   H17   1.083101 S    
C31   C32   1.409550 A    
C18   H10   1.084013 S    
C10   C11   1.557182 S    
C7    F2    1.391561 S    
C33   N4    1.437567 S    
O7    Cr1   2.080456 S    
O12   C6    1.269045 A    
Cr5   O26   1.980574 S    
C39   F3    1.358425 S    
C39   C40   1.372146 A    
C21   C22   1.392440 A    
C18   C19   1.375498 A    
O18   Cr6   2.085812 S    
C15   C20   1.400091 A    
O23   Cr5   1.946615 S    
O16   Cr5   2.067261 S    
C1    C26   1.459520 S    
C21   H12   1.077978 S    
Cr2   O13   1.973716 S    
C3    C20   1.458966 S    
C25   C26   1.401695 A    
C23   C47   1.458450 S    
C33   C38   1.407929 A    
C17   C18   1.395587 A    
N5    O36   1.301233 A    
C1    O3    1.261973 A    
O17   Cr5   1.961923 S    
C23   C24   1.401962 A    
C16   H9    1.078063 S    
O9    Cr2   2.078882 S    
O2    Cr1   1.960450 S    
C42   C43   1.386563 A    
O6    Cr3   1.948878 S    
O20   Cr4   2.077807 S    
N3    O32   1.301331 A    
O8    C4    1.256735 A    
O11   Cr3   2.068874 S    
N3    O31   1.301303 A    
C2    O5    1.254507 A    
C10   C14   1.532263 S    
H2    C9    1.111884 S    
C8    C12   1.568522 S    
C2    C12   1.482485 S    
C31   H18   1.083675 S    
N2    O30   1.300275 A    
C35   C48   1.436053 S    
N5    O35   1.301382 A    
C36   H20   1.083831 S    
C10   H4    1.112119 S    
O5    Cr3   2.081403 S    
N4    O33   1.301237 A    
C15   C16   1.398339 A    
C7    N1    1.474957 S    
O4    C2    1.276829 A    
N1    O28   1.301554 A    
C9    H7    1.111627 S    
O7    C6    1.268203 A    
C9    C11   1.564787 S    
O25   C50   1.271475 A    
C12   C14   1.586719 S    
O2    C1    1.277390 A    
O21   C48   1.270763 A    
C41   C42   1.402176 A    
O3    Cr2   2.076957 S    
C19   H11   1.075204 S    
O17   C46   1.268647 A    
O21   Cr4   1.956203 S    
C34   C35   1.402950 A    
C49   O24   1.255889 A    
O22   Cr5   2.080927 S    
O10   C5    1.264061 A    
C41   C50   1.435511 S    
O14   C47   1.263153 A    
C46   O18   1.265565 A    
N2    O29   1.296700 A    
O15   Cr4   1.956821 S    
