data_mof_unit_19429.cif
_audit_creation_date              2012-12-10T20:31:04-0500
_audit_creation_method            fapswitch 2.2
_symmetry_space_group_name_H-M    P1
_symmetry_Int_Tables_number       1
_space_group_crystal_system       triclinic
_cell_length_a                    14.889871
_cell_length_b                    10.717742
_cell_length_c                    9.97128
_cell_angle_alpha                 89.902715
_cell_angle_beta                  89.990758
_cell_angle_gamma                 89.91135
_cell_volume                      1591.27043529

loop_
_atom_site_label
_atom_site_type_symbol
_atom_type_description
_atom_site_fract_x
_atom_site_fract_y
_atom_site_fract_z
_atom_type_partial_charge
C1    C     C_R   0.503283 0.260666 0.499496 0.934131
C2    C     C_R   0.907539 0.611501 0.537901 0.072112
C3    C     C_R   0.952735 0.278062 0.440702 -0.086779
C4    C     C_R   0.047261 0.281031 0.428762 -0.060920
C5    C     C_R   0.094114 0.390561 0.465453 0.025902
C6    C     C_R   0.047361 0.497498 0.511841 0.070648
C7    C     C_R   0.094477 0.604203 0.558779 0.099575
C8    C     C_R   0.047108 0.709769 0.605726 -0.163605
C9    C     C_R   0.954488 0.713783 0.589823 -0.218830
C10   C     C_R   0.187402 0.396568 0.456265 -0.147093
C11   C     C_R   0.232309 0.501266 0.501278 -0.037822
C12   C     C_R   0.327462 0.501087 0.500095 0.871476
C13   C     C_R   0.187728 0.603423 0.553891 -0.226547
C14   C     C_R   0.448958 0.065146 0.585973 0.129052
C15   C     C_R   0.503874 0.128357 0.495544 -0.139065
C16   C     C_R   0.547486 0.061661 0.390791 -0.072529
C17   C     C_R   0.541785 0.932330 0.391830 -0.152119
C18   C     C_R   0.498577 0.870867 0.497257 -0.107104
C19   C     C_R   0.449487 0.938195 0.590509 -0.089891
C20   C     C_3   0.441315 0.933942 0.740619 -0.151916
C21   C     C_3   0.436880 0.076505 0.734263 -0.481241
C22   C     C_R   0.422743 0.480146 0.070443 0.131241
C23   C     C_R   0.499149 0.739196 0.499869 0.932274
C24   C     C_R   0.573500 0.537418 0.072003 -0.048838
C25   C     C_R   0.574709 0.532819 0.929118 -0.026172
C26   C     C_R   0.422114 0.483114 0.929082 0.095685
C27   C     C_3   0.359278 0.374814 0.922512 -0.323830
C28   C     C_3   0.359798 0.371703 0.075949 -0.342358
C29   C     C_R   0.672658 0.501696 0.499890 0.973236
C30   C     C_R   0.814423 0.617580 0.520262 -0.089228
C31   C     C_R   0.768308 0.505260 0.500272 -0.135270
C32   C     C_R   0.812975 0.393018 0.480590 -0.248683
C33   C     C_R   0.906396 0.388759 0.476899 0.038081
C34   C     C_R   0.953807 0.498911 0.509188 0.057628
H1    H     H_    0.577092 0.879380 0.315991 0.243423
H2    H     H_    0.369525 0.115492 0.757722 0.252945
H3    H     H_    0.493887 0.125124 0.783875 0.190295
H4    H     H_    0.390839 0.293087 0.873648 0.178424
H5    H     H_    0.294614 0.396773 0.123738 0.190887
H6    H     H_    0.773388 0.310259 0.464211 0.175617
H7    H     H_    0.226709 0.319869 0.416750 0.175225
H8    H     H_    0.226713 0.683448 0.585001 0.135955
H9    H     H_    0.918321 0.794674 0.626270 0.174581
N1    N     N_R   0.499390 0.499140 0.142800 -0.134070
N2    N     N_R   0.499390 0.499180 0.857150 -0.150660
O1    O     O_R   0.500010 0.316790 0.614690 -0.634966
O2    O     O_R   0.500000 0.316760 0.385350 -0.599091
O3    O     O_R   0.367850 0.499990 0.614680 -0.620275
O4    O     O_R   0.367840 0.499950 0.385340 -0.622841
O5    O     O_R   0.500000 0.683240 0.614650 -0.620969
O6    O     O_R   0.499990 0.683210 0.385310 -0.574978
O7    O     O_R   0.632160 0.500050 0.614660 -0.592805
O8    O     O_R   0.632150 0.500010 0.385320 -0.610504
Zn1   Zn    Zn3+2 0.500010 0.500020 0.653130 1.000033
Zn2   Zn    Zn3+2 0.499990 0.499980 0.346870 1.021452
C35   C     C_2   0.767563 0.740568 0.510859 0.913315
O9    O     O_2   0.695127 0.756937 0.565221 -0.626492
O10   O     O_R   0.806559 0.837525 0.437141 -0.756792
H10   H     H_    0.768181 0.915772 0.436425 0.348032
C36   C     C_2   0.355909 0.871260 0.785742 0.610215
H11   H     H_    0.336053 0.783302 0.740960 0.036529
O11   O     O_2   0.310821 0.915477 0.876367 -0.469880
C37   C     C_2   0.524590 0.888261 0.811890 0.540423
H12   H     H_    0.590396 0.907763 0.769943 0.125122
O12   O     O_2   0.519238 0.832545 0.918537 -0.519126
C38   C     C_2   0.651787 0.590789 0.141337 0.545030
H13   H     H_    0.717403 0.547746 0.130693 0.050714
O13   O     O_2   0.644552 0.687573 0.204418 -0.527302
C39   C     C_2   0.658363 0.568868 0.861710 0.959027
O14   O     O_2   0.667455 0.675128 0.819898 -0.563842
O15   O     O_R   0.729484 0.483792 0.855082 -0.815314
H14   H     H_    0.784667 0.520389 0.810379 0.348383
C40   C     C_2   0.269398 0.409799 0.865172 0.549976
H15   H     H_    0.236641 0.496061 0.894820 0.074863
O16   O     O_2   0.232359 0.340887 0.785198 -0.520492
C41   C     C_2   0.401341 0.254493 0.130883 0.570130
H16   H     H_    0.466951 0.224247 0.096317 0.073172
O17   O     O_2   0.361095 0.192026 0.213750 -0.544071
C42   C     C_2   0.902452 0.159212 0.421460 0.426222
H17   H     H_    0.851265 0.132004 0.493174 0.063605
O18   O     O_2   0.915863 0.092459 0.324496 -0.475712
C43   C     C_2   0.097852 0.168397 0.385416 0.958097
O19   O     O_2   0.090546 0.130213 0.270490 -0.517789
O20   O     O_R   0.156998 0.110084 0.474619 -0.752581
H18   H     H_    0.188960 0.036048 0.433015 0.357764
C44   C     C_2   0.090871 0.814903 0.677693 0.968312
O21   O     O_2   0.145644 0.792955 0.765669 -0.552764
O22   O     O_R   0.067096 0.938934 0.652103 -0.703452
H19   H     H_    0.024702 0.948705 0.573324 0.317641
C45   C     C_2   0.604546 0.119923 0.285182 0.921839
O23   O     O_2   0.608524 0.072827 0.173630 -0.584827
O24   O     O_R   0.656300 0.225065 0.313534 -0.835938
H20   H     H_    0.692069 0.255080 0.233204 0.349090

loop_
_geom_bond_atom_site_label_1
_geom_bond_atom_site_label_2
_ccdc_geom_bond_type
C38   O13   D    
C37   O12   D    
C16   C45   S    
C40   H15   S    
C19   C20   S    
C12   O3    A    
C3    C42   S    
C12   O4    A    
C7    C8    A    
C21   H2    S    
O3    Zn1   S    
C26   C27   S    
O5    Zn1   S    
C5    C6    A    
C14   C21   S    
C41   O17   D    
C30   C31   A    
C44   O22   S    
C1    O1    A    
C3    C33   A    
C27   H4    S    
C15   C16   A    
C35   O9    D    
C36   O11   D    
C18   C19   A    
C39   O15   S    
C26   N2    A    
C23   O6    A    
O20   H18   S    
C22   N1    A    
C8    C9    A    
C1    C15   S    
C20   C36   S    
C8    C44   S    
C24   C38   S    
C2    C34   A    
C38   H13   S    
C22   C28   S    
C10   H7    S    
C40   O16   D    
C13   H8    S    
O7    Zn1   S    
C33   C34   A    
O8    Zn2   S    
C9    H9    S    
C37   H12   S    
C18   C23   S    
C41   H16   S    
C42   O18   D    
C44   O21   D    
C1    O2    A    
C23   O5    A    
C28   H5    S    
O10   H10   S    
O4    Zn2   S    
C30   C35   S    
C6    C34   A    
C36   H11   S    
C45   O24   S    
C31   C32   A    
O1    Zn1   S    
C17   C18   A    
C21   H3    S    
C24   C25   A    
N2    Zn1   S    
C43   O20   S    
C24   N1    A    
C25   C39   S    
C3    C4    A    
C28   C41   S    
C25   N2    A    
O2    Zn2   S    
C20   C21   S    
C14   C19   A    
C4    C5    A    
C11   C12   S    
C6    C7    A    
C2    C30   A    
C32   C33   A    
C20   C37   S    
C5    C10   A    
C29   C31   S    
C11   C13   A    
N1    Zn2   S    
C45   O23   D    
C16   C17   A    
C29   O8    A    
O24   H20   S    
C35   O10   S    
O6    Zn2   S    
C32   H6    S    
C39   O14   D    
C10   C11   A    
C42   H17   S    
C7    C13   A    
C4    C43   S    
O22   H19   S    
C43   O19   D    
C22   C26   A    
C27   C28   S    
C14   C15   A    
C17   H1    S    
O15   H14   S    
C27   C40   S    
C2    C9    A    
C29   O7    A    
