data_mof_unit_16157.cif
_audit_creation_date              2013-03-05T16:05:14-0500
_audit_creation_method            fapswitch 2.2
_symmetry_space_group_name_H-M    P1
_symmetry_Int_Tables_number       1
_space_group_crystal_system       triclinic
_cell_length_a                    11.556123
_cell_length_b                    15.020942
_cell_length_c                    15.063832
_cell_angle_alpha                 82.60623
_cell_angle_beta                  89.729416
_cell_angle_gamma                 104.220733
_cell_volume                      2511.83824977

loop_
_atom_site_label
_atom_site_type_symbol
_atom_site_description
_atom_site_fract_x
_atom_site_fract_y
_atom_site_fract_z
_atom_type_partial_charge
O1    O     O_R   0.466720 0.383110 0.605620 -0.615524
O2    O     O_R   0.533280 0.616890 0.394380 -0.615394
O3    O     O_R   0.509090 0.531900 0.639510 -0.615019
O4    O     O_R   0.490910 0.468100 0.360490 -0.619586
C1    C     C_R   0.487300 0.442140 0.663498 0.874588
C2    C     C_R   0.519031 0.557858 0.336439 0.873360
O5    O     O_R   0.644370 0.425610 0.483050 -0.606437
O6    O     O_R   0.355630 0.574390 0.516950 -0.604086
O7    O     O_R   0.686740 0.574390 0.516930 -0.610521
O8    O     O_R   0.313260 0.425610 0.483070 -0.605285
C3    C     C_R   0.718061 0.500896 0.500095 0.902183
C4    C     C_R   0.281936 0.499113 0.499874 0.905317
Zn1   Zn    Zn3+2 0.471710 0.400660 0.477370 0.944702
Zn2   Zn    Zn3+2 0.528290 0.599340 0.522630 0.947860
C5    C     C_1   0.839073 0.502217 0.500421 -0.178422
C6    C     C_1   0.160896 0.497788 0.499523 -0.177340
C7    C     C_1   0.940953 0.501138 0.500205 0.013826
C8    C     C_1   0.059002 0.498860 0.499726 0.016777
C9    C     C_R   0.505345 0.407373 0.756935 -0.117711
C10   C     C_R   0.555716 0.592323 0.242328 -0.122000
C11   C     C_R   0.523797 0.280871 0.871758 0.168159
C12   C     C_R   0.663741 0.714944 0.127300 0.169746
C13   C     C_R   0.495371 0.312848 0.784320 -0.172477
C14   C     C_R   0.611844 0.685670 0.214494 -0.171976
C15   C     C_R   0.547732 0.470910 0.815798 -0.245889
C16   C     C_R   0.550503 0.527877 0.183275 -0.234432
C17   C     C_R   0.588918 0.443298 0.899062 0.065166
C18   C     C_R   0.615665 0.551197 0.102292 0.061249
C19   C     C_R   0.566864 0.347452 0.930871 0.064302
C20   C     C_R   0.665166 0.646244 0.070458 0.059619
C21   C     C_R   0.638128 0.509726 0.955598 0.021806
C22   C     C_R   0.621888 0.482066 0.048351 0.026519
C23   C     C_R   0.614173 0.387074 0.081425 0.153640
C24   C     C_R   0.703140 0.602218 0.924487 0.164764
C25   C     C_R   0.588278 0.321374 0.021174 -0.275280
C26   C     C_R   0.715631 0.669333 0.982859 -0.268852
H1    H     H_    0.581025 0.249450 0.046475 0.156517
H2    H     H_    0.764071 0.739602 0.958684 0.154614
H3    H     H_    0.493450 0.459138 0.200464 0.158764
H4    H     H_    0.544845 0.542303 0.797525 0.163935
H5    H     H_    0.615156 0.734551 0.261680 0.172889
H6    H     H_    0.464735 0.264859 0.736840 0.168264
N1    N     N_R   0.566020 0.731700 0.552730 -0.098744
N2    N     N_R   0.433980 0.268300 0.447270 -0.099766
C27   C     C_R   0.670594 0.839009 0.644988 -0.244598
C28   C     C_R   0.339863 0.163292 0.349334 -0.249963
C29   C     C_R   0.645415 0.752147 0.617264 0.004234
C30   C     C_R   0.361205 0.249346 0.378466 -0.007556
C31   C     C_R   0.513098 0.794723 0.509824 -0.025600
C32   C     C_R   0.485600 0.205258 0.491641 -0.023409
C33   C     C_R   0.539166 0.886064 0.531599 -0.016335
C34   C     C_R   0.465998 0.115409 0.466658 -0.013982
C35   C     C_R   0.614797 0.906287 0.604490 0.044947
C36   C     C_R   0.394569 0.096011 0.391335 0.035879
C37   C     C_R   0.492196 0.956670 0.483989 0.025510
C38   C     C_R   0.515190 0.045431 0.513320 0.031539
C39   C     C_R   0.585356 0.061212 0.589005 -0.299471
C40   C     C_R   0.426318 0.941836 0.406206 -0.290626
C41   C     C_R   0.634789 0.993494 0.634286 0.315662
C42   C     C_R   0.378340 0.009811 0.359962 0.313560
H7    H     H_    0.542534 0.228624 0.544508 0.127856
H8    H     H_    0.449968 0.770553 0.460680 0.132704
H9    H     H_    0.321439 0.302160 0.345221 0.138495
H10   H     H_    0.688065 0.700070 0.647704 0.125861
H11   H     H_    0.734401 0.852823 0.696865 0.190359
H12   H     H_    0.280510 0.150313 0.294607 0.197894
H13   H     H_    0.602508 0.125562 0.616447 0.163984
H14   H     H_    0.414240 0.878740 0.376789 0.171840
C43   C     C_3   0.509299 0.177719 0.902946 -0.411501
C44   C     C_3   0.468864 0.112302 0.832921 -0.777909
H15   H     H_    0.378596 0.115624 0.810059 0.246842
H16   H     H_    0.533950 0.129877 0.775050 0.268145
H17   H     H_    0.464125 0.039993 0.863154 0.278913
H18   H     H_    0.596609 0.167372 0.926654 0.228299
H19   H     H_    0.443221 0.155822 0.960318 0.228943
C45   C     C_3   0.718433 0.817297 0.094363 -0.407263
C46   C     C_3   0.707333 0.885738 0.159026 -0.821549
H20   H     H_    0.611950 0.879546 0.176635 0.267026
H21   H     H_    0.757011 0.873828 0.220569 0.258334
H22   H     H_    0.746659 0.957559 0.126314 0.264971
H23   H     H_    0.815040 0.826972 0.078211 0.219968
H24   H     H_    0.674576 0.836892 0.031880 0.232290
C47   C     C_3   0.651924 0.354656 0.174683 -0.390401
C48   C     C_3   0.778376 0.407421 0.193390 -0.814363
H25   H     H_    0.842229 0.402747 0.139836 0.260308
H26   H     H_    0.782709 0.481360 0.197477 0.262953
H27   H     H_    0.805738 0.376628 0.258498 0.250531
H28   H     H_    0.589164 0.358167 0.228805 0.210287
H29   H     H_    0.651896 0.280074 0.180997 0.212870
C49   C     C_3   0.779377 0.627538 0.837852 -0.416069
C50   C     C_3   0.876113 0.574029 0.839848 -0.809274
H30   H     H_    0.932106 0.586609 0.898917 0.263025
H31   H     H_    0.835532 0.498553 0.842763 0.263221
H32   H     H_    0.934222 0.597479 0.778123 0.248858
H33   H     H_    0.726809 0.615494 0.777910 0.196773
H34   H     H_    0.824703 0.702691 0.827557 0.208613
N3    N     N_R   0.701585 0.013931 0.712650 0.193148
O9    O     O_R   0.775413 0.094706 0.713103 -0.393543
O10   O     O_R   0.672885 0.959345 0.788005 -0.420692
N4    N     N_R   0.316782 0.990692 0.279159 0.199089
O11   O     O_R   0.243355 0.910234 0.276013 -0.386849
O12   O     O_R   0.350049 0.046185 0.204852 -0.416608

loop_
_geom_bond_atom_site_label_1
_geom_bond_atom_site_label_2
_geom_bond_distance
_ccdc_geom_bond_type
C37   C38   1.422001 A    
C17   C19   1.417145 A    
C48   H27   1.110801 S    
C12   C45   1.527293 S    
N3    O9    1.301412 A    
C35   C41   1.405124 A    
C49   H33   1.100147 S    
C36   C42   1.405013 A    
C46   H20   1.111071 S    
O5    C3    1.293689 A    
C13   H6    1.079907 S    
O1    C1    1.303933 A    
C25   H1    1.081067 S    
C48   H26   1.109092 S    
C28   H12   1.081243 S    
C15   H4    1.081022 S    
C16   H3    1.078404 S    
C39   C41   1.391706 A    
C40   C42   1.390654 A    
C38   C39   1.413286 A    
O4    Zn1   1.897940 S    
C3    C5    1.393718 S    
C10   C14   1.400654 A    
C31   C33   1.412278 A    
C32   C34   1.412700 A    
C44   H15   1.110763 S    
C24   C26   1.402923 A    
C46   H21   1.110780 S    
C47   H28   1.103514 S    
C27   C35   1.405130 A    
C14   H5    1.080081 S    
O2    C2    1.305376 A    
C39   H13   1.074235 S    
O2    Zn2   1.914575 S    
N3    O10   1.301586 A    
C34   C36   1.424601 A    
C27   C29   1.384309 A    
C47   H29   1.111979 S    
C28   C30   1.383710 A    
C17   C21   1.410265 A    
C4    C6    1.394048 S    
C18   C22   1.413165 A    
C45   C46   1.530864 S    
O4    C2    1.308642 A    
C45   H24   1.111706 S    
C50   H30   1.111221 S    
N1    C31   1.348566 A    
C30   H9    1.081843 S    
C42   N4    1.438020 S    
C11   C19   1.424662 A    
C11   C43   1.527721 S    
C33   C35   1.423465 A    
C9    C13   1.402797 A    
O7    Zn2   1.960764 S    
C24   C49   1.523411 S    
C50   H31   1.110384 S    
C23   C47   1.528100 S    
C47   C48   1.528170 S    
O6    C4    1.293753 A    
C28   C36   1.405138 A    
C44   H17   1.110555 S    
N4    O12   1.301511 A    
C7    C8    1.373007 S    
C21   C24   1.424969 A    
C43   H18   1.111694 S    
C48   H25   1.111141 S    
O7    C3    1.296740 A    
O3    Zn2   1.897942 S    
O8    C4    1.296735 A    
C40   H14   1.076011 S    
C11   C13   1.411489 A    
C27   H11   1.081413 S    
C41   N3    1.438410 S    
C12   C14   1.411598 A    
O1    Zn1   1.914575 S    
C29   H10   1.079037 S    
C46   H22   1.110576 S    
N2    C32   1.348234 A    
C5    C7    1.181428 T    
O6    Zn2   1.942006 S    
C31   H8    1.075273 S    
C12   C20   1.426174 A    
C21   C22   1.403508 A    
O3    C1    1.311023 A    
O8    Zn1   1.960763 S    
C45   H23   1.111434 S    
C49   H34   1.111938 S    
C1    C9    1.471189 S    
C15   C17   1.393022 A    
C2    C10   1.468037 S    
C19   C25   1.406693 A    
C16   C18   1.389134 A    
C20   C26   1.406136 A    
C22   C23   1.430475 A    
C26   H2    1.081167 S    
C50   H32   1.110471 S    
C49   C50   1.527135 S    
C10   C16   1.387629 A    
C18   C20   1.419670 A    
N4    O11   1.301591 A    
C23   C25   1.405422 A    
C43   H19   1.111496 S    
C33   C37   1.422860 A    
C43   C44   1.530496 S    
C9    C15   1.388972 A    
N2    C30   1.352441 A    
O5    Zn1   1.942007 S    
C6    C8    1.181541 T    
C37   C40   1.412236 A    
C32   H7    1.074101 S    
C44   H16   1.110133 S    
N1    C29   1.352032 A    
Zn1   N2    2.038752 S    
C34   C38   1.424533 A    
Zn2   N1    2.038750 S    
