data_mof_unit_44651.cif
_audit_creation_date              2012-12-10T20:00:02-0500
_audit_creation_method            fapswitch 2.2
_symmetry_space_group_name_H-M    P1
_symmetry_Int_Tables_number       1
_space_group_crystal_system       triclinic
_cell_length_a                    15.080325
_cell_length_b                    14.215984
_cell_length_c                    8.868402
_cell_angle_alpha                 90.008214
_cell_angle_beta                  90.841216
_cell_angle_gamma                 90.037132
_cell_volume                      1901.01740038

loop_
_atom_site_label
_atom_site_type_symbol
_atom_type_description
_atom_site_fract_x
_atom_site_fract_y
_atom_site_fract_z
_atom_type_partial_charge
C1    C     C_R   0.327579 0.499906 0.503736 0.919116
C2    C     C_R   0.672293 0.499957 0.493727 0.919064
C3    C     C_R   0.475891 0.203632 0.372195 0.523681
C4    C     C_R   0.548134 0.794786 0.607324 0.548146
C5    C     C_R   0.524197 0.203752 0.627829 0.523134
C6    C     C_R   0.451887 0.794732 0.392698 0.547568
C7    C     C_R   0.479595 0.104362 0.369200 -0.402504
C8    C     C_R   0.551128 0.894373 0.605001 -0.420183
C9    C     C_R   0.520476 0.104453 0.630910 -0.404500
C10   C     C_R   0.448808 0.894305 0.395193 -0.420480
C11   C     C_R   0.500102 0.500010 0.218719 0.921960
C12   C     C_R   0.499936 0.500018 0.781281 0.922883
C13   C     C_R   0.500013 0.052624 0.500078 0.092548
C14   C     C_R   0.499967 0.946035 0.500114 0.104664
C15   C     C_1   0.500146 0.500058 0.065472 -0.198997
C16   C     C_1   0.499965 0.500067 0.934533 -0.199229
C17   C     C_R   0.092935 0.570320 0.428060 -0.320946
C18   C     C_R   0.903807 0.415915 0.420830 -0.323206
C19   C     C_R   0.909678 0.572357 0.528221 -0.322760
C20   C     C_R   0.093274 0.414617 0.538634 -0.321490
C21   C     C_R   0.183397 0.578651 0.454178 0.418981
C22   C     C_R   0.810925 0.416746 0.425236 0.426568
C23   C     C_R   0.818132 0.579872 0.518676 0.421095
C24   C     C_R   0.186037 0.416110 0.550096 0.425735
C25   C     C_R   0.231046 0.498722 0.504067 -0.244729
C26   C     C_R   0.768410 0.499027 0.479347 -0.244044
C27   C     C_R   0.047901 0.490573 0.475568 0.070580
C28   C     C_R   0.952080 0.492196 0.475889 0.073066
H1    H     H_    0.056735 0.628603 0.378175 0.145556
H2    H     H_    0.939423 0.357276 0.373160 0.132814
H3    H     H_    0.948219 0.630462 0.573391 0.142368
H4    H     H_    0.055428 0.356530 0.583103 0.133804
H5    H     H_    0.466716 0.068806 0.263326 0.167833
H6    H     H_    0.595067 0.930418 0.683022 0.163050
H7    H     H_    0.533260 0.068925 0.736800 0.167484
H8    H     H_    0.404885 0.930287 0.317161 0.162940
N1    N     N_R   0.500000 0.252470 0.500000 -0.163872
N2    N     N_R   0.500000 0.747530 0.500000 -0.173821
O1    O     O_R   0.369060 0.579480 0.500010 -0.550658
O2    O     O_R   0.630940 0.420520 0.499990 -0.587974
O3    O     O_R   0.630940 0.579480 0.499990 -0.548823
O4    O     O_R   0.369060 0.420520 0.500010 -0.590685
O5    O     O_R   0.500000 0.579460 0.285340 -0.620384
O6    O     O_R   0.500000 0.420540 0.714660 -0.552406
O7    O     O_R   0.500000 0.579460 0.714660 -0.620431
O8    O     O_R   0.500000 0.420540 0.285340 -0.552679
Zn1   Zn    Zn3+2 0.500000 0.606140 0.500000 1.025866
Zn2   Zn    Zn3+2 0.500000 0.393860 0.500000 1.038049
O9    O     O_3   0.453743 0.251567 0.241758 -0.568861
C29   C     C_3   0.361838 0.241854 0.212756 0.073234
H9    H     H_    0.322643 0.268516 0.309273 0.155953
H10   H     H_    0.343859 0.167156 0.190148 0.118546
C30   C     C_3   0.336549 0.299139 0.073729 -0.748670
H11   H     H_    0.377635 0.277637 0.976647 0.282985
H12   H     H_    0.265539 0.287450 0.044477 0.193946
H13   H     H_    0.346893 0.375169 0.096278 0.246119
O10   O     O_3   0.601570 0.743301 0.705393 -0.539574
C31   C     C_3   0.588539 0.769248 0.857763 0.114944
H14   H     H_    0.568151 0.705498 0.920623 0.162255
H15   H     H_    0.535670 0.822806 0.875572 0.091644
C32   C     C_3   0.675513 0.804053 0.927016 -0.863909
H16   H     H_    0.698178 0.868443 0.868249 0.237584
H17   H     H_    0.666098 0.820622 0.048143 0.205239
H18   H     H_    0.727212 0.748842 0.917422 0.277130
O11   O     O_3   0.546254 0.251915 0.758168 -0.568571
C33   C     C_3   0.637815 0.241021 0.789256 0.073802
H19   H     H_    0.678219 0.264538 0.692018 0.152020
H20   H     H_    0.654058 0.166541 0.816666 0.119335
C34   C     C_3   0.663394 0.301026 0.925222 -0.744313
H21   H     H_    0.620858 0.283210 0.022392 0.284352
H22   H     H_    0.733807 0.288070 0.957193 0.194531
H23   H     H_    0.655256 0.376697 0.897591 0.244234
O12   O     O_3   0.398645 0.743162 0.294336 -0.536565
C35   C     C_3   0.411778 0.769262 0.142075 0.116689
H24   H     H_    0.432332 0.705620 0.079142 0.161662
H25   H     H_    0.464572 0.823007 0.124527 0.090684
C36   C     C_3   0.324800 0.803813 0.072683 -0.860410
H26   H     H_    0.302068 0.868202 0.131311 0.236779
H27   H     H_    0.334247 0.820306 0.951543 0.204330
H28   H     H_    0.273139 0.748494 0.082331 0.278536
O13   O     O_3   0.225408 0.664314 0.430739 -0.548080
C37   C     C_3   0.187666 0.733576 0.525572 0.129602
H29   H     H_    0.174644 0.705862 0.640996 0.119135
H30   H     H_    0.124667 0.760292 0.474993 0.116228
C38   C     C_3   0.250501 0.816455 0.542935 -0.778901
H31   H     H_    0.263713 0.847680 0.430824 0.264727
H32   H     H_    0.220054 0.871042 0.615247 0.180713
H33   H     H_    0.313464 0.793021 0.597291 0.249553
O14   O     O_3   0.759254 0.344842 0.361825 -0.583823
C39   C     C_3   0.797302 0.254593 0.380279 0.090976
H34   H     H_    0.825835 0.244876 0.495938 0.118520
H35   H     H_    0.849069 0.243026 0.294301 0.136398
C40   C     C_3   0.726091 0.180189 0.355135 -0.808661
H36   H     H_    0.755716 0.108928 0.365179 0.194795
H37   H     H_    0.673939 0.187549 0.440855 0.240562
H38   H     H_    0.695629 0.187971 0.241068 0.261031
O15   O     O_3   0.776828 0.664786 0.551284 -0.550847
C41   C     C_3   0.811703 0.737278 0.459303 0.126563
H39   H     H_    0.824116 0.712718 0.341858 0.119691
H40   H     H_    0.874479 0.764782 0.509673 0.118738
C42   C     C_3   0.746634 0.818488 0.448873 -0.779580
H41   H     H_    0.734460 0.847067 0.563135 0.266391
H42   H     H_    0.774574 0.875381 0.378082 0.180934
H43   H     H_    0.683474 0.794190 0.396102 0.248963
O16   O     O_3   0.234033 0.345039 0.623200 -0.584901
C43   C     C_3   0.198811 0.254245 0.596300 0.092390
H44   H     H_    0.178883 0.244521 0.475720 0.116272
H45   H     H_    0.141301 0.241372 0.670494 0.136561
C44   C     C_3   0.268888 0.181016 0.635679 -0.811008
H46   H     H_    0.289843 0.188138 0.755713 0.258934
H47   H     H_    0.241643 0.109288 0.617064 0.195306
H48   H     H_    0.327399 0.190492 0.563323 0.243399

loop_
_geom_bond_atom_site_label_1
_geom_bond_atom_site_label_2
_ccdc_geom_bond_type
C33   H20   S    
C40   H36   S    
C5    N1    A    
C32   H18   S    
C17   H1    S    
O12   C35   S    
C4    C8    A    
C19   H3    S    
O15   C41   S    
C3    O9    S    
C36   H26   S    
C42   H41   S    
C35   H25   S    
C6    O12   S    
C3    C7    A    
C44   H47   S    
C38   H33   S    
C33   C34   S    
C43   H44   S    
C2    O3    A    
C31   H15   S    
C15   C16   T    
C32   H17   S    
C23   C26   A    
C34   H22   S    
C9    C13   A    
C11   C15   S    
C20   C24   A    
C35   C36   S    
C4    O10   S    
C29   H10   S    
C6    N2    A    
C11   O5    A    
C18   H2    S    
C31   C32   S    
O7    Zn1   S    
C33   H19   S    
C42   H42   S    
C13   C14   S    
C1    C25   S    
C7    H5    S    
C32   H16   S    
O13   C37   S    
C30   H12   S    
O8    Zn2   S    
C29   C30   S    
C35   H24   S    
C38   H32   S    
C17   C27   A    
C12   C16   S    
C18   C28   A    
C24   C25   A    
C5    O11   S    
C10   C14   A    
C44   H48   S    
O4    Zn2   S    
C31   H14   S    
C38   H31   S    
C37   H29   S    
C17   C21   A    
C34   H23   S    
C19   C23   A    
C5    C9    A    
C39   H35   S    
C29   H9    S    
O3    Zn1   S    
C36   H27   S    
C2    C26   S    
C8    H6    S    
N1    Zn2   S    
C19   C28   A    
N2    Zn1   S    
C23   O15   S    
C21   O13   S    
C41   H39   S    
C42   H43   S    
C37   H30   S    
C39   H34   S    
C41   C42   S    
C39   C40   S    
O1    Zn1   S    
C20   H4    S    
C30   H13   S    
O2    Zn2   S    
C21   C25   A    
C8    C14   A    
C18   C22   A    
C4    N2    A    
C12   O7    A    
C6    C10   A    
C30   H11   S    
C20   C27   A    
C40   H38   S    
C37   C38   S    
O16   C43   S    
C41   H40   S    
C12   O6    A    
C44   H46   S    
C36   H28   S    
O10   C31   S    
C43   H45   S    
C22   O14   S    
O11   C33   S    
C34   H21   S    
C1    O1    A    
C2    O2    A    
C1    O4    A    
C7    C13   A    
C3    N1    A    
C40   H37   S    
O9    C29   S    
C22   C26   A    
C27   C28   S    
C9    H7    S    
C11   O8    A    
C10   H8    S    
C24   O16   S    
O14   C39   S    
O5    Zn1   S    
O6    Zn2   S    
C43   C44   S    
