data_mof_unit_32186.cif
_audit_creation_date              2012-12-10T16:37:26-0500
_audit_creation_method            fapswitch 2.2
_symmetry_space_group_name_H-M    P1
_symmetry_Int_Tables_number       1
_space_group_crystal_system       triclinic
_cell_length_a                    16.962459
_cell_length_b                    16.664735
_cell_length_c                    16.886297
_cell_angle_alpha                 66.172131
_cell_angle_beta                  66.433469
_cell_angle_gamma                 66.15794
_cell_volume                      3830.96253553

loop_
_atom_site_label
_atom_site_type_symbol
_atom_type_description
_atom_site_fract_x
_atom_site_fract_y
_atom_site_fract_z
_atom_type_partial_charge
C1    C     C_R   0.444391 0.946775 0.686687 -0.277485
C2    C     C_R   0.407712 0.647057 0.062871 -0.222775
C3    C     C_R   0.196826 0.776367 0.313436 -0.034310
C4    C     C_R   0.254239 0.742147 0.367606 -0.087582
C5    C     C_R   0.303092 0.795912 0.361548 -0.137884
C6    C     C_R   0.141472 0.698990 0.679963 0.125863
C7    C     C_R   0.228763 0.672456 0.623785 -0.167260
C8    C     C_R   0.294785 0.709214 0.612516 -0.138129
C9    C     C_R   0.273763 0.774314 0.655583 -0.077614
C10   C     C_R   0.187480 0.800399 0.712416 -0.053418
C11   C     C_R   0.122548 0.760246 0.727394 0.025843
C12   C     C_R   0.868340 0.309163 0.287173 0.194072
C13   C     C_R   0.018625 0.564604 0.326219 -0.282416
C14   C     C_R   0.783142 0.373006 0.286640 -0.097097
C15   C     C_R   0.731878 0.371833 0.239834 -0.092398
C16   C     C_R   0.765083 0.306991 0.193041 -0.064169
C17   C     C_R   0.849800 0.243495 0.192572 -0.128635
C18   C     C_R   0.901684 0.244808 0.238678 -0.001667
C19   C     C_R   0.704502 0.687476 0.135133 0.150865
C20   C     C_R   0.752312 0.749764 0.111185 -0.046538
C21   C     C_R   0.780778 0.755173 0.175523 -0.160040
C22   C     C_R   0.761882 0.698546 0.264140 -0.091525
C23   C     C_R   0.713937 0.636862 0.288674 -0.146211
C24   C     C_R   0.025170 0.401291 0.675341 -0.211577
C25   C     C_R   0.685146 0.631466 0.224564 -0.177415
C26   C     C_R   0.293864 0.283897 0.876166 0.164043
C27   C     C_R   0.235541 0.228339 0.929131 0.017300
C28   C     C_R   0.228201 0.169020 0.894477 -0.108501
C29   C     C_R   0.278731 0.164062 0.806986 -0.032700
C30   C     C_R   0.335610 0.219519 0.753377 -0.067043
C31   C     C_R   0.342926 0.279232 0.787509 -0.111082
C32   C     C_R   0.956823 0.179129 0.440217 0.988935
C33   C     C_R   0.023289 0.822368 0.568304 0.942866
C34   C     C_R   0.179568 0.437435 0.962004 0.954673
C35   C     C_R   0.823446 0.569554 0.021049 0.952198
C36   C     C_R   0.432045 0.978141 0.176493 0.950595
C37   C     C_R   0.573632 0.000979 0.832692 0.963716
C38   C     C_R   0.561679 0.820159 0.038974 0.951892
C39   C     C_R   0.549799 0.068254 0.307211 -0.253154
C40   C     C_R   0.439213 0.179525 0.959222 0.984241
C41   C     C_R   0.040057 0.560654 0.820539 0.967434
C42   C     C_R   0.976264 0.431441 0.177938 0.954090
C43   C     C_R   0.821704 0.028907 0.566729 1.006891
C44   C     C_R   0.176801 0.975859 0.433392 0.940143
C45   C     C_R   0.497199 0.938301 0.736530 0.402232
C46   C     C_R   0.500957 0.061991 0.260645 0.400444
C47   C     C_R   0.951882 0.731267 0.500494 0.410168
C48   C     C_R   0.908614 0.299138 0.559743 0.422766
C49   C     C_R   0.737227 0.520065 0.927154 0.400411
C50   C     C_R   0.958913 0.684743 0.444132 -0.290672
C51   C     C_R   0.289738 0.551088 0.947876 0.444207
C52   C     C_R   0.267265 0.022706 0.526789 0.405837
C53   C     C_R   0.683402 0.097365 0.465006 0.405764
C54   C     C_R   0.558590 0.304780 0.902486 0.422547
C55   C     C_R   0.450750 0.689608 0.082327 0.426331
C56   C     C_R   0.030759 0.506799 0.278493 0.414257
C57   C     C_R   0.057832 0.442054 0.709037 0.436287
C58   C     C_R   0.543937 0.016257 0.548418 0.035491
C59   C     C_R   0.446415 0.013675 0.448390 0.035336
C60   C     C_R   0.996146 0.542776 0.558192 0.040880
C61   C     C_R   0.933214 0.335873 0.604720 -0.213352
C62   C     C_R   0.971884 0.452016 0.465191 0.038082
C63   C     C_R   0.551491 0.552674 0.994782 0.039602
C64   C     C_R   0.463405 0.461989 0.961227 0.034671
C65   C     C_R   0.570867 0.049611 0.452858 0.027291
C66   C     C_R   0.411565 0.997608 0.542509 0.032177
C67   C     C_R   0.993755 0.451318 0.599201 0.024469
C68   C     C_R   0.987809 0.538068 0.420476 0.018541
C69   C     C_R   0.457056 0.580859 0.015824 0.030490
C70   C     C_R   0.557865 0.430199 0.944144 0.022657
C71   C     C_R   0.525316 0.041579 0.402210 0.023978
C72   C     C_R   0.695634 0.469344 0.916236 -0.251912
C73   C     C_R   0.465323 0.987885 0.593068 0.017985
C74   C     C_R   0.414525 0.541601 0.990019 0.019428
C75   C     C_R   0.602577 0.481230 0.953496 0.016938
C76   C     C_R   0.967080 0.411633 0.557540 0.021098
C77   C     C_R   0.983483 0.589058 0.471928 0.023140
C78   C     C_R   0.567391 0.980134 0.694969 -0.021085
C79   C     C_R   0.432887 0.016342 0.307613 -0.009605
C80   C     C_R   0.995159 0.684135 0.570458 -0.019449
C81   C     C_R   0.932268 0.327336 0.463749 -0.020016
C82   C     C_R   0.689304 0.575573 0.986438 -0.023174
C83   C     C_R   0.327695 0.586470 0.980754 -0.199862
C84   C     C_R   0.326318 0.458574 0.945613 0.000256
C85   C     C_R   0.309767 0.001532 0.443002 -0.004365
C86   C     C_R   0.669545 0.047553 0.557110 0.006920
C87   C     C_R   0.463174 0.331790 0.927399 0.012782
C88   C     C_R   0.544679 0.670920 0.051592 0.017209
C89   C     C_R   0.988092 0.435693 0.321361 -0.008986
C90   C     C_R   0.043541 0.538497 0.679293 0.025861
C91   C     C_R   0.615133 0.986742 0.743526 -0.142520
C92   C     C_R   0.394624 0.982632 0.268604 -0.129938
C93   C     C_R   0.026852 0.726385 0.606109 -0.155821
C94   C     C_R   0.319708 0.005228 0.580909 -0.309373
C95   C     C_R   0.928733 0.279480 0.412528 -0.099748
C96   C     C_R   0.729797 0.608664 0.022766 -0.160265
C97   C     C_R   0.278665 0.408988 0.937034 -0.127137
C98   C     C_R   0.269557 0.976727 0.399007 -0.151597
C99   C     C_R   0.728578 0.027320 0.608549 -0.089527
C100  C     C_R   0.411828 0.280642 0.929330 -0.145599
C101  C     C_R   0.590975 0.719559 0.061591 -0.115459
C102  C     C_R   0.966178 0.395578 0.274871 -0.169750
C103  C     C_R   0.059347 0.587462 0.722054 -0.120256
C104  C     C_R   0.702553 0.989019 0.702307 -0.090635
C105  C     C_R   0.638522 0.094161 0.412961 -0.229807
C106  C     C_R   0.320010 0.950522 0.321053 -0.152313
C107  C     C_R   0.068802 0.674078 0.674901 -0.133279
C108  C     C_R   0.926904 0.323921 0.323487 -0.141279
C109  C     C_R   0.677535 0.675847 0.067385 -0.125340
C110  C     C_R   0.325771 0.324609 0.918222 -0.141090
C111  C     C_R   0.593909 0.014088 0.599993 -0.020768
C112  C     C_R   0.398244 0.006566 0.400499 -0.021133
C113  C     C_R   0.012388 0.588344 0.602406 -0.018969
C114  C     C_R   0.962532 0.405843 0.416807 -0.023763
C115  C     C_R   0.595079 0.598644 0.012119 -0.028010
C116  C     C_R   0.604166 0.351875 0.913220 -0.225774
C117  C     C_R   0.417339 0.416705 0.945914 -0.022234
C118  C     C_R   0.767553 0.930328 0.756697 0.103316
C119  C     C_R   0.793436 0.834961 0.773736 -0.161132
C120  C     C_R   0.849173 0.777673 0.829363 -0.091469
C121  C     C_R   0.879883 0.814994 0.868190 -0.156758
C122  C     C_R   0.855082 0.909850 0.851158 -0.224567
C123  C     C_R   0.798765 0.967527 0.795949 0.027156
C124  C     C_R   0.294712 0.885063 0.301562 0.162871
C125  C     C_R   0.238973 0.917524 0.244697 0.036240
C126  C     C_R   0.189950 0.863552 0.251338 -0.088153
Cl1   Cl    Cl    0.485345 0.856946 0.843783 -0.629857
Cl2   Cl    Cl    0.386110 0.751716 0.160235 -0.666546
Cl3   Cl    Cl    0.122950 0.507370 0.180181 -0.608265
Cl4   Cl    Cl    0.134259 0.366611 0.770626 -0.664607
Cl5   Cl    Cl    0.504692 0.142977 0.153810 -0.611882
Cl6   Cl    Cl    0.863336 0.833807 0.501102 -0.630093
Cl7   Cl    Cl    0.835795 0.229849 0.627226 -0.573080
Cl8   Cl    Cl    0.838835 0.532326 0.845098 -0.656925
Cl9   Cl    Cl    0.223268 0.635768 0.878333 -0.656937
Cl10  Cl    Cl    0.165439 0.111298 0.544640 -0.593102
Cl11  Cl    Cl    0.738969 0.181514 0.417946 -0.659326
Cl12  Cl    Cl    0.625420 0.228559 0.836145 -0.578228
H1    H     H_    0.390871 0.914416 0.720667 0.180057
H2    H     H_    0.335359 0.662745 0.089478 0.177936
H3    H     H_    0.046153 0.622298 0.291308 0.177288
H4    H     H_    0.034963 0.328010 0.701827 0.180518
H5    H     H_    0.769393 0.805047 0.744806 0.185641
H6    H     H_    0.867705 0.704373 0.842735 0.179414
H7    H     H_    0.922664 0.770516 0.911824 0.161456
H8    H     H_    0.878849 0.938610 0.881382 0.134257
H9    H     H_    0.779031 0.040946 0.783996 0.200264
H10   H     H_    0.225834 0.987865 0.202486 0.109945
H11   H     H_    0.144883 0.890307 0.209962 0.098311
H12   H     H_    0.603494 0.099424 0.267153 0.171945
H13   H     H_    0.157999 0.735214 0.319303 0.121832
H14   H     H_    0.259436 0.674666 0.415679 0.123926
H15   H     H_    0.343080 0.770440 0.407757 0.119631
H16   H     H_    0.244714 0.625738 0.586226 0.136490
H17   H     H_    0.361643 0.688967 0.568544 0.136728
H18   H     H_    0.324358 0.804256 0.645195 0.135227
H19   H     H_    0.171249 0.850677 0.745982 0.125753
H20   H     H_    0.055939 0.781928 0.770706 0.135372
H21   H     H_    0.757524 0.425066 0.320770 0.123331
H22   H     H_    0.666722 0.421658 0.239223 0.127038
H23   H     H_    0.932549 0.722504 0.386305 0.175796
H24   H     H_    0.725522 0.306497 0.156468 0.129940
H25   H     H_    0.876174 0.194532 0.154753 0.110468
H26   H     H_    0.969614 0.199662 0.231591 0.121893
H27   H     H_    0.769309 0.792503 0.042528 0.145495
H28   H     H_    0.818210 0.802709 0.156449 0.124734
H29   H     H_    0.784560 0.702308 0.313711 0.140841
H30   H     H_    0.699466 0.592875 0.357274 0.144611
H31   H     H_    0.648609 0.582908 0.244263 0.133733
H32   H     H_    0.202834 0.223828 0.999876 0.119634
H33   H     H_    0.185313 0.124903 0.936475 0.100024
H34   H     H_    0.918358 0.310200 0.677533 0.176994
H35   H     H_    0.273985 0.117146 0.780802 0.125523
H36   H     H_    0.375254 0.215090 0.685877 0.138132
H37   H     H_    0.390740 0.318261 0.746555 0.145772
H38   H     H_    0.735998 0.427501 0.870972 0.182142
H39   H     H_    0.294874 0.656199 0.984419 0.179377
H40   H     H_    0.286094 0.015018 0.647411 0.175951
H41   H     H_    0.653631 0.132429 0.342499 0.169812
H42   H     H_    0.676522 0.326129 0.895753 0.174484
O1    O     O_R   0.982940 0.138950 0.510160 -0.554463
O2    O     O_R   0.982940 0.510160 0.138950 -0.582189
O3    O     O_R   0.861050 0.017060 0.489840 -0.558384
O4    O     O_R   0.138950 0.982940 0.510160 -0.593367
O5    O     O_R   0.867700 0.025880 0.612340 -0.622974
O6    O     O_R   0.132300 0.974120 0.387660 -0.646692
O7    O     O_R   0.025880 0.612340 0.867700 -0.650535
O8    O     O_R   0.974120 0.387660 0.132300 -0.647835
O9    O     O_R   0.612340 0.867700 0.025880 -0.664634
O10   O     O_R   0.387660 0.132300 0.974120 -0.656260
O11   O     O_R   0.387660 0.974120 0.132300 -0.629336
O12   O     O_R   0.017060 0.861050 0.489840 -0.601998
O13   O     O_R   0.612340 0.025880 0.867700 -0.607739
O14   O     O_R   0.132300 0.387660 0.974120 -0.641192
O15   O     O_R   0.867700 0.612340 0.025880 -0.652281
O16   O     O_R   0.974120 0.132300 0.387660 -0.646085
O17   O     O_R   0.025880 0.867700 0.612340 -0.643815
O18   O     O_R   0.138950 0.510160 0.982940 -0.544932
O19   O     O_R   0.861050 0.489840 0.017060 -0.595436
O20   O     O_R   0.510160 0.982940 0.138950 -0.600544
O21   O     O_R   0.489840 0.017060 0.861050 -0.606787
O22   O     O_R   0.489840 0.861050 0.017060 -0.545725
O23   O     O_R   0.510160 0.138950 0.982940 -0.532490
O24   O     O_R   0.017060 0.489840 0.861050 -0.544408
Zn1   Zn    Zn3+2 0.004880 0.004880 0.583590 1.050320
Zn2   Zn    Zn3+2 0.995120 0.995120 0.416410 1.003085
Zn3   Zn    Zn3+2 0.004880 0.583590 0.004880 1.025375
Zn4   Zn    Zn3+2 0.995120 0.416410 0.995120 1.023513
Zn5   Zn    Zn3+2 0.583590 0.004880 0.004880 1.041020
Zn6   Zn    Zn3+2 0.416410 0.995120 0.995120 1.020718

loop_
_geom_bond_atom_site_label_1
_geom_bond_atom_site_label_2
_ccdc_geom_bond_type
C8    C9    A    
C49   Cl8   S    
C100  C110  A    
C52   C85   A    
C89   C102  A    
C36   O11   A    
C119  H5    S    
O17   Zn1   S    
C19   C20   A    
C120  H6    S    
C91   C104  A    
C32   O16   A    
C85   C112  A    
C1    C45   A    
C1    C73   A    
C88   C101  A    
C3    C126  A    
C35   O19   A    
C7    C8    A    
C31   H37   S    
C35   C96   S    
C42   O2    A    
C20   H27   S    
C5    C124  A    
C26   C27   A    
C79   C112  A    
C33   O12   A    
C53   Cl11  S    
C84   C97   A    
C28   C29   A    
C64   C117  A    
C105  H41   S    
C82   C115  A    
C62   C114  A    
C38   C101  S    
C2    C55   A    
C59   C66   A    
C54   C87   A    
C81   C95   A    
C126  H11   S    
C43   O5    A    
C44   O6    A    
C25   H31   S    
C15   C16   A    
C45   C78   A    
C34   C97   S    
C48   C81   A    
C41   O7    A    
O2    Zn3   S    
C94   H40   S    
C90   C113  A    
C55   C88   A    
C8    H17   S    
C34   O18   A    
C118  C119  A    
C85   C98   A    
C17   H25   S    
C24   C67   A    
C51   Cl9   S    
C46   C79   A    
C63   C69   A    
C9    H18   S    
C24   H4    S    
C24   C57   A    
C49   C72   A    
C54   C116  A    
C81   C114  A    
C6    C107  S    
C52   C94   A    
C53   C86   A    
C64   C70   A    
C2    C69   A    
C9    C10   A    
C44   O4    A    
C56   Cl3   S    
C1    H1    S    
C35   O15   A    
C66   C94   A    
C13   C56   A    
C63   C115  A    
C36   C92   S    
C122  H8    S    
C99   C104  A    
C26   C31   A    
C21   C22   A    
C50   H23   S    
O16   Zn2   S    
C62   C76   A    
C60   C113  A    
C44   C98   S    
C47   C80   A    
O22   Zn6   S    
C72   C75   A    
C42   C102  S    
C58   C65   A    
C65   C105  A    
C17   C18   A    
C47   C50   A    
C104  C118  S    
C19   C109  S    
C61   C76   A    
C4    H14   S    
C60   C77   A    
C82   C96   A    
C57   C90   A    
C37   C91   S    
C58   C111  A    
C74   C83   A    
O5    Zn1   S    
C48   Cl7   S    
C60   C67   A    
C10   C11   A    
C46   Cl5   S    
C12   C108  S    
C83   H39   S    
C16   C17   A    
C57   Cl4   S    
C70   C116  A    
C65   C71   A    
C66   C73   A    
C21   H28   S    
C41   C103  S    
C37   O13   A    
C49   C82   A    
O1    Zn1   S    
C37   O21   A    
C29   C30   A    
C32   O1    A    
C28   H33   S    
O13   Zn5   S    
C10   H19   S    
C40   O23   A    
C33   O17   A    
C38   O9    A    
C32   C95   S    
C59   C112  A    
C121  C122  A    
C18   H26   S    
C69   C74   A    
C61   H34   S    
C55   Cl2   S    
C41   O24   A    
C102  C108  A    
C86   C99   A    
C27   H32   S    
C79   C92   A    
C78   C111  A    
C39   C46   A    
O24   Zn4   S    
C22   H29   S    
C92   C106  A    
C56   C89   A    
C123  H9    S    
C54   Cl12  S    
C13   H3    S    
C116  H42   S    
C125  C126  A    
C52   Cl10  S    
C121  H7    S    
C13   C68   A    
O7    Zn3   S    
C3    C4    A    
C50   C77   A    
C51   C83   A    
O21   Zn6   S    
C6    C11   A    
C120  C121  A    
O4    Zn1   S    
C87   C100  A    
C42   O8    A    
C68   C77   A    
C26   C110  S    
C89   C114  A    
O8    Zn4   S    
C64   C74   A    
O18   Zn3   S    
C22   C23   A    
O12   Zn2   S    
C36   O20   A    
C29   H35   S    
C4    C5    A    
C125  H10   S    
C33   C93   S    
C40   C100  S    
C119  C120  A    
C87   C117  A    
C6    C7    A    
C78   C91   A    
O14   Zn4   S    
C96   C109  A    
C47   Cl6   S    
C3    H13   S    
O20   Zn5   S    
C98   C106  A    
C62   C68   A    
C14   H21   S    
C16   H24   S    
C88   C115  A    
C86   C111  A    
C12   C14   A    
C2    H2    S    
C15   H22   S    
O9    Zn5   S    
C43   C99   S    
C97   C110  A    
C34   O14   A    
C48   C61   A    
C30   C31   A    
C7    H16   S    
C63   C75   A    
C45   Cl1   S    
C5    H15   S    
O6    Zn2   S    
C43   O3    A    
O19   Zn4   S    
C118  C123  A    
C72   H38   S    
O10   Zn6   S    
C19   C25   A    
C90   C103  A    
C95   C108  A    
C84   C117  A    
O11   Zn6   S    
C23   H30   S    
C53   C105  A    
C23   C25   A    
O15   Zn3   S    
C80   C113  A    
C58   C73   A    
C20   C21   A    
C38   O22   A    
C12   C18   A    
C70   C75   A    
C122  C123  A    
O3    Zn2   S    
C39   C71   A    
C14   C15   A    
O23   Zn5   S    
C103  C107  A    
C67   C76   A    
C106  C124  S    
C80   C93   A    
C39   H12   S    
C101  C109  A    
C51   C84   A    
C30   H36   S    
C93   C107  A    
C11   H20   S    
C59   C71   A    
C124  C125  A    
C27   C28   A    
C40   O10   A    
