data_mof_unit_32935.cif
_audit_creation_date              2012-12-11T17:10:34-0500
_audit_creation_method            fapswitch 2.2
_symmetry_space_group_name_H-M    P1
_symmetry_Int_Tables_number       1
_space_group_crystal_system       triclinic
_cell_length_a                    14.901639
_cell_length_b                    14.864049
_cell_length_c                    14.898062
_cell_angle_alpha                 109.356793
_cell_angle_beta                  110.189357
_cell_angle_gamma                 109.027357
_cell_volume                      2535.03360082

loop_
_atom_site_label
_atom_site_type_symbol
_atom_type_description
_atom_site_fract_x
_atom_site_fract_y
_atom_site_fract_z
_atom_type_partial_charge
C1    C     C_R   0.186034 0.278934 0.254264 -0.143837
C2    C     C_R   0.405201 0.496314 0.194981 -0.146170
C3    C     C_R   0.564103 0.815366 0.591629 -0.125658
C4    C     C_R   0.525990 0.432580 0.746874 -0.152847
C5    C     C_R   0.725604 0.468545 0.410068 -0.130177
C6    C     C_R   0.548472 0.825157 0.498363 0.070804
C7    C     C_R   0.829450 0.544995 0.504838 0.050861
C8    C     C_R   0.435943 0.435044 0.131995 0.082924
C9    C     C_R   0.801638 0.802777 0.869087 0.082622
C10   C     C_R   0.110094 0.613213 0.197532 -0.128909
C11   C     C_R   0.110867 0.639285 0.297048 -0.144043
C12   C     C_R   0.450947 0.448165 0.775416 0.069588
C13   C     C_R   0.027413 0.565017 0.301412 0.117653
C14   C     C_R   0.941754 0.465954 0.204174 -0.180162
C15   C     C_R   0.941514 0.440335 0.105019 -0.104249
C16   C     C_R   0.505188 0.201069 0.408217 -0.159032
C17   C     C_R   0.026110 0.513458 0.102080 -0.112804
C18   C     C_R   0.937800 0.576728 0.414021 -0.240316
C19   C     C_R   0.936392 0.588961 0.510935 0.064967
C20   C     C_R   0.037420 0.636063 0.609438 0.047950
C21   C     C_R   0.133104 0.662372 0.605452 -0.230091
C22   C     C_R   0.127275 0.619085 0.503594 0.046013
C23   C     C_R   0.566221 0.197423 0.499020 0.083950
C24   C     C_R   0.032203 0.588596 0.408040 0.030199
C25   C     C_R   0.098001 0.734590 0.810078 -0.167858
C26   C     C_R   0.106106 0.732808 0.905686 -0.181462
C27   C     C_R   0.064112 0.632624 0.903443 -0.163237
C28   C     C_R   0.296345 0.602763 0.590802 -0.132870
C29   C     C_R   0.014550 0.533232 0.805558 0.386736
C30   C     C_R   0.007476 0.535361 0.710077 -0.178910
C31   C     C_R   0.046777 0.635660 0.711316 0.045885
C32   C     C_R   0.441184 0.336331 0.870087 0.139574
C33   C     C_R   0.403627 0.397774 0.829426 -0.001702
C34   C     C_R   0.205079 0.578947 0.499485 0.070839
C35   C     C_R   0.334749 0.428331 0.861588 -0.177586
C36   C     C_R   0.332964 0.427976 0.954811 -0.202362
C37   C     C_R   0.399018 0.395800 0.014835 0.042406
C38   C     C_R   0.440428 0.337621 0.963004 0.108096
C39   C     C_3   0.546832 0.337364 0.007225 -0.571214
C40   C     C_R   0.595873 0.290398 0.591172 -0.142811
C41   C     C_3   0.547332 0.333171 0.904442 0.079263
C42   C     C_R   0.549772 0.926381 0.395096 0.168582
C43   C     C_R   0.593822 0.926178 0.494697 0.030906
C44   C     C_R   0.667164 0.028326 0.592958 -0.193923
C45   C     C_R   0.474503 0.721190 0.407096 -0.144936
C46   C     C_R   0.671130 0.123962 0.593590 -0.204336
C47   C     C_R   0.602422 0.116821 0.495703 0.029318
C48   C     C_R   0.554477 0.020741 0.395673 0.162254
C49   C     C_3   0.442382 0.958301 0.294718 -0.526105
C50   C     C_3   0.436715 0.855270 0.294379 -0.527173
C51   C     C_R   0.968550 0.073479 0.124923 0.163156
C52   C     C_R   0.202267 0.509148 0.408333 -0.153550
C53   C     C_R   0.068552 0.073971 0.168904 0.035362
C54   C     C_R   0.064757 0.971903 0.139609 -0.202222
C55   C     C_R   0.969764 0.876294 0.047613 -0.201690
C56   C     C_R   0.814012 0.566823 0.594169 -0.123769
C57   C     C_R   0.878906 0.883315 0.986148 0.032206
C58   C     C_R   0.874787 0.979105 0.034907 0.163254
C59   C     C_3   0.835633 0.041690 0.986150 -0.529474
C60   C     C_3   0.938246 0.144842 0.084005 -0.518413
C61   C     C_R   0.435201 0.526054 0.749780 -0.118936
C62   C     C_R   0.276224 0.184759 0.249261 -0.125310
C63   C     C_R   0.173268 0.175028 0.224375 0.071133
C64   C     C_3   0.969004 0.425753 0.803068 -1.101312
C65   C     C_3   0.532884 0.224036 0.827589 -0.966120
C66   C     C_R   0.496539 0.404715 0.196628 -0.148991
C67   C     C_R   0.707259 0.799065 0.804182 -0.157912
C68   C     C_R   0.800665 0.709702 0.805783 -0.145224
H1    H     H_    0.125233 0.303349 0.252237 0.112133
H2    H     H_    0.175105 0.669694 0.194511 0.106095
H3    H     H_    0.177407 0.716046 0.370961 0.114638
H4    H     H_    0.554731 0.376000 0.750514 0.112579
H5    H     H_    0.877092 0.407173 0.205779 0.111066
H6    H     H_    0.876532 0.363177 0.030779 0.113991
H7    H     H_    0.863499 0.550373 0.340619 0.126321
H8    H     H_    0.207909 0.696407 0.681625 0.124509
H9    H     H_    0.130173 0.812552 0.812452 0.127190
H10   H     H_    0.144560 0.809140 0.981545 0.130770
H11   H     H_    0.070316 0.632801 0.977991 0.119300
H12   H     H_    0.872185 0.627979 0.679147 0.126891
H13   H     H_    0.969659 0.459200 0.634075 0.125951
H14   H     H_    0.294494 0.466377 0.825482 0.131142
H15   H     H_    0.485971 0.154109 0.324691 0.101146
H16   H     H_    0.291235 0.465397 0.986226 0.124933
H17   H     H_    0.614916 0.415884 0.083669 0.178463
H18   H     H_    0.536597 0.262129 0.012648 0.201630
H19   H     H_    0.618805 0.407597 0.924844 0.132806
H20   H     H_    0.709960 0.033243 0.671179 0.127962
H21   H     H_    0.716693 0.198988 0.672292 0.134760
H22   H     H_    0.380435 0.975366 0.310712 0.199132
H23   H     H_    0.516616 0.341104 0.169250 0.101752
H24   H     H_    0.445527 0.962757 0.222743 0.190262
H25   H     H_    0.371913 0.815060 0.310920 0.195553
H26   H     H_    0.334631 0.665880 0.675354 0.085236
H27   H     H_    0.435698 0.800042 0.221761 0.193500
H28   H     H_    0.138135 0.967064 0.177288 0.124818
H29   H     H_    0.973536 0.801419 0.017895 0.131072
H30   H     H_    0.834388 0.025424 0.907144 0.200846
H31   H     H_    0.759068 0.036399 0.985064 0.190022
H32   H     H_    0.920630 0.199196 0.138786 0.192626
H33   H     H_    0.994509 0.186211 0.059538 0.203005
H34   H     H_    0.670710 0.846010 0.831838 0.101897
H35   H     H_    0.657330 0.322544 0.675510 0.093614
H36   H     H_    0.149199 0.480506 0.322775 0.121779
H37   H     H_    0.381210 0.557436 0.759363 0.095153
H38   H     H_    0.297273 0.120461 0.237919 0.091795
H39   H     H_    0.447311 0.696856 0.321748 0.111474
H40   H     H_    0.930185 0.354897 0.719311 0.263113
H41   H     H_    0.036523 0.422080 0.861271 0.254860
H42   H     H_    0.905305 0.417737 0.827128 0.248104
H43   H     H_    0.463809 0.152653 0.814546 0.258821
H44   H     H_    0.515089 0.215512 0.745677 0.242643
H45   H     H_    0.852704 0.677570 0.835310 0.103045
H46   H     H_    0.609941 0.221300 0.864695 0.248862
H47   H     H_    0.343615 0.518858 0.165420 0.088469
H48   H     H_    0.617062 0.879707 0.677077 0.093778
H49   H     H_    0.705634 0.433108 0.325009 0.093175
H50   H     H_    0.026938 0.492436 0.025991 0.115103
N1    N     N_R   0.291070 0.347930 0.293870 -0.039933
N2    N     N_R   0.497240 0.291100 0.443210 -0.037395
N3    N     N_R   0.347890 0.554050 0.556810 -0.039337
N4    N     N_R   0.554050 0.347900 0.556830 -0.037424
N5    N     N_R   0.291070 0.497250 0.443190 -0.040350
N6    N     N_R   0.497240 0.554030 0.706140 -0.041110
N7    N     N_R   0.347890 0.291110 0.293870 -0.040332
N8    N     N_R   0.445950 0.652100 0.443170 -0.039125
N9    N     N_R   0.708930 0.502750 0.556810 -0.041745
N10   N     N_R   0.502760 0.445970 0.293860 -0.038368
N11   N     N_R   0.652110 0.708890 0.706130 -0.037704
N12   N     N_R   0.708930 0.652070 0.706130 -0.040813
N13   N     N_R   0.445950 0.502780 0.293850 -0.037892
N14   N     N_R   0.502760 0.708900 0.556790 -0.040402
N15   N     N_R   0.652110 0.445950 0.443190 -0.039660
N16   N     N_R   0.554050 0.497220 0.706150 -0.039358
Ni1   Ni    Ni4+2 0.369690 0.500010 0.369700 0.213741
Ni2   Ni    Ni4+2 0.630310 0.499990 0.630300 0.214844
Ni3   Ni    Ni4+2 0.500000 0.369720 0.369720 0.207811
Ni4   Ni    Ni4+2 0.500000 0.630280 0.630280 0.207970

loop_
_geom_bond_atom_site_label_1
_geom_bond_atom_site_label_2
_ccdc_geom_bond_type
C25   C31   A    
N15   Ni3   S    
C18   H7    S    
C6    C45   A    
C27   C29   A    
C53   C63   S    
C59   H31   S    
C65   H46   S    
C35   C36   A    
C49   H22   S    
C43   C44   A    
C3    C6    A    
C57   C58   A    
C39   C41   S    
C46   H21   S    
C53   C54   A    
C5    N15   A    
C21   H8    S    
C26   C27   A    
C26   H10   S    
C61   N6    A    
C18   C24   A    
N6    Ni4   S    
C36   C37   A    
C37   C38   A    
N13   Ni1   S    
C3    H48   S    
C16   N2    A    
C30   C31   A    
C52   N5    A    
C11   H3    S    
C50   H27   S    
C10   C17   A    
N14   Ni4   S    
C23   C40   A    
C28   H26   S    
C18   C19   A    
C1    N1    A    
C56   N9    A    
C65   H43   S    
C13   C14   A    
C46   C47   A    
N11   Ni4   S    
C19   C20   A    
C44   C46   A    
C32   C41   S    
C8    C66   A    
C32   C38   A    
C4    C12   A    
C61   H37   S    
C54   H28   S    
C68   H45   S    
C29   C64   S    
C28   C34   A    
C59   C60   S    
C21   C22   A    
C67   N11   A    
C7    C56   A    
C41   H19   S    
C1    C63   A    
C35   H14   S    
N2    N4    A    
C64   H40   S    
C22   C34   S    
N12   Ni2   S    
C23   C47   S    
C3    N14   A    
C14   H5    S    
N9    Ni2   S    
C9    C57   S    
C5    C7    A    
C28   N3    A    
C41   C65   S    
N7    Ni3   S    
C25   C26   A    
C16   H15   S    
C1    H1    S    
C13   C24   S    
C5    H49   S    
C51   C53   A    
N3    Ni4   S    
N10   Ni3   S    
C9    C67   A    
C65   H44   S    
C29   C30   A    
C2    H47   S    
C64   H42   S    
C47   C48   A    
N8    N14   A    
C45   N8    A    
C55   H29   S    
C62   C63   A    
C2    N13   A    
C51   C58   A    
C42   C48   A    
C68   N12   A    
N4    Ni2   S    
C17   H50   S    
C42   C50   S    
N1    N7    A    
C48   C49   S    
N8    Ni1   S    
C16   C23   A    
C7    C19   S    
C6    C43   S    
C55   C57   A    
C25   H9    S    
C51   C60   S    
C8    C37   S    
C39   H17   S    
C49   H24   S    
C60   H33   S    
N10   N13   A    
C10   H2    S    
C4    H4    S    
C4    N16   A    
N11   N12   A    
C15   C17   A    
C54   C55   A    
C52   H36   S    
C34   C52   A    
C2    C8    A    
N9    N15   A    
C60   H32   S    
C62   N7    A    
N16   Ni2   S    
C50   H25   S    
C66   H23   S    
C62   H38   S    
C40   N4    A    
C27   H11   S    
C56   H12   S    
N6    N16   A    
C32   C33   A    
C30   H13   S    
C58   C59   S    
C9    C68   A    
C40   H35   S    
C12   C61   A    
C11   C13   A    
C64   H41   S    
C38   C39   S    
C36   H16   S    
C33   C35   A    
C66   N10   A    
C22   C24   A    
N1    Ni1   S    
N3    N5    A    
C10   C11   A    
C15   H6    S    
C20   C21   A    
C49   C50   S    
C42   C43   A    
N5    Ni1   S    
C59   H30   S    
C14   C15   A    
N2    Ni3   S    
C39   H18   S    
C12   C33   S    
C44   H20   S    
C45   H39   S    
C67   H34   S    
C20   C31   S    
