data_mof_unit_18803.cif
_audit_creation_date              2012-10-26T20:09:46-0400
_audit_creation_method            fapswitch 2.2
_symmetry_space_group_name_H-M    P1
_symmetry_Int_Tables_number       1
_space_group_crystal_system       triclinic
_cell_length_a                    10.894759
_cell_length_b                    9.649406
_cell_length_c                    15.84254
_cell_angle_alpha                 90.340915
_cell_angle_beta                  90.044933
_cell_angle_gamma                 90.391613
_cell_volume                      1665.42484751

loop_
_atom_site_label
_atom_site_type_symbol
_atom_type_description
_atom_site_fract_x
_atom_site_fract_y
_atom_site_fract_z
_atom_type_partial_charge
C1    C     C_R   0.260106 0.499910 0.505204 0.588515
C2    C     C_3   0.923010 0.366290 0.553657 -0.147079
C3    C     C_3   0.068940 0.521356 0.416068 0.486947
C4    C     C_3   0.120038 0.500556 0.510342 0.002046
C5    C     C_3   0.875101 0.501614 0.510088 -0.102214
C6    C     C_R   0.498932 0.499717 0.340864 0.528209
C7    C     C_3   0.924098 0.507874 0.415877 0.488588
C8    C     C_3   0.621717 0.084925 0.475927 0.196159
C9    C     C_3   0.626395 0.920823 0.485413 0.140591
C10   C     C_3   0.483628 0.082950 0.589380 0.171074
C11   C     C_3   0.469059 0.916553 0.587044 0.193855
C12   C     C_3   0.619787 0.525838 0.952302 -0.305579
C13   C     C_3   0.397363 0.082088 0.447507 0.339566
C14   C     C_3   0.410271 0.915667 0.436817 0.311755
C15   C     C_R   0.738097 0.500466 0.505200 0.592023
C16   C     C_R   0.499477 0.500361 0.659136 0.621491
C17   C     C_3   0.405368 0.621038 0.050351 0.198811
C18   C     C_3   0.439267 0.355069 0.048659 0.117750
C19   C     C_3   0.439866 0.355114 0.948581 0.323478
C20   C     C_3   0.403031 0.624031 0.950518 0.255969
C21   C     C_1   0.497039 0.501422 0.748629 0.063912
C22   C     C_3   0.485485 0.498611 0.083194 -0.028908
C23   C     C_3   0.618165 0.521773 0.049826 -0.305126
C24   C     C_3   0.487889 0.501766 0.916616 -0.043936
C25   C     C_2   0.380688 0.148842 0.359784 0.671329
C26   C     C_2   0.438879 0.872932 0.343525 0.608236
C27   C     C_2   0.523143 0.238911 0.916012 0.615727
C28   C     C_2   0.447803 0.765972 0.919066 0.605109
C29   C     C_2   0.120589 0.623727 0.658537 0.655210
C30   C     C_2   0.127611 0.298703 0.625450 0.699466
C31   C     C_2   0.855397 0.686793 0.634683 0.619621
C32   C     C_2   0.868312 0.338199 0.641061 0.631463
C33   C     C_1   0.493767 0.502265 0.824112 -0.021205
C34   C     C_1   0.489688 0.499068 0.175636 -0.005291
C35   C     C_1   0.494244 0.499278 0.251215 0.050271
C36   C     C_3   0.070327 0.627887 0.567689 0.161628
C37   C     C_3   0.067058 0.354764 0.544675 0.129856
C38   C     C_3   0.925813 0.633765 0.558030 -0.111725
Cu1   Cu    Cu3+1 0.499860 0.642410 0.500040 1.075697
Cu2   Cu    Cu3+1 0.499860 0.357590 0.500040 1.144398
H1    H     H_    0.907317 0.719808 0.513346 0.203520
H2    H     H_    0.679212 0.437399 0.072034 0.192010
H3    H     H_    0.658979 0.625720 0.930567 0.188285
H4    H     H_    0.685245 0.448316 0.927297 0.190161
H5    H     H_    0.280302 0.597014 0.860270 0.357644
H6    H     H_    0.257285 0.372216 0.947350 0.400777
H7    H     H_    0.187348 0.656394 0.368817 0.364546
H8    H     H_    0.205755 0.439742 0.350557 0.334178
H9    H     H_    0.795265 0.602295 0.350231 0.353232
H10   H     H_    0.928051 0.306984 0.384842 0.372474
H11   H     H_    0.745461 0.119396 0.389857 0.362025
H12   H     H_    0.883577 0.278989 0.516328 0.125560
H13   H     H_    0.654328 0.778272 0.398636 0.394150
H14   H     H_    0.259339 0.047366 0.530605 0.408962
H15   H     H_    0.232722 0.900065 0.413941 0.366320
H16   H     H_    0.447785 0.194335 0.244055 0.317124
H17   H     H_    0.550426 0.876120 0.241545 0.352898
H18   H     H_    0.395782 0.123042 0.693404 0.351684
H19   H     H_    0.348031 0.883560 0.675004 0.363066
H20   H     H_    0.239168 0.543139 0.064612 0.408291
H21   H     H_    0.332947 0.292147 0.140487 0.347668
H22   H     H_    0.683569 0.135952 0.925510 0.353855
H23   H     H_    0.693200 0.127143 0.519565 0.124117
H24   H     H_    0.567162 0.925518 0.930641 0.372436
H25   H     H_    0.083957 0.831583 0.569713 0.365198
H26   H     H_    0.052759 0.164326 0.498057 0.351164
H27   H     H_    0.092145 0.617032 0.784477 0.362835
H28   H     H_    0.249564 0.321598 0.720549 0.373727
H29   H     H_    0.728930 0.654753 0.725296 0.334347
H30   H     H_    0.875754 0.364289 0.767355 0.361997
H31   H     H_    0.685913 0.900059 0.541197 0.128992
H32   H     H_    0.567520 0.106954 0.627686 0.122136
H33   H     H_    0.535595 0.875143 0.634164 0.104231
H34   H     H_    0.504465 0.275506 0.072362 0.164646
H35   H     H_    0.450151 0.717091 0.074793 0.192332
H36   H     H_    0.656670 0.620793 0.075179 0.176285
N1    N     N_3   0.500250 0.143650 0.501830 -0.246788
N2    N     N_3   0.500250 0.856350 0.501830 -0.269204
O1    O     O_R   0.317570 0.620260 0.500050 -0.375235
O2    O     O_3   0.322177 0.326089 0.914256 -0.622911
O3    O     O_3   0.100039 0.654888 0.385941 -0.556506
O4    O     O_3   0.116991 0.421814 0.359158 -0.571110
O5    O     O_3   0.875889 0.626564 0.375828 -0.577590
O6    O     O_3   0.882790 0.390883 0.368583 -0.643200
O7    O     O_3   0.655001 0.128608 0.394851 -0.542655
O8    O     O_3   0.693525 0.863946 0.418139 -0.620376
O9    O     O_3   0.285022 0.114818 0.487516 -0.593163
O10   O     O_3   0.294252 0.857280 0.452118 -0.582500
O11   O     O_2   0.279305 0.190515 0.338880 -0.436055
O12   O     O_R   0.317570 0.379740 0.500050 -0.400620
O13   O     O_R   0.474824 0.155028 0.300062 -0.600188
O14   O     O_2   0.361268 0.809144 0.302534 -0.486748
O15   O     O_R   0.546873 0.911176 0.301981 -0.606578
O16   O     O_3   0.385943 0.145319 0.632678 -0.603654
O17   O     O_3   0.351744 0.872952 0.612687 -0.561752
O18   O     O_3   0.287296 0.622517 0.086825 -0.594746
O19   O     O_3   0.322742 0.319581 0.080757 -0.677788
O20   O     O_2   0.492727 0.171222 0.853751 -0.465449
O21   O     O_R   0.634737 0.209985 0.955921 -0.745923
O22   O     O_2   0.397707 0.820314 0.858634 -0.456684
O23   O     O_R   0.499890 0.620310 0.379470 -0.537753
O24   O     O_R   0.545739 0.834657 0.958765 -0.735605
O25   O     O_3   0.115373 0.753479 0.534818 -0.591446
O26   O     O_3   0.090450 0.254451 0.481749 -0.624134
O27   O     O_2   0.230888 0.638736 0.669672 -0.447293
O28   O     O_R   0.045021 0.614526 0.729351 -0.615346
O29   O     O_2   0.093562 0.186639 0.653148 -0.459421
O30   O     O_R   0.224105 0.367567 0.665944 -0.650259
O31   O     O_2   0.875187 0.804859 0.660141 -0.489425
O32   O     O_R   0.766963 0.605664 0.675069 -0.667257
O33   O     O_2   0.778364 0.262438 0.647382 -0.519716
O34   O     O_R   0.499890 0.379690 0.379470 -0.459674
O35   O     O_R   0.921193 0.392642 0.714281 -0.611199
O36   O     O_R   0.682190 0.620260 0.500020 -0.537172
O37   O     O_R   0.682190 0.379740 0.500020 -0.485625
O38   O     O_R   0.499870 0.620210 0.620600 -0.477600
O39   O     O_R   0.499870 0.379790 0.620600 -0.440970
O40   O     O_3   0.280652 0.607008 0.922605 -0.673239

loop_
_geom_bond_atom_site_label_1
_geom_bond_atom_site_label_2
_ccdc_geom_bond_type
H5    O40   S    
C7    O5    S    
C4    C36   S    
C27   O20   D    
C1    O12   A    
C32   O33   D    
C30   O29   D    
C23   H36   S    
C13   C25   S    
H11   O7    S    
C20   O40   S    
H10   O6    S    
Cu2   O34   S    
H24   O24   S    
C29   C36   S    
C27   O21   S    
C16   C21   S    
C23   H2    S    
C36   O25   S    
C8    O7    S    
C12   H3    S    
C3    C7    S    
H14   O9    S    
Cu2   O37   S    
C21   C33   T    
C10   O16   S    
C26   O14   D    
C17   C20   S    
C6    C35   S    
C2    C32   S    
C34   C35   T    
C6    O23   A    
H15   O10   S    
H16   O13   S    
C20   C24   S    
C8    C9    S    
C3    O3    S    
H13   O8    S    
C18   O19   S    
C32   O35   S    
C19   C27   S    
C28   O22   D    
C26   O15   S    
C14   N2    S    
Cu2   O39   S    
C18   H34   S    
H17   O15   S    
C5    C38   S    
C29   O27   D    
H19   O17   S    
C16   O38   A    
C10   N1    S    
Cu1   O23   S    
C4    C37   S    
H30   O35   S    
C22   C34   S    
C13   N1    S    
C25   O13   S    
Cu1   N2    S    
H26   O26   S    
C38   H1    S    
C11   H33   S    
Cu1   Cu2   S    
C5    C7    S    
C18   C19   S    
C20   C28   S    
C30   C37   S    
Cu1   O1    S    
C11   N2    S    
C9    O8    S    
H29   O32   S    
C12   C23   S    
Cu1   O36   S    
C13   O9    S    
C3    O4    S    
C31   O31   D    
C15   O36   A    
C17   O18   S    
C14   C26   S    
C2    H12   S    
H20   O18   S    
C8    N1    S    
C1    O1    A    
C15   O37   A    
C29   O28   S    
C2    C5    S    
H25   O25   S    
C3    C4    S    
C11   O17   S    
C30   O30   S    
C18   C22   S    
C6    O34   A    
H21   O19   S    
C9    H31   S    
C37   O26   S    
Cu2   N1    S    
H27   O28   S    
C12   C24   S    
C25   O11   D    
C24   C33   S    
C31   C38   S    
C1    C4    S    
H9    O5    S    
C36   C38   S    
C19   C24   S    
H18   O16   S    
C14   O10   S    
C12   H4    S    
C16   O39   A    
H6    O2    S    
C2    C37   S    
C31   O32   S    
H8    O4    S    
C7    O6    S    
C9    N2    S    
H7    O3    S    
C19   O2    S    
C5    C15   S    
C10   C11   S    
C8    H23   S    
H22   O21   S    
C28   O24   S    
C17   C22   S    
Cu1   O38   S    
C17   H35   S    
C22   C23   S    
H28   O30   S    
Cu2   O12   S    
C13   C14   S    
C10   H32   S    
