data_mof_unit_54374.cif
_audit_creation_date              2013-03-05T16:12:31-0500
_audit_creation_method            fapswitch 2.2
_symmetry_space_group_name_H-M    P1
_symmetry_Int_Tables_number       1
_space_group_crystal_system       triclinic
_cell_length_a                    23.801906
_cell_length_b                    7.256571
_cell_length_c                    20.691571
_cell_angle_alpha                 89.463807
_cell_angle_beta                  105.283824
_cell_angle_gamma                 89.72934
_cell_volume                      3447.20550413

loop_
_atom_site_label
_atom_site_type_symbol
_atom_site_description
_atom_site_fract_x
_atom_site_fract_y
_atom_site_fract_z
_atom_type_partial_charge
O1    O     O_R   0.449110 0.494310 0.552140 -0.600456
O2    O     O_R   0.550890 0.994310 0.447860 -0.600456
O3    O     O_R   0.440010 0.824420 0.415850 -0.574463
O4    O     O_R   0.559990 0.324420 0.584150 -0.567742
C1    C     C_R   0.425092 0.656361 0.391515 1.012584
C2    C     C_R   0.574197 0.154056 0.609048 1.011967
O5    O     O_R   0.442260 0.824040 0.549660 -0.587492
O6    O     O_R   0.557740 0.324040 0.450340 -0.584739
O7    O     O_R   0.553160 0.993960 0.582620 -0.590681
O8    O     O_R   0.446840 0.493960 0.417380 -0.587297
C3    C     C_R   0.428692 0.655366 0.567444 0.960915
C4    C     C_R   0.571608 0.155678 0.432838 0.949277
O9    O     O_3   0.536380 0.660670 0.510660 -0.282862
O10   O     O_3   0.463620 0.160670 0.489340 -0.281433
V1    V     V_3+5 0.493250 0.935680 0.498020 1.204487
V2    V     V_3+5 0.506750 0.435680 0.501980 1.212337
C5    C     C_R   0.832614 0.916367 0.182028 0.164472
C6    C     C_R   0.176774 0.411347 0.828956 0.157946
C7    C     C_R   0.873516 0.907785 0.143602 -0.187295
C8    C     C_R   0.135596 0.403490 0.867114 -0.197192
H1    H     H_    0.896221 0.779096 0.141553 0.132431
H2    H     H_    0.115245 0.273212 0.872296 0.137849
C9    C     C_R   0.882119 0.060043 0.104334 -0.117118
C10   C     C_R   0.120433 0.561925 0.898271 -0.165552
C11   C     C_R   0.844657 0.215815 0.100596 0.113248
C12   C     C_R   0.151631 0.727621 0.894038 0.186476
C13   C     C_R   0.812493 0.233235 0.148372 -0.277646
C14   C     C_R   0.189630 0.734286 0.852421 -0.259371
H3    H     H_    0.786743 0.355004 0.148049 0.157696
H4    H     H_    0.213199 0.857637 0.849165 0.151534
C15   C     C_R   0.806898 0.086693 0.190142 0.112741
C16   C     C_R   0.200584 0.581491 0.817723 0.104485
C17   C     C_1   0.768389 0.105110 0.234312 -0.036768
C18   C     C_1   0.238845 0.599323 0.773382 -0.032561
C19   C     C_1   0.735892 0.116341 0.270664 -0.060328
C20   C     C_1   0.270421 0.611368 0.736106 -0.062190
C21   C     C_R   0.675299 0.965881 0.336308 -0.128497
C22   C     C_R   0.327042 0.463335 0.666092 -0.132900
H5    H     H_    0.689892 0.832312 0.324223 0.107933
H6    H     H_    0.311862 0.329735 0.677513 0.109277
C23   C     C_R   0.635164 0.975052 0.375127 -0.139177
C24   C     C_R   0.365590 0.473647 0.625406 -0.117568
H7    H     H_    0.619800 0.847217 0.391541 0.137484
H8    H     H_    0.379310 0.346573 0.606940 0.138640
C25   C     C_R   0.615179 0.146399 0.392302 -0.113909
C26   C     C_R   0.386188 0.645217 0.609107 -0.107745
C27   C     C_R   0.637314 0.308073 0.370072 -0.115557
C28   C     C_R   0.366238 0.806108 0.633921 -0.125193
H9    H     H_    0.623470 0.442634 0.382358 0.130753
H10   H     H_    0.380719 0.940766 0.622405 0.130207
C29   C     C_R   0.677385 0.298327 0.331085 -0.137650
C30   C     C_R   0.327778 0.795192 0.674786 -0.137695
H11   H     H_    0.693483 0.424818 0.314787 0.118846
H12   H     H_    0.313348 0.921008 0.693156 0.118660
C31   C     C_R   0.696212 0.127202 0.313329 0.179121
C32   C     C_R   0.308489 0.623673 0.691793 0.177216
C33   C     C_R   0.633736 0.018824 0.789932 0.190052
C34   C     C_R   0.360846 0.600551 0.206855 0.193963
H13   H     H_    0.549530 0.046500 0.719480 0.122180
H14   H     H_    0.445200 0.657673 0.272366 0.124032
H15   H     H_    0.718208 0.913095 0.898754 0.167644
H16   H     H_    0.280275 0.448255 0.104761 0.182462
C35   C     C_R   0.616751 0.134404 0.675373 -0.264501
C36   C     C_R   0.380186 0.648585 0.326767 -0.254944
C37   C     C_R   0.900093 0.094560 0.766104 -0.006067
C38   C     C_R   0.093267 0.622318 0.229275 -0.002987
C39   C     C_R   0.861072 0.070455 0.702246 0.348344
C40   C     C_R   0.131045 0.697470 0.287327 0.358070
C41   C     C_R   0.801481 0.065400 0.696124 -0.171415
C42   C     C_R   0.191086 0.697980 0.294970 -0.176812
C43   C     C_R   0.779008 0.071872 0.752251 0.062678
C44   C     C_R   0.216623 0.613558 0.248703 0.064990
C45   C     C_R   0.818567 0.032959 0.816057 -0.079322
C46   C     C_R   0.178832 0.545822 0.188111 -0.071822
C47   C     C_R   0.717427 0.089602 0.744801 -0.038056
C48   C     C_R   0.278900 0.607329 0.258979 -0.033168
C49   C     C_R   0.694993 0.029701 0.798642 0.064196
C50   C     C_R   0.300895 0.573667 0.202550 0.048041
C51   C     C_R   0.734051 0.969892 0.858545 -0.320276
C52   C     C_R   0.263361 0.500269 0.144692 -0.326859
C53   C     C_R   0.794311 0.967193 0.867496 0.319541
C54   C     C_R   0.204707 0.469744 0.140215 0.315110
C55   C     C_R   0.677220 0.159527 0.684881 0.262936
C56   C     C_R   0.320226 0.628509 0.323012 0.269048
C57   C     C_R   0.596088 0.064671 0.727652 -0.272437
C58   C     C_R   0.399156 0.641979 0.268677 -0.286720
C59   C     C_R   0.880293 0.057824 0.824299 -0.207698
C60   C     C_R   0.116692 0.559553 0.176889 -0.188600
H17   H     H_    0.772914 0.046602 0.646658 0.196313
H18   H     H_    0.217178 0.773613 0.336750 0.197159
O11   O     O_R   0.053190 0.709680 0.082610 -0.597368
O12   O     O_R   0.946810 0.209680 0.917390 -0.595668
O13   O     O_R   0.057740 0.380240 0.950340 -0.567439
O14   O     O_R   0.942260 0.880240 0.049660 -0.555225
C61   C     C_R   0.073386 0.549795 0.934929 0.916796
C62   C     C_R   0.927302 0.049260 0.065709 0.946325
O15   O     O_R   0.060000 0.379940 0.084150 -0.526052
O16   O     O_R   0.940000 0.879940 0.915850 -0.529874
O17   O     O_R   0.949110 0.210100 0.052140 -0.617237
O18   O     O_R   0.050890 0.710100 0.947860 -0.616931
C63   C     C_R   0.075763 0.547912 0.108410 0.912070
C64   C     C_R   0.924151 0.049213 0.891454 0.926138
O19   O     O_3   0.963630 0.543720 0.989330 -0.255343
O20   O     O_3   0.036370 0.043720 0.010670 -0.283662
V3    V     V_3+5 0.006750 0.268680 0.001980 1.207411
V4    V     V_3+5 0.993250 0.768680 0.998020 1.209939
C65   C     C_3   0.809237 0.741733 0.204767 -0.444857
C66   C     C_3   0.747675 0.705814 0.158989 -0.206096
C67   C     C_3   0.711559 0.586533 0.193531 -0.977312
H19   H     H_    0.673733 0.529235 0.155768 0.255189
H20   H     H_    0.738165 0.472165 0.221691 0.273981
H21   H     H_    0.695123 0.671013 0.229059 0.258632
H22   H     H_    0.722890 0.836030 0.143185 0.204211
H23   H     H_    0.751546 0.639351 0.112223 0.190325
H24   H     H_    0.837906 0.622481 0.202186 0.177239
H25   H     H_    0.808411 0.754943 0.258010 0.214918
C68   C     C_3   0.199822 0.237535 0.805779 -0.444218
C69   C     C_3   0.261840 0.196576 0.850464 -0.211601
C70   C     C_3   0.298088 0.085026 0.813944 -0.961207
H26   H     H_    0.338035 0.031827 0.850289 0.255651
H27   H     H_    0.272911 0.967757 0.787651 0.269672
H28   H     H_    0.311188 0.173921 0.776677 0.256642
H29   H     H_    0.286035 0.325554 0.867471 0.203146
H30   H     H_    0.259126 0.121675 0.896514 0.188642
H31   H     H_    0.170356 0.120980 0.807562 0.168022
H32   H     H_    0.200002 0.254065 0.752346 0.215511
C71   C     C_3   0.606485 0.947629 0.843988 -0.434163
C72   C     C_3   0.608893 0.092394 0.898200 -0.254912
C73   C     C_3   0.582600 0.019116 0.953033 -0.920236
H33   H     H_    0.536244 0.981927 0.931584 0.262240
H34   H     H_    0.607247 0.895815 0.977752 0.261780
H35   H     H_    0.584857 0.126921 0.991357 0.249885
H36   H     H_    0.654509 0.132397 0.921621 0.200673
H37   H     H_    0.584365 0.217771 0.875131 0.200775
H38   H     H_    0.559984 0.912250 0.821894 0.187255
H39   H     H_    0.627747 0.816566 0.865981 0.186711
C74   C     C_3   0.386086 0.583960 0.147072 -0.447806
C75   C     C_3   0.406428 0.385817 0.140313 -0.231992
C76   C     C_3   0.428294 0.365202 0.077733 -0.923827
H40   H     H_    0.392777 0.397747 0.032102 0.262236
H41   H     H_    0.465531 0.458878 0.079955 0.262135
H42   H     H_    0.443068 0.221038 0.074440 0.250093
H43   H     H_    0.442265 0.348388 0.185111 0.197362
H44   H     H_    0.370130 0.287845 0.137421 0.203873
H45   H     H_    0.354053 0.630929 0.100407 0.190668
H46   H     H_    0.423860 0.678053 0.153135 0.188876
N1    N     N_R   0.696748 0.270583 0.637219 0.226672
O21   O     O_R   0.679455 0.236845 0.573402 -0.415827
O22   O     O_R   0.731274 0.408838 0.657707 -0.373106
N2    N     N_R   0.303554 0.600343 0.384245 0.215944
O23   O     O_R   0.274619 0.453955 0.392224 -0.355932
O24   O     O_R   0.319475 0.715893 0.433301 -0.413602
C77   C     C_3   0.959880 0.175760 0.769867 -0.437893
C78   C     C_3   0.952500 0.369588 0.737302 -0.185994
C79   C     C_3   0.010410 0.465476 0.744196 -0.856781
H47   H     H_    0.027275 0.511530 0.796331 0.234172
H48   H     H_    0.042353 0.372121 0.730272 0.266943
H49   H     H_    0.003845 0.589420 0.711086 0.279587
H50   H     H_    0.930429 0.360976 0.683063 0.242043
H51   H     H_    0.924961 0.456638 0.760918 0.213209
H52   H     H_    0.987403 0.187064 0.821831 0.189805
H53   H     H_    0.984670 0.085046 0.744313 0.228936
C80   C     C_3   0.028282 0.605210 0.224216 -0.429772
C81   C     C_3   0.017420 0.454004 0.271760 -0.176450
C82   C     C_3   0.952560 0.434252 0.266366 -0.890853
H54   H     H_    0.935030 0.564149 0.281618 0.266822
H55   H     H_    0.928442 0.401356 0.214158 0.248329
H56   H     H_    0.945848 0.320877 0.299899 0.278188
H57   H     H_    0.034493 0.320268 0.258825 0.226019
H58   H     H_    0.040341 0.486189 0.324447 0.241260
H59   H     H_    0.010032 0.738878 0.234821 0.231198
H60   H     H_    0.002542 0.569545 0.173040 0.177728
N3    N     N_R   0.881152 0.056561 0.642669 0.233716
O25   O     O_R   0.850299 0.126772 0.586269 -0.342978
O26   O     O_R   0.925282 0.950626 0.642195 -0.391946
N4    N     N_R   0.109132 0.781215 0.338513 0.233889
O27   O     O_R   0.071772 0.916530 0.323367 -0.406157
O28   O     O_R   0.134833 0.747901 0.401281 -0.330597
N5    N     N_R   0.827399 0.857184 0.922063 0.214840
O29   O     O_R   0.846584 0.698083 0.908250 -0.390006
O30   O     O_R   0.818883 0.878705 0.981035 -0.495307
N6    N     N_R   0.175568 0.332421 0.094808 0.221573
O31   O     O_R   0.156588 0.187637 0.119792 -0.407629
O32   O     O_R   0.182568 0.325219 0.034603 -0.471042
C83   C     C_3   0.829529 0.348904 0.041168 -0.322404
C84   C     C_3   0.765346 0.325034 0.001653 -0.338680
C85   C     C_3   0.749643 0.438862 0.937027 -0.790259
H61   H     H_    0.778262 0.401234 0.904539 0.282039
H62   H     H_    0.703853 0.412445 0.909083 0.214660
H63   H     H_    0.753557 0.587480 0.948862 0.296364
H64   H     H_    0.757119 0.177715 0.988750 0.235546
H65   H     H_    0.735826 0.366848 0.032572 0.196380
H66   H     H_    0.837086 0.492742 0.059326 0.199593
H67   H     H_    0.856137 0.324845 0.005594 0.219208
C86   C     C_3   0.149474 0.896500 0.935864 -0.429520
C87   C     C_3   0.175274 0.855918 0.010851 -0.097827
C88   C     C_3   0.241609 0.871110 0.031331 -0.882140
H68   H     H_    0.255324 0.009142 0.017848 0.270333
H69   H     H_    0.258031 0.852864 0.086395 0.252252
H70   H     H_    0.261242 0.763194 0.006227 0.252450
H71   H     H_    0.156878 0.956194 0.039391 0.260302
H72   H     H_    0.162827 0.717430 0.025205 0.159622
H73   H     H_    0.173947 0.012346 0.921363 0.185286
H74   H     H_    0.104621 0.952471 0.925403 0.191669

loop_
_geom_bond_atom_site_label_1
_geom_bond_atom_site_label_2
_geom_bond_distance
_ccdc_geom_bond_type
C66   H22   1.111341 S    
C38   C40   1.412878 A    
C82   H54   1.110613 S    
C79   H48   1.110980 S    
C81   H58   1.110441 S    
N1    O21   1.301337 A    
O1    C3    1.336061 A    
C83   H67   1.104771 S    
C44   C48   1.441354 A    
O2    C4    1.338075 A    
C72   C73   1.525745 S    
C48   C56   1.436938 A    
C2    O7    1.331328 A    
C60   C63   1.496390 S    
C40   N4    1.436435 S    
C27   H9    1.082793 S    
N3    O25   1.301654 A    
C9    C62   1.501629 S    
O5    C3    1.340083 A    
C39   C41   1.391057 A    
C74   H45   1.110437 S    
C81   C82   1.525736 S    
C7    H1    1.083488 S    
C48   C50   1.422486 A    
C22   C24   1.401032 A    
C75   H43   1.112121 S    
C5    C65   1.506785 S    
C38   C60   1.420805 A    
C76   H42   1.110495 S    
C50   C52   1.402704 A    
C86   H73   1.108190 S    
C1    O8    1.334002 A    
C62   O17   1.336760 A    
C66   C67   1.522638 S    
C6    C8    1.412418 A    
C41   C43   1.401900 A    
C24   C26   1.410405 A    
C66   H23   1.110300 S    
C84   H64   1.110045 S    
C88   H69   1.109213 S    
C39   N3    1.438993 S    
N6    O31   1.301013 A    
C45   C59   1.446094 A    
C85   H63   1.107061 S    
C37   C77   1.525980 S    
O13   V3    1.986661 S    
C69   C70   1.522881 S    
C36   C56   1.416978 A    
C77   C78   1.542962 S    
C8    C10   1.414313 A    
C14   H4    1.069581 S    
C37   C39   1.413508 A    
C65   C66   1.545557 S    
C15   C17   1.461545 S    
C80   H59   1.108122 S    
C68   H32   1.112118 S    
C29   C31   1.402806 A    
O12   C64   1.341572 A    
C73   H35   1.110519 S    
O15   V3    2.012040 S    
C49   C51   1.402709 A    
O6    V2    1.990372 S    
C22   H6    1.081809 S    
C35   C57   1.393080 A    
C79   H49   1.110591 S    
N3    O26   1.300881 A    
C23   H7    1.082774 S    
O11   V4    1.986455 S    
C81   H57   1.112228 S    
C42   H18   1.078575 S    
C24   H8    1.082810 S    
O11   C63   1.335197 A    
C41   H17   1.079412 S    
C12   C86   1.515291 S    
C34   C58   1.397501 A    
C36   C58   1.392068 A    
O20   V3    1.763811 S    
C30   H12   1.080912 S    
C37   C59   1.427407 A    
C25   C27   1.410339 A    
O17   V3    1.971820 S    
C76   H40   1.111321 S    
C26   C28   1.409511 A    
C19   C31   1.455266 S    
C84   H65   1.110694 S    
C33   C49   1.423871 A    
C74   H46   1.112772 S    
C14   C16   1.386958 A    
C71   H39   1.110705 S    
C53   N5    1.428542 S    
C44   C46   1.429593 A    
C10   C61   1.511469 S    
C51   C53   1.396972 A    
H14   C58   1.084962 S    
C61   O18   1.336768 A    
C4    C25   1.497496 S    
C27   C29   1.404109 A    
C86   H74   1.106336 S    
O16   C64   1.337749 A    
C13   C15   1.392962 A    
C28   H10   1.082842 S    
N5    O29   1.301214 A    
C1    C36   1.479040 S    
C77   H52   1.105794 S    
C29   H11   1.081068 S    
C16   C18   1.458508 S    
C2    C35   1.480469 S    
O4    V2    1.994292 S    
C88   H70   1.110665 S    
C7    C9    1.412767 A    
C75   H44   1.111218 S    
H13   C57   1.084914 S    
C78   H51   1.112737 S    
C20   C32   1.451527 S    
C72   H37   1.111927 S    
C59   C64   1.502507 S    
C72   H36   1.107334 S    
O6    C4    1.341723 A    
O1    V2    1.973297 S    
C69   H30   1.109328 S    
C73   H34   1.111138 S    
O14   C62   1.344313 A    
O2    V1    1.971903 S    
C47   C49   1.421932 A    
C6    C68   1.505071 S    
C65   H24   1.109871 S    
C78   C79   1.520427 S    
C70   H27   1.104923 S    
C11   C83   1.521667 S    
C45   C53   1.418098 A    
C55   N1    1.438211 S    
C34   C74   1.516403 S    
C52   C54   1.393483 A    
N4    O27   1.300848 A    
C8    H2    1.081522 S    
C82   H56   1.110311 S    
C5    C15   1.407620 A    
N2    O24   1.301198 A    
C67   H21   1.107727 S    
O4    C2    1.341782 A    
C6    C16   1.403661 A    
C87   H72   1.108832 S    
C71   C72   1.534225 S    
O3    V1    2.011944 S    
C43   C45   1.429850 A    
C73   H33   1.110900 S    
C46   C54   1.412467 A    
C70   H28   1.107843 S    
H16   C52   1.080270 S    
O14   V4    1.990134 S    
N1    O22   1.301414 A    
N2    O23   1.301369 A    
C12   C14   1.404328 A    
C80   H60   1.108252 S    
C10   C12   1.430232 A    
C83   H66   1.111958 S    
C87   C88   1.527878 S    
O3    C1    1.337236 A    
C33   C71   1.521014 S    
C70   H26   1.110291 S    
C11   C13   1.407033 A    
C74   C75   1.534356 S    
C54   N6    1.427341 S    
O18   V4    1.973217 S    
O16   V4    1.994387 S    
C77   H53   1.108328 S    
C67   H20   1.104868 S    
C87   H71   1.100582 S    
C78   H50   1.109137 S    
C21   H5    1.081558 S    
O8    V2    1.985194 S    
C68   C69   1.547061 S    
C43   C47   1.437871 A    
C76   H41   1.111096 S    
C47   C55   1.438269 A    
C83   C84   1.542393 S    
O13   C61   1.346782 A    
C13   H3    1.071971 S    
H15   C51   1.079210 S    
O5    V1    1.986893 S    
C17   C19   1.215701 T    
C33   C57   1.398113 A    
C38   C80   1.528272 S    
O19   V4    1.773065 S    
C18   C20   1.213422 T    
C69   H29   1.111694 S    
C9    C11   1.425233 A    
C21   C23   1.402535 A    
C88   H68   1.110650 S    
C71   H38   1.112694 S    
N6    O32   1.301119 A    
C65   H25   1.112046 S    
C85   H62   1.109390 S    
C80   C81   1.534638 S    
C75   C76   1.525823 S    
C34   C50   1.420607 A    
C86   C87   1.535811 S    
C21   C31   1.401453 A    
C5    C7    1.411501 A    
O12   V3    1.996396 S    
C28   C30   1.402409 A    
C22   C32   1.400735 A    
C85   H61   1.110663 S    
C82   H55   1.110274 S    
O9    V2    1.773356 S    
C35   C55   1.413271 A    
C79   H47   1.102836 S    
C40   C42   1.395810 A    
C23   C25   1.410821 A    
O10   V1    1.764103 S    
C3    C26   1.493773 S    
C42   C44   1.405521 A    
C46   C60   1.438243 A    
C84   C85   1.524140 S    
C67   H19   1.110305 S    
C68   H31   1.107820 S    
O15   C63   1.339756 A    
C30   C32   1.402185 A    
O7    V1    1.995017 S    
N4    O28   1.301274 A    
N5    O30   1.299250 A    
C56   N2    1.437199 S    
