data_mof_unit_52682.cif
_audit_creation_date              2013-03-05T15:48:00-0500
_audit_creation_method            fapswitch 2.2
_symmetry_space_group_name_H-M    P1
_symmetry_Int_Tables_number       1
_space_group_crystal_system       triclinic
_cell_length_a                    38.549482
_cell_length_b                    21.999017
_cell_length_c                    21.905959
_cell_angle_alpha                 90.34051
_cell_angle_beta                  123.775281
_cell_angle_gamma                 89.849763
_cell_volume                      15441.6802936

loop_
_atom_site_label
_atom_site_type_symbol
_atom_site_description
_atom_site_fract_x
_atom_site_fract_y
_atom_site_fract_z
_atom_type_partial_charge
O1    O     O_R   0.000000 0.052190 0.590160 -0.573701
O2    O     O_R   0.000000 0.052190 0.409840 -0.565914
O3    O     O_R   0.500000 0.552190 0.590160 -0.553007
O4    O     O_R   0.500000 0.552190 0.409840 -0.546475
O5    O     O_R   0.000010 0.947820 0.590100 -0.567009
O6    O     O_R   0.999990 0.947820 0.409900 -0.568357
O7    O     O_R   0.500010 0.447820 0.590100 -0.571207
O8    O     O_R   0.499990 0.447820 0.409900 -0.573585
C1    C     C_R   0.000329 0.000559 0.618715 0.741215
C2    C     C_R   0.999341 0.000128 0.381127 0.740573
C3    C     C_R   0.500491 0.499982 0.618538 0.741157
C4    C     C_R   0.499707 0.499622 0.381674 0.743965
O9    O     O_R   0.939540 0.052180 0.439540 -0.565697
O10   O     O_R   0.060460 0.052180 0.560460 -0.555608
O11   O     O_R   0.439540 0.552180 0.439540 -0.542775
O12   O     O_R   0.560460 0.552180 0.560460 -0.568632
O13   O     O_R   0.939550 0.947820 0.439470 -0.552501
O14   O     O_R   0.060450 0.947820 0.560530 -0.557050
O15   O     O_R   0.439550 0.447820 0.439470 -0.561718
O16   O     O_R   0.560450 0.447820 0.560530 -0.549887
C5    C     C_R   0.920082 0.000127 0.420660 0.759829
C6    C     C_R   0.079942 0.000177 0.579754 0.763768
C7    C     C_R   0.420008 0.500283 0.420693 0.749573
C8    C     C_R   0.579981 0.500303 0.579065 0.745087
Cu1   Cu    Cu3+1 0.000000 0.061800 0.500000 1.123908
Cu2   Cu    Cu3+1 0.500000 0.561800 0.500000 1.138039
Cu3   Cu    Cu3+1 0.000000 0.938210 0.500000 1.095434
Cu4   Cu    Cu3+1 0.500000 0.438210 0.500000 1.095138
C9    C     C_3   0.734550 0.037771 0.282563 0.224190
C10   C     C_3   0.264819 0.050177 0.727308 0.227204
C11   C     C_3   0.233989 0.547117 0.280596 0.198582
C12   C     C_3   0.766393 0.544853 0.720288 0.223536
C13   C     C_3   0.762564 0.981385 0.316576 0.174590
C14   C     C_3   0.237328 0.996528 0.679499 0.183028
C15   C     C_3   0.262847 0.492906 0.322381 0.159053
C16   C     C_3   0.737459 0.490261 0.679807 0.166598
C17   C     C_1   0.875325 0.001138 0.377712 -0.073259
C18   C     C_1   0.124755 0.001333 0.623623 -0.065452
C19   C     C_1   0.375133 0.502420 0.378035 -0.020730
C20   C     C_1   0.624846 0.502429 0.621504 -0.077531
C21   C     C_1   0.624956 0.002952 0.123362 0.021824
C22   C     C_1   0.375202 0.003392 0.876202 0.028027
C23   C     C_1   0.124830 0.503266 0.124210 0.050565
C24   C     C_1   0.875145 0.503138 0.876368 0.050862
C25   C     C_3   0.764253 0.062761 0.261922 0.291656
C26   C     C_3   0.235495 0.060444 0.753976 0.285159
C27   C     C_3   0.263088 0.566258 0.255705 0.297646
C28   C     C_3   0.736988 0.566603 0.743618 0.290500
C29   C     C_3   0.792010 0.005736 0.295949 -0.198040
C30   C     C_3   0.208155 0.006325 0.705888 -0.191837
C31   C     C_3   0.291734 0.511066 0.297847 -0.185717
C32   C     C_3   0.708230 0.511059 0.702757 -0.188163
C33   C     C_3   0.738345 0.028706 0.187719 0.206087
C34   C     C_3   0.262277 0.015866 0.817611 0.210936
C35   C     C_3   0.237174 0.524873 0.187141 0.221308
C36   C     C_3   0.762439 0.527231 0.813534 0.214894
C37   C     C_3   0.708534 0.003947 0.207776 -0.246909
C38   C     C_3   0.291758 0.005795 0.791662 -0.249690
C39   C     C_3   0.208190 0.506203 0.211536 -0.253936
C40   C     C_3   0.791724 0.505889 0.790582 -0.260032
C41   C     C_3   0.766378 0.971848 0.221035 -0.303720
C42   C     C_3   0.234775 0.961572 0.770317 -0.305340
C43   C     C_3   0.265928 0.470061 0.228573 -0.261951
C44   C     C_3   0.733479 0.472068 0.773451 -0.264733
C45   C     C_3   0.736813 0.947551 0.242617 0.327456
C46   C     C_3   0.264067 0.952315 0.743124 0.315273
C47   C     C_3   0.237179 0.452294 0.254245 0.312700
C48   C     C_3   0.762591 0.451511 0.749258 0.313946
C49   C     C_1   0.837746 0.003297 0.341514 0.206723
C50   C     C_1   0.162365 0.003646 0.660347 0.216741
C51   C     C_1   0.337560 0.506761 0.342472 0.281049
C52   C     C_1   0.662420 0.506784 0.657295 0.240687
C53   C     C_1   0.662640 0.003466 0.160750 0.270662
C54   C     C_1   0.337585 0.004725 0.838317 0.255360
C55   C     C_1   0.162432 0.504420 0.163254 0.271584
C56   C     C_1   0.837515 0.504159 0.838232 0.274594
H1    H     H_    0.779437 0.945043 0.195182 0.237983
H2    H     H_    0.222663 0.925232 0.788671 0.236407
H3    H     H_    0.278234 0.437089 0.206559 0.249376
H4    H     H_    0.720190 0.442086 0.796128 0.249359
C57   C     C_R   0.930621 0.950366 0.613107 -0.260935
C58   C     C_R   0.069985 0.954820 0.386313 -0.259330
C59   C     C_R   0.428289 0.462233 0.611691 -0.264973
C60   C     C_R   0.571977 0.462454 0.387784 -0.263643
C61   C     C_R   0.894841 0.928467 0.606180 0.247096
C62   C     C_R   0.106568 0.936874 0.393032 0.252167
C63   C     C_R   0.391454 0.445210 0.604451 0.255887
C64   C     C_R   0.608720 0.445654 0.394365 0.255772
C65   C     C_R   0.892902 0.929793 0.668086 0.294118
C66   C     C_R   0.107735 0.937805 0.330328 0.292251
C67   C     C_R   0.389609 0.449164 0.666380 0.296529
C68   C     C_R   0.610183 0.449402 0.332052 0.295478
C69   C     C_R   0.930493 0.933524 0.738208 0.204083
C70   C     C_R   0.069735 0.937963 0.260800 0.205114
C71   C     C_R   0.427290 0.449935 0.736237 0.224168
C72   C     C_R   0.572334 0.449226 0.262546 0.228561
C73   C     C_R   0.966354 0.962626 0.746404 -0.032055
C74   C     C_R   0.033399 0.964992 0.252910 -0.032854
C75   C     C_R   0.463906 0.476324 0.744492 -0.018481
C76   C     C_R   0.535810 0.475278 0.254907 -0.014640
C77   C     C_R   0.965329 0.971026 0.681139 0.001686
C78   C     C_R   0.034297 0.972825 0.318089 -0.000639
C79   C     C_R   0.463973 0.480384 0.680089 0.001182
C80   C     C_R   0.536045 0.479823 0.319609 -0.010579
C81   C     C_R   0.002376 0.984688 0.815173 -0.014819
C82   C     C_R   0.997235 0.985996 0.184270 -0.015121
C83   C     C_R   0.499186 0.501195 0.812245 -0.044542
C84   C     C_R   0.500280 0.499325 0.187313 -0.025620
C85   C     C_R   0.036085 0.013854 0.815263 0.007252
C86   C     C_R   0.962695 0.013462 0.183515 0.009347
C87   C     C_R   0.533503 0.527902 0.813164 -0.008885
C88   C     C_R   0.465397 0.524081 0.186359 -0.015969
C89   C     C_R   0.028989 0.031699 0.747518 0.001774
C90   C     C_R   0.968124 0.028064 0.251186 0.003100
C91   C     C_R   0.535647 0.519234 0.751426 -0.003613
C92   C     C_R   0.463615 0.514835 0.248246 -0.017540
C93   C     C_R   0.997897 0.001878 0.683183 -0.030995
C94   C     C_R   0.000605 0.000470 0.315702 -0.024195
C95   C     C_R   0.500192 0.499367 0.684735 -0.012707
C96   C     C_R   0.499765 0.497942 0.315274 -0.019332
C97   C     C_R   0.075330 0.032102 0.879555 0.315737
C98   C     C_R   0.923848 0.032360 0.118795 0.318456
C99   C     C_R   0.565944 0.563926 0.872493 0.309623
C100  C     C_R   0.431702 0.557865 0.126680 0.318481
C101  C     C_R   0.096980 0.081828 0.876883 -0.137748
C102  C     C_R   0.901090 0.080018 0.122578 -0.135856
C103  C     C_R   0.602709 0.576029 0.876252 -0.184587
C104  C     C_R   0.394270 0.565615 0.122175 -0.197275
C105  C     C_R   0.084804 0.107283 0.810268 0.323067
C106  C     C_R   0.910016 0.100098 0.189612 0.339891
C107  C     C_R   0.606462 0.559851 0.818977 0.384217
C108  C     C_R   0.391039 0.547732 0.179372 0.347495
C109  C     C_R   0.053044 0.079687 0.746043 -0.234144
C110  C     C_R   0.940917 0.070781 0.252797 -0.242252
C111  C     C_R   0.572908 0.533028 0.756383 -0.222245
C112  C     C_R   0.425781 0.524444 0.242823 -0.193279
H5    H     H_    0.929992 0.953515 0.563393 0.196156
H6    H     H_    0.070654 0.957177 0.436175 0.193392
H7    H     H_    0.428527 0.461105 0.562679 0.189399
H8    H     H_    0.571878 0.461451 0.436940 0.190932
H9    H     H_    0.125398 0.097453 0.926497 0.216800
H10   H     H_    0.873088 0.096301 0.072879 0.213293
H11   H     H_    0.627096 0.602888 0.921346 0.226229
H12   H     H_    0.368665 0.590063 0.076338 0.227434
H13   H     H_    0.046548 0.099156 0.695941 0.211091
H14   H     H_    0.943845 0.084130 0.302567 0.190466
H15   H     H_    0.576088 0.524140 0.711083 0.135604
H16   H     H_    0.422880 0.514240 0.288074 0.152719
O17   O     O_R   0.500000 0.090290 0.052120 -0.568542
O18   O     O_R   0.500000 0.090290 0.947880 -0.569726
O19   O     O_R   0.000000 0.590290 0.052120 -0.570982
O20   O     O_R   0.000000 0.590290 0.947880 -0.569586
C113  C     C_R   0.499847 0.118389 0.000033 0.722380
C114  C     C_R   0.000108 0.618010 0.000249 0.728852
O21   O     O_R   0.560470 0.000120 0.112600 -0.588592
O22   O     O_R   0.439530 0.000120 0.887400 -0.582193
O23   O     O_R   0.060470 0.500120 0.112600 -0.586926
O24   O     O_R   0.939530 0.500120 0.887400 -0.587358
O25   O     O_R   0.560470 0.000020 0.008230 -0.532518
O26   O     O_R   0.439530 0.000020 0.991770 -0.540897
O27   O     O_R   0.060470 0.500020 0.008230 -0.535621
O28   O     O_R   0.939530 0.500020 0.991770 -0.534628
C115  C     C_R   0.580036 0.001799 0.079536 0.806355
C116  C     C_R   0.420011 0.001612 0.920438 0.822017
C117  C     C_R   0.079994 0.501693 0.079605 0.822122
C118  C     C_R   0.919999 0.501697 0.920475 0.820676
Cu5   Cu    Cu3+1 0.500000 0.000140 0.061760 1.144787
Cu6   Cu    Cu3+1 0.500000 0.000140 0.938240 1.133866
Cu7   Cu    Cu3+1 0.000000 0.500140 0.061760 1.124876
Cu8   Cu    Cu3+1 0.000000 0.500140 0.938240 1.125697
O29   O     O_R   0.500000 0.909980 0.052170 -0.571146
O30   O     O_R   0.500000 0.909980 0.947830 -0.573147
O31   O     O_R   0.000000 0.409980 0.052170 -0.576063
O32   O     O_R   1.000000 0.409980 0.947830 -0.575821
C119  C     C_R   0.500103 0.881471 0.999739 0.883018
C120  C     C_R   0.000038 0.381482 0.999916 0.891688
O33   O     O_R   0.035010 0.090130 0.035030 -0.545219
O34   O     O_R   0.964990 0.090130 0.964970 -0.544547
O35   O     O_R   0.535010 0.590130 0.035030 -0.514945
O36   O     O_R   0.464990 0.590130 0.964970 -0.528649
C121  C     C_R   0.999985 0.119126 0.999849 0.893188
C122  C     C_R   0.499906 0.618857 0.003328 0.863730
O37   O     O_R   0.035000 0.999980 0.944780 -0.533903
O38   O     O_R   0.965000 0.999980 0.055220 -0.533830
O39   O     O_R   0.535000 0.499980 0.944780 -0.536891
O40   O     O_R   0.465000 0.499980 0.055220 -0.545016
O41   O     O_R   0.965010 0.000000 0.874800 -0.589682
O42   O     O_R   0.034990 0.000000 0.125200 -0.590649
O43   O     O_R   0.465010 0.500000 0.874800 -0.588819
O44   O     O_R   0.534990 0.500000 0.125200 -0.579861
C123  C     C_R   0.000567 0.992170 0.881521 0.913630
C124  C     C_R   0.999353 0.992919 0.118385 0.909750
C125  C     C_R   0.499949 0.500338 0.880561 0.894310
C126  C     C_R   0.499918 0.499511 0.119316 0.899524
Cu9   Cu    Cu3+1 0.041440 0.999980 0.041400 1.202835
Cu10  Cu    Cu3+1 0.958560 0.999980 0.958600 1.204828
Cu11  Cu    Cu3+1 0.541440 0.499980 0.041400 1.222091
Cu12  Cu    Cu3+1 0.458560 0.499980 0.958600 1.222049
O45   O     O_R   0.034990 0.909820 0.034880 -0.567691
O46   O     O_R   0.965010 0.909820 0.965120 -0.563590
O47   O     O_R   0.534990 0.409820 0.034880 -0.558964
O48   O     O_R   0.465010 0.409820 0.965120 -0.554442
C127  C     C_R   0.999999 0.880352 0.000278 0.898180
C128  C     C_R   0.499905 0.380709 0.000336 0.914933
C129  C     C_R   0.570473 0.182872 0.030445 -0.236299
C130  C     C_R   0.430402 0.182180 0.976655 -0.239349
C131  C     C_R   0.071652 0.680401 0.034918 -0.237408
C132  C     C_R   0.928692 0.680452 0.966390 -0.237111
C133  C     C_R   0.604135 0.209294 0.034702 0.274862
C134  C     C_R   0.398295 0.207779 0.978326 0.268487
C135  C     C_R   0.105666 0.705870 0.039719 0.275256
C136  C     C_R   0.894775 0.706047 0.962025 0.273900
C137  C     C_R   0.105859 0.767882 0.029071 0.195668
C138  C     C_R   0.894608 0.768128 0.972938 0.194796
C139  C     C_R   0.603229 0.271225 0.021449 0.198787
C140  C     C_R   0.398359 0.270157 0.988952 0.197584
C141  C     C_R   0.070682 0.803841 0.009792 0.245771
C142  C     C_R   0.929544 0.804157 0.991299 0.246557
C143  C     C_R   0.567582 0.306286 0.001487 0.245151
C144  C     C_R   0.432100 0.306605 0.001707 0.247937
C145  C     C_R   0.035291 0.778727 0.008223 -0.032597
C146  C     C_R   0.964894 0.778854 0.992719 -0.033874
C147  C     C_R   0.533568 0.280264 0.003832 -0.045656
C148  C     C_R   0.465838 0.280529 0.997987 -0.043616
C149  C     C_R   0.534641 0.216318 0.012159 -0.013790
C150  C     C_R   0.465140 0.216248 0.990619 -0.014657
C151  C     C_R   0.035847 0.714744 0.015689 -0.019124
C152  C     C_R   0.964444 0.714784 0.985502 -0.019263
C153  C     C_R   0.000032 0.812295 0.000323 0.004533
C154  C     C_R   0.499598 0.313389 0.000306 -0.019746
C155  C     C_R   0.499746 0.185126 0.000510 -0.005703
C156  C     C_R   0.000155 0.684073 0.000593 -0.000349
H17   H     H_    0.572843 0.134738 0.041725 0.170401
H18   H     H_    0.428221 0.133834 0.966199 0.171748
H19   H     H_    0.073359 0.632133 0.044951 0.166970
H20   H     H_    0.926965 0.632115 0.956174 0.167744
C157  C     C_R   0.458294 0.809472 0.864297 0.190042
C158  C     C_R   0.551829 0.816416 0.133395 0.178352
C159  C     C_R   0.945083 0.308003 0.865811 0.162909
C160  C     C_R   0.054274 0.308692 0.134058 0.163725
C161  C     C_R   0.456641 0.777008 0.807461 0.177847
C162  C     C_R   0.557324 0.795610 0.198066 0.175981
C163  C     C_R   0.938256 0.284277 0.800452 0.152644
C164  C     C_R   0.060425 0.285709 0.198948 0.151297
C165  C     C_R   0.957801 0.230171 0.802281 0.203095
C166  C     C_R   0.040413 0.232004 0.196373 0.203142
C167  C     C_R   0.448806 0.714224 0.804026 0.226948
C168  C     C_R   0.555504 0.733005 0.205552 0.209623
C169  C     C_R   0.978138 0.194963 0.867104 0.232213
C170  C     C_R   0.020403 0.196297 0.131501 0.230697
C171  C     C_R   0.451568 0.687110 0.864838 0.213547
C172  C     C_R   0.544506 0.694405 0.145368 0.244779
C173  C     C_R   0.985033 0.219425 0.933356 -0.098025
C174  C     C_R   0.014317 0.219992 0.065820 -0.100725
C175  C     C_R   0.476486 0.716944 0.935044 -0.059832
C176  C     C_R   0.523140 0.719562 0.072121 -0.073715
C177  C     C_R   0.479037 0.780845 0.933744 -0.065436
C178  C     C_R   0.524421 0.783701 0.068098 -0.076420
C179  C     C_R   0.976224 0.281507 0.933166 -0.069720
C180  C     C_R   0.023433 0.281884 0.066333 -0.067467
C181  C     C_R   0.999860 0.186363 0.999677 -0.015119
C182  C     C_R   0.499470 0.685723 0.004158 0.005524
C183  C     C_R   0.501236 0.814291 0.000156 -0.023272
C184  C     C_R   0.000003 0.314470 0.999760 -0.009201
N1    N     N_R   0.776332 0.959370 0.389278 0.210681
O49   O     O_R   0.767338 0.904624 0.398228 -0.166755
O50   O     O_R   0.796230 0.995915 0.445477 -0.226637
N2    N     N_R   0.223312 0.988897 0.602890 0.211641
O51   O     O_R   0.236209 0.943211 0.582619 -0.165795
O52   O     O_R   0.200021 0.030340 0.555242 -0.236134
N3    N     N_R   0.276747 0.479193 0.397645 0.207065
O53   O     O_R   0.263152 0.431115 0.412303 -0.159848
O54   O     O_R   0.299046 0.518936 0.449230 -0.277046
N4    N     N_R   0.724127 0.474154 0.605269 0.213021
O55   O     O_R   0.736808 0.424041 0.592101 -0.163659
O56   O     O_R   0.703630 0.513641 0.553051 -0.235602
S1    S     S_3+6 0.844086 0.926543 0.658775 0.149308
O57   O     O_2   0.809631 0.947958 0.583932 -0.148544
O58   O     O_2   0.835229 0.862364 0.669446 -0.146386
O59   O     O_3   0.845489 0.972123 0.721998 -0.522181
H21   H     H_    0.819934 0.962117 0.720257 0.403593
S2    S     S_3+6 0.156034 0.938368 0.337809 0.148264
O60   O     O_2   0.189910 0.964173 0.410903 -0.148282
O61   O     O_2   0.167471 0.874666 0.330301 -0.143659
O62   O     O_3   0.151792 0.982102 0.271285 -0.525182
H22   H     H_    0.177174 0.973402 0.271874 0.402849
S3    S     S_3+6 0.341052 0.449690 0.657928 0.155069
O63   O     O_2   0.307481 0.475004 0.584671 -0.156913
O64   O     O_2   0.329511 0.386078 0.664871 -0.151688
O65   O     O_3   0.344873 0.493710 0.724402 -0.491223
H23   H     H_    0.318364 0.487182 0.720900 0.400250
S4    S     S_3+6 0.658389 0.451132 0.339392 0.155436
O66   O     O_2   0.692076 0.476948 0.412589 -0.148831
O67   O     O_2   0.670322 0.387868 0.331513 -0.151703
O68   O     O_3   0.653549 0.495438 0.272783 -0.496702
H24   H     H_    0.679328 0.488302 0.274034 0.399508
S5    S     S_3+6 0.935745 0.872246 0.794906 0.072910
O69   O     O_2   0.922406 0.815051 0.749392 -0.173915
O70   O     O_2   0.979909 0.864216 0.857465 -0.327636
O71   O     O_3   0.904717 0.880950 0.825868 -0.437382
H25   H     H_    0.905013 0.924955 0.835476 0.379508
S6    S     S_3+6 0.065299 0.874181 0.206992 0.074831
O72   O     O_2   0.079775 0.819086 0.255434 -0.172713
O73   O     O_2   0.021172 0.863584 0.145093 -0.323255
O74   O     O_3   0.095882 0.881137 0.174975 -0.438006
H26   H     H_    0.095178 0.924739 0.163805 0.379895
S7    S     S_3+6 0.431072 0.385627 0.788449 0.088700
O75   O     O_2   0.416787 0.330722 0.739001 -0.178884
O76   O     O_2   0.474895 0.374643 0.851113 -0.307609
O77   O     O_3   0.399971 0.392464 0.819576 -0.428337
H27   H     H_    0.402153 0.435421 0.834788 0.379294
S8    S     S_3+6 0.568355 0.383939 0.210773 0.081931
O78   O     O_2   0.583343 0.329961 0.261018 -0.179865
O79   O     O_2   0.524341 0.371957 0.149132 -0.312710
O80   O     O_3   0.598774 0.389949 0.178249 -0.435194
H28   H     H_    0.597508 0.433148 0.165047 0.377109
N5    N     N_R   0.099747 0.991830 0.939590 0.169365
O81   O     O_R   0.119763 0.013892 0.006076 -0.266111
O82   O     O_R   0.114772 0.943749 0.927401 -0.220451
N6    N     N_R   0.899820 0.992856 0.057247 0.169489
O83   O     O_R   0.881313 0.015746 0.991596 -0.268501
O84   O     O_R   0.882982 0.945702 0.066522 -0.222155
N7    N     N_R   0.559085 0.599434 0.919820 0.128653
O85   O     O_R   0.524670 0.629967 0.891396 -0.411152
O86   O     O_R   0.589973 0.612052 0.986603 -0.278577
N8    N     N_R   0.437297 0.595397 0.079601 0.127454
O87   O     O_R   0.468556 0.632873 0.108895 -0.380120
O88   O     O_R   0.406633 0.603125 0.011443 -0.264916
S9    S     S_3+6 0.361431 0.158395 0.976334 0.121480
O89   O     O_2   0.326641 0.146748 0.898006 -0.162712
O90   O     O_2   0.382012 0.098867 0.011138 -0.260843
O91   O     O_3   0.341425 0.188055 0.021336 -0.385503
H29   H     H_    0.365156 0.189601 0.073501 0.369013
S10   S     S_3+6 0.645170 0.161419 0.050208 0.108975
O92   O     O_2   0.674957 0.153661 0.131440 -0.176646
O93   O     O_2   0.628055 0.100101 0.016048 -0.282199
O94   O     O_3   0.670938 0.190274 0.015349 -0.372542
H30   H     H_    0.651007 0.187376 0.961407 0.375160
S11   S     S_3+6 0.854906 0.657760 0.950485 0.103318
O95   O     O_2   0.821881 0.652297 0.870005 -0.186014
O96   O     O_2   0.872200 0.595677 0.980351 -0.291460
O97   O     O_3   0.833253 0.685557 0.993571 -0.375854
H31   H     H_    0.855698 0.683583 0.046552 0.371456
S12   S     S_3+6 0.145480 0.657409 0.050837 0.102857
O98   O     O_2   0.178563 0.652134 0.131242 -0.188939
O99   O     O_2   0.128100 0.595255 0.020473 -0.289961
O100  O     O_3   0.167140 0.684896 0.007916 -0.377264
H32   H     H_    0.144671 0.682820 0.954916 0.371401
N9    N     N_R   0.141675 0.795087 0.035926 0.199828
O101  O     O_R   0.139588 0.814965 0.978147 -0.211456
O102  O     O_R   0.177300 0.795757 0.099263 -0.214721
N10   N     N_R   0.859020 0.795422 0.967038 0.200246
O103  O     O_R   0.861565 0.815601 0.025351 -0.214990
O104  O     O_R   0.823233 0.796238 0.903994 -0.211310
N11   N     N_R   0.638372 0.299243 0.026746 0.190394
O105  O     O_R   0.635663 0.318272 0.968094 -0.239839
O106  O     O_R   0.673769 0.303445 0.090188 -0.207960
N12   N     N_R   0.363876 0.297427 0.986981 0.191217
O107  O     O_R   0.369086 0.321450 0.045953 -0.253602
O108  O     O_R   0.326619 0.295003 0.927024 -0.211300
N13   N     N_R   0.070892 0.862625 0.983345 0.147413
O109  O     O_R   0.099152 0.900819 0.030073 -0.237029
O110  O     O_R   0.057616 0.867409 0.914558 -0.281489
N14   N     N_R   0.928887 0.863769 0.015917 0.147103
O111  O     O_R   0.900201 0.900648 0.968129 -0.235310
O112  O     O_R   0.942831 0.871143 0.084787 -0.288871
N15   N     N_R   0.565371 0.363941 0.969284 0.142021
O113  O     O_R   0.592891 0.405102 0.011069 -0.275813
O114  O     O_R   0.551665 0.364312 0.900013 -0.286422
N16   N     N_R   0.432021 0.367387 0.025500 0.143990
O115  O     O_R   0.402886 0.404102 0.978225 -0.276829
O116  O     O_R   0.446374 0.375945 0.094426 -0.302394
N17   N     N_R   0.572007 0.836320 0.259206 0.176727
O117  O     O_R   0.604248 0.822623 0.324026 -0.178477
O118  O     O_R   0.553858 0.888666 0.249326 -0.306380
N18   N     N_R   0.458279 0.808632 0.751529 0.185686
O119  O     O_R   0.456044 0.779044 0.697423 -0.213596
O120  O     O_R   0.469944 0.865355 0.761914 -0.304437
N19   N     N_R   0.087094 0.316566 0.267476 0.176113
O121  O     O_R   0.126658 0.303568 0.308128 -0.171150
O122  O     O_R   0.070937 0.351394 0.293621 -0.262463
N20   N     N_R   0.911267 0.314719 0.732157 0.178127
O123  O     O_R   0.871791 0.301007 0.691517 -0.170464
O124  O     O_R   0.927009 0.350635 0.706609 -0.263158
S13   S     S_3+6 0.712495 0.079120 0.323535 0.145969
O125  O     O_2   0.681237 0.124156 0.269465 -0.206706
O126  O     O_2   0.691118 0.035400 0.344840 -0.203596
O127  O     O_3   0.750538 0.116065 0.398645 -0.398052
H33   H     H_    0.736108 0.137717 0.418196 0.404443
S14   S     S_3+6 0.284912 0.106050 0.695908 0.146287
O128  O     O_2   0.317354 0.144070 0.759410 -0.204420
O129  O     O_2   0.304339 0.074440 0.660927 -0.206344
O130  O     O_3   0.245699 0.150799 0.633790 -0.403244
H34   H     H_    0.258012 0.176144 0.613076 0.406376
S15   S     S_3+6 0.211287 0.592764 0.317549 0.158502
O131  O     O_2   0.178246 0.633460 0.259188 -0.174590
O132  O     O_2   0.191531 0.551668 0.344642 -0.220640
O133  O     O_3   0.248422 0.635631 0.387355 -0.388912
H35   H     H_    0.250776 0.620366 0.431938 0.404644
S16   S     S_3+6 0.789552 0.588177 0.682969 0.151709
O134  O     O_2   0.822607 0.629563 0.740849 -0.199985
O135  O     O_2   0.809082 0.545257 0.656734 -0.209921
O136  O     O_3   0.752606 0.629730 0.612079 -0.389676
H36   H     H_    0.765158 0.641715 0.584626 0.405916
S17   S     S_3+6 0.410566 0.846141 0.835459 0.103347
O137  O     O_2   0.376176 0.800194 0.794274 -0.145493
O138  O     O_2   0.410084 0.868477 0.899887 -0.296781
O139  O     O_3   0.401063 0.903864 0.778185 -0.419364
H37   H     H_    0.428543 0.922775 0.797427 0.374798
S18   S     S_3+6 0.597963 0.844001 0.143980 0.093262
O140  O     O_2   0.626823 0.790644 0.164756 -0.140622
O141  O     O_2   0.589593 0.869751 0.073669 -0.294120
O142  O     O_3   0.621854 0.896014 0.211804 -0.439734
H38   H     H_    0.599385 0.922282 0.205863 0.371038
S19   S     S_3+6 0.902415 0.344925 0.859214 0.092646
O143  O     O_2   0.868522 0.298108 0.831670 -0.135513
O144  O     O_2   0.912706 0.368073 0.932104 -0.292077
O145  O     O_3   0.884852 0.401772 0.797977 -0.456536
H39   H     H_    0.909090 0.414757 0.797016 0.362817
S20   S     S_3+6 0.097200 0.345557 0.141925 0.093663
O146  O     O_2   0.131357 0.299035 0.170951 -0.134370
O147  O     O_2   0.087579 0.367492 0.069294 -0.292159
O148  O     O_3   0.113921 0.403387 0.202505 -0.456149
H40   H     H_    0.089499 0.415756 0.203369 0.362595
N21   N     N_R   0.956323 0.210309 0.738217 0.201243
O149  O     O_R   0.920905 0.206464 0.674761 -0.215463
O150  O     O_R   0.990658 0.196699 0.743137 -0.251196
N22   N     N_R   0.041185 0.212986 0.259802 0.201660
O151  O     O_R   0.076294 0.209332 0.323711 -0.214987
O152  O     O_R   0.006516 0.199898 0.253845 -0.246706
N23   N     N_R   0.431308 0.681110 0.736507 0.201991
O153  O     O_R   0.395729 0.697998 0.678324 -0.203551
O154  O     O_R   0.448582 0.630683 0.734948 -0.301148
N24   N     N_R   0.569141 0.708397 0.275950 0.201168
O155  O     O_R   0.605669 0.682932 0.315793 -0.194275
O156  O     O_R   0.547945 0.719556 0.304679 -0.247987
N25   N     N_R   0.994521 0.137510 0.865569 0.102772
O157  O     O_R   0.034336 0.127888 0.910140 -0.369183
O158  O     O_R   0.972501 0.103069 0.807959 -0.355829
N26   N     N_R   0.003535 0.139190 0.132354 0.102821
O159  O     O_R   0.963700 0.129813 0.087217 -0.361720
O160  O     O_R   0.025068 0.105104 0.189978 -0.358181
N27   N     N_R   0.418264 0.646876 0.849342 0.165464
O161  O     O_R   0.407046 0.602014 0.803044 -0.256120
O162  O     O_R   0.395857 0.659391 0.875435 -0.224076
N28   N     N_R   0.560674 0.633952 0.162826 0.143311
O163  O     O_R   0.553579 0.601296 0.203979 -0.329607
O164  O     O_R   0.594623 0.623011 0.165229 -0.237482
S21   S     S_3+6 0.721259 0.869804 0.228141 0.156233
O165  O     O_2   0.702146 0.854570 0.270046 -0.119587
O166  O     O_2   0.690116 0.858821 0.147497 -0.183910
O167  O     O_3   0.763495 0.825928 0.257808 -0.465246
H41   H     H_    0.752781 0.783666 0.247680 0.403679
S22   S     S_3+6 0.282420 0.879713 0.736924 0.152725
O168  O     O_2   0.308782 0.886994 0.706499 -0.137742
O169  O     O_2   0.307983 0.852085 0.812145 -0.190443
O170  O     O_3   0.241345 0.834652 0.680991 -0.440794
H42   H     H_    0.253700 0.795720 0.679068 0.407066
S23   S     S_3+6 0.223256 0.375107 0.252713 0.154782
O171  O     O_2   0.198332 0.369698 0.286104 -0.113036
O172  O     O_2   0.198011 0.353184 0.174404 -0.192315
O173  O     O_3   0.267004 0.333371 0.301389 -0.458435
H43   H     H_    0.257382 0.290690 0.291534 0.401529
S24   S     S_3+6 0.776421 0.373818 0.753436 0.155334
O174  O     O_2   0.800558 0.365648 0.718852 -0.119727
O175  O     O_2   0.802432 0.354501 0.832417 -0.183965
O176  O     O_3   0.732646 0.331765 0.707642 -0.460863
H44   H     H_    0.742426 0.289371 0.711831 0.401954
N29   N     N_R   0.725084 0.051239 0.115446 0.205930
O177  O     O_R   0.739443 0.102377 0.108766 -0.166861
O178  O     O_R   0.702416 0.016823 0.057958 -0.241705
N30   N     N_R   0.275038 0.024568 0.893423 0.214053
O179  O     O_R   0.246829 0.031773 0.907926 -0.229374
O180  O     O_R   0.313497 0.014670 0.947023 -0.233014
N31   N     N_R   0.222221 0.536964 0.110896 0.210367
O181  O     O_R   0.232403 0.586589 0.092731 -0.149579
O182  O     O_R   0.200491 0.495824 0.060949 -0.253488
N32   N     N_R   0.776910 0.542100 0.889088 0.216643
O183  O     O_R   0.765340 0.591961 0.904844 -0.145319
O184  O     O_R   0.798916 0.502635 0.940622 -0.242011
S25   S     S_3+6 0.785071 0.138265 0.282467 0.153594
O185  O     O_2   0.817566 0.143537 0.363428 -0.203909
O186  O     O_2   0.804830 0.151161 0.241204 -0.199125
O187  O     O_3   0.747149 0.189122 0.259134 -0.382140
H45   H     H_    0.758719 0.228824 0.256481 0.409587
S26   S     S_3+6 0.215046 0.132473 0.757623 0.147337
O188  O     O_2   0.176543 0.146129 0.683325 -0.229359
O189  O     O_2   0.204107 0.130419 0.813557 -0.189018
O190  O     O_3   0.250459 0.187638 0.780589 -0.381610
H46   H     H_    0.236844 0.225517 0.781687 0.411447
S27   S     S_3+6 0.281738 0.642871 0.265192 0.191067
O191  O     O_2   0.323532 0.648812 0.336518 -0.206248
O192  O     O_2   0.286007 0.658498 0.203137 -0.132641
O193  O     O_3   0.248639 0.692345 0.265805 -0.385371
H47   H     H_    0.252391 0.731067 0.247203 0.408328
S28   S     S_3+6 0.718671 0.643552 0.731736 0.174271
O194  O     O_2   0.677898 0.649036 0.658478 -0.225272
O195  O     O_2   0.712399 0.661038 0.791241 -0.131571
O196  O     O_3   0.753204 0.691653 0.734066 -0.387823
H48   H     H_    0.747541 0.731680 0.747796 0.408317
S29   S     S_3+6 0.111273 0.170917 0.806690 0.136657
O197  O     O_2   0.089346 0.227347 0.806842 -0.143332
O198  O     O_2   0.155590 0.172369 0.872417 -0.178679
O199  O     O_3   0.110674 0.169407 0.729392 -0.429582
H49   H     H_    0.118907 0.127482 0.726112 0.348170
S30   S     S_3+6 0.879007 0.157143 0.192930 0.129473
O200  O     O_2   0.884419 0.214867 0.162842 -0.142472
O201  O     O_2   0.833958 0.138402 0.145758 -0.194286
O202  O     O_3   0.892783 0.169745 0.279537 -0.432103
H50   H     H_    0.884932 0.132159 0.293731 0.350922
S31   S     S_3+6 0.649848 0.583087 0.818764 0.096275
O203  O     O_2   0.681158 0.615370 0.888903 -0.141334
O204  O     O_2   0.670027 0.528628 0.809542 -0.308740
O205  O     O_3   0.632748 0.630548 0.747678 -0.429580
H51   H     H_    0.625332 0.604026 0.705232 0.352190
S32   S     S_3+6 0.345688 0.562482 0.177362 0.075347
O206  O     O_2   0.358082 0.598025 0.245436 -0.209375
O207  O     O_2   0.314751 0.598333 0.110581 -0.171162
O208  O     O_3   0.324291 0.496200 0.177830 -0.543292
H52   H     H_    0.317748 0.474386 0.132861 0.378393
N33   N     N_R   0.862651 0.900483 0.538103 0.197973
O209  O     O_R   0.841077 0.855451 0.538874 -0.187544
O210  O     O_R   0.861658 0.909411 0.478466 -0.321280
N34   N     N_R   0.140675 0.913306 0.461998 0.196194
O211  O     O_R   0.163696 0.869605 0.462657 -0.188168
O212  O     O_R   0.142736 0.924803 0.522256 -0.331424
N35   N     N_R   0.358674 0.416999 0.537133 0.198458
O213  O     O_R   0.335710 0.374791 0.539012 -0.184757
O214  O     O_R   0.358512 0.421797 0.477796 -0.335549
N36   N     N_R   0.641653 0.417505 0.461143 0.196431
O215  O     O_R   0.665065 0.376273 0.458543 -0.184487
O216  O     O_R   0.641524 0.421070 0.520339 -0.329550

loop_
_geom_bond_atom_site_label_1
_geom_bond_atom_site_label_2
_geom_bond_distance
_ccdc_geom_bond_type
C75   C79   1.415606 A    
S23   O171  1.501795 D    
C175  C177  1.411024 A    
C169  C173  1.424487 A    
C17   C49   1.205181 T    
C66   S2    1.776102 S    
C178  C183  1.412983 A    
S9    O90   1.503179 D    
N21   O149  1.300998 A    
C10   C26   1.549691 S    
C67   S3    1.775624 S    
C152  C156  1.397351 A    
C180  C184  1.414558 A    
C170  N26   1.421089 S    
O94   H30   0.990256 S    
N29   O177  1.299487 A    
O71   H25   0.988207 S    
C99   N7    1.431439 S    
S2    O60   1.503211 D    
C46   S22   1.779974 S    
C159  C179  1.412455 A    
S20   O146  1.501759 D    
C88   C100  1.437730 A    
C63   C67   1.399579 A    
C71   C75   1.442698 A    
N3    O53   1.300186 A    
C6    C18   1.436153 S    
C9    C13   1.539303 S    
C160  C164  1.402005 A    
N4    O55   1.299117 A    
O170  H42   0.990907 S    
C11   C39   1.550316 S    
O17   C113  1.298055 A    
S25   O186  1.499143 D    
O23   Cu7   1.946207 S    
C144  N16   1.432851 S    
N12   O107  1.300949 A    
C174  C181  1.431388 A    
O21   Cu5   1.946207 S    
S24   O174  1.501114 D    
S21   O166  1.502934 D    
C130  C150  1.412663 A    
S3    O64   1.503479 D    
N8    O87   1.297179 A    
O4    C4    1.304622 A    
C132  H20   1.079925 S    
O30   C119  1.299934 A    
C166  N22   1.437868 S    
C73   C81   1.449889 A    
C89   C109  1.419257 A    
S27   O192  1.499264 D    
C69   S5    1.771936 S    
C106  C110  1.387112 A    
C31   C51   1.471534 S    
C70   S6    1.773394 S    
C71   S7    1.778645 S    
O36   C122  1.287545 A    
S20   O148  1.681735 S    
C23   C55   1.206158 T    
C110  H14   1.071081 S    
C12   S16   1.788574 S    
N7    O85   1.296443 A    
C62   C66   1.399368 A    
C42   C46   1.554546 S    
O97   H31   0.990656 S    
S14   O129  1.503567 D    
O16   Cu4   1.948565 S    
S30   O200  1.501584 D    
C74   C78   1.418348 A    
C137  N9    1.435182 S    
C40   C56   1.469147 S    
S28   O196  1.680969 S    
O13   C5    1.309343 A    
O7    Cu4   1.983557 S    
C9    C25   1.549112 S    
O15   C7    1.313514 A    
C32   C52   1.470879 S    
N31   O182  1.300409 A    
O20   Cu8   1.993174 S    
O4    Cu2   1.985077 S    
N11   O105  1.301494 A    
C132  C136  1.376043 A    
O18   Cu6   1.993174 S    
N10   O103  1.300978 A    
C135  S12   1.769295 S    
O9    C5    1.303434 A    
C108  S32   1.753620 S    
C103  H11   1.082645 S    
N30   O179  1.300464 A    
C104  H12   1.083226 S    
C105  C109  1.387610 A    
S16   O135  1.503158 D    
N2    O52   1.300710 A    
C15   C31   1.535851 S    
O8    Cu4   1.986053 S    
C109  H13   1.072434 S    
C143  N15   1.434169 S    
O148  H40   0.989522 S    
O199  H49   0.989750 S    
Cu8   O32   1.995767 S    
C173  C181  1.432999 A    
N28   O164  1.302043 A    
O33   Cu9   1.994065 S    
C177  C183  1.412983 A    
O3    Cu2   1.987571 S    
C60   C64   1.390864 A    
S32   O206  1.503102 D    
C16   C48   1.533689 S    
O130  H34   0.992958 S    
C145  C151  1.416732 A    
C74   C82   1.446398 A    
C172  N28   1.428313 S    
C30   C50   1.468464 S    
C58   H6    1.079096 S    
S17   O137  1.503155 D    
C26   S26   1.789034 S    
S10   O94   1.680854 S    
C85   C97   1.435571 A    
O28   Cu7   1.952129 S    
O29   C119  1.307295 A    
S24   O176  1.680709 S    
S4    O67   1.503456 D    
C28   S28   1.796240 S    
C45   S21   1.781263 S    
C106  S30   1.759767 S    
S26   O188  1.503247 D    
C103  C107  1.384934 A    
N27   O162  1.301680 A    
O3    C3    1.304304 A    
Cu9   Cu10  2.656009 S    
C41   C45   1.553518 S    
C28   C32   1.553742 S    
C102  C106  1.378820 A    
C159  C163  1.401585 A    
O39   Cu11  1.989268 S    
C13   C29   1.534932 S    
O16   C8    1.312953 A    
O27   C117  1.305187 A    
C168  C172  1.416367 A    
O44   Cu11  1.984738 S    
S13   O126  1.503041 D    
C122  C182  1.471145 S    
C98   N6    1.425748 S    
N9    O101  1.301088 A    
C35   C39   1.540002 S    
C81   C123  1.501385 S    
C82   C124  1.498852 S    
C14   C46   1.537729 S    
N16   O115  1.303182 A    
C131  H19   1.080035 S    
N23   O154  1.302376 A    
C57   C77   1.412731 A    
O5    C1    1.312251 A    
S23   O172  1.502956 D    
C133  C139  1.391012 A    
C59   C79   1.414501 A    
C12   C16   1.538645 S    
N36   O215  1.301071 A    
C160  S20   1.764646 S    
C22   C116  1.436408 S    
C162  N17   1.435883 S    
O22   Cu6   1.946208 S    
C68   C72   1.406070 A    
S8    O78   1.503407 D    
S26   O190  1.681451 S    
C37   C53   1.471363 S    
C24   C56   1.206373 T    
C39   C47   1.540913 S    
O5    Cu3   1.983557 S    
C33   C41   1.546558 S    
S18   O141  1.501379 D    
C120  C184  1.474184 S    
O176  H44   0.990482 S    
C101  H9    1.083152 S    
O127  H33   0.990355 S    
C176  C178  1.416987 A    
Cu12  O48   1.994372 S    
C157  S17   1.772291 S    
S19   O144  1.501099 D    
S22   O168  1.502618 D    
C158  S18   1.769286 S    
C164  N19   1.430673 S    
C62   N34   1.441201 S    
C86   C90   1.412177 A    
C16   C32   1.534943 S    
C147  C154  1.461201 A    
O8    C4    1.296885 A    
S31   O205  1.680468 S    
C25   C33   1.544458 S    
S29   O197  1.501049 D    
C36   N32   1.457879 S    
S5    O70   1.488272 D    
O45   C127  1.294681 A    
S32   O208  1.680052 S    
S28   O195  1.499884 D    
O187  H45   0.998282 S    
N18   O120  1.302671 A    
Cu9   O45   1.993980 S    
C90   C110  1.421233 A    
S6    O73   1.490058 D    
C76   C84   1.448751 A    
C10   C14   1.539708 S    
O13   Cu3   1.948949 S    
O36   Cu12  1.993708 S    
O59   H21   0.989769 S    
C146  C153  1.468548 A    
C138  C142  1.415366 A    
S17   O139  1.681150 S    
O23   C117  1.302054 A    
S10   O92   1.498274 D    
O24   Cu8   1.946208 S    
O21   C115  1.304896 A    
O34   Cu10  1.993708 S    
C162  C168  1.394500 A    
C92   C96   1.401683 A    
N7    O86   1.301974 A    
N6    O84   1.300528 A    
C97   C101  1.398764 A    
C101  C105  1.382047 A    
N33   O210  1.301580 A    
C130  C134  1.377281 A    
C99   C103  1.399394 A    
N23   O153  1.304976 A    
C15   C47   1.533552 S    
C108  C112  1.386781 A    
C68   S4    1.774465 S    
S22   O170  1.681595 S    
C65   S1    1.778122 S    
S25   O185  1.502039 D    
C58   C78   1.414653 A    
C5    C17   1.434471 S    
O139  H37   0.988271 S    
N12   O108  1.301102 A    
O15   Cu4   1.948949 S    
N1    O50   1.300691 A    
S18   O140  1.503073 D    
C112  H16   1.082374 S    
C89   C93   1.402895 A    
N11   O106  1.300974 A    
N34   O212  1.300862 A    
C111  H15   1.082043 S    
C60   C80   1.413829 A    
C107  S31   1.752672 S    
N9    O102  1.300985 A    
C84   C126  1.481872 S    
S31   O203  1.500496 D    
N14   O112  1.298930 A    
N20   O123  1.300859 A    
C69   C73   1.442383 A    
C88   C92   1.410978 A    
N22   O151  1.300851 A    
C38   C54   1.469198 S    
C84   C88   1.438859 A    
C165  C169  1.415289 A    
C19   C51   1.208089 T    
C20   C52   1.207940 T    
C135  C137  1.386097 A    
O14   C6    1.309786 A    
C83   C87   1.438755 A    
C42   H2    1.110534 S    
C140  C144  1.418284 A    
O20   C114  1.293969 A    
O167  H41   0.990901 S    
C147  C149  1.417141 A    
C167  C171  1.411797 A    
S2    O61   1.503309 D    
O19   Cu7   1.995670 S    
S8    O80   1.682569 S    
C157  C161  1.402043 A    
O42   C124  1.306401 A    
S7    O77   1.682787 S    
O10   C6    1.303744 A    
S20   O147  1.501312 D    
O205  H51   0.992752 S    
C132  C152  1.416121 A    
C138  N10   1.434859 S    
O33   C121  1.291584 A    
C72   C76   1.440069 A    
S9    O91   1.681477 S    
C164  C166  1.396322 A    
N36   O216  1.301411 A    
C65   C69   1.410815 A    
N32   O183  1.298208 A    
C21   C53   1.207619 T    
O43   C125  1.281044 A    
S11   O97   1.681661 S    
S12   O98   1.498778 D    
S2    O62   1.681347 S    
S24   O175  1.502328 D    
S21   O165  1.501607 D    
S29   O199  1.680701 S    
Cu7   O31   1.993284 S    
C113  C155  1.468123 S    
N8    O88   1.301943 A    
C57   C61   1.388354 A    
C133  S10   1.767788 S    
C170  C174  1.424748 A    
C59   C63   1.390472 A    
C18   C50   1.206197 T    
O142  H38   0.986950 S    
C39   C55   1.468728 S    
O41   Cu10  1.984741 S    
N21   O150  1.301092 A    
O17   Cu5   1.995670 S    
C83   C125  1.480612 S    
C59   H7    1.078914 S    
N24   O155  1.301398 A    
C136  S11   1.768552 S    
C142  N14   1.420523 S    
N19   O121  1.300593 A    
C25   S25   1.789423 S    
C57   H5    1.078381 S    
N13   O110  1.299123 A    
O48   C128  1.289293 A    
O26   C116  1.304731 A    
N17   O118  1.301056 A    
C34   C38   1.542503 S    
O202  H50   0.990445 S    
S15   O133  1.683132 S    
C70   C74   1.439834 A    
C11   S15   1.789697 S    
S25   O187  1.678538 S    
N26   O159  1.299741 A    
N3    O54   1.300946 A    
O65   H23   0.992109 S    
Cu7   Cu8   2.705824 S    
C16   N4    1.454937 S    
N5    O82   1.300394 A    
C64   N36   1.441133 S    
O28   C118  1.304034 A    
N15   O113  1.303353 A    
O42   Cu9   1.984738 S    
O18   C113  1.298632 A    
N10   O104  1.301006 A    
C134  S9    1.772076 S    
O37   Cu9   1.989268 S    
O38   C124  1.287064 A    
C129  C149  1.411647 A    
O6    Cu3   1.986053 S    
C100  C104  1.400576 A    
O35   C122  1.291790 A    
S30   O202  1.683023 S    
N25   O158  1.299303 A    
O80   H28   0.988169 S    
C11   C27   1.555077 S    
C141  C145  1.455804 A    
C44   H4    1.110341 S    
C163  N20   1.430653 S    
S16   O136  1.681243 S    
O40   C126  1.296964 A    
C66   C70   1.408870 A    
N29   O178  1.300503 A    
O12   Cu2   1.949264 S    
C79   C95   1.406660 A    
N16   O116  1.299861 A    
C22   C54   1.205995 T    
C47   S23   1.776681 S    
C87   C99   1.437663 A    
S7    O75   1.503387 D    
C159  S19   1.765275 S    
C29   C41   1.552911 S    
S32   O207  1.501111 D    
C179  C184  1.413622 A    
C32   C44   1.554616 S    
O39   C125  1.300543 A    
O100  H32   0.990834 S    
C61   C65   1.399173 A    
O173  H43   0.988018 S    
S16   O134  1.502057 D    
C27   C31   1.555207 S    
C34   C42   1.547458 S    
O38   Cu10  1.989272 S    
C102  H10   1.083850 S    
C36   C40   1.540531 S    
C91   C95   1.403137 A    
C13   N1    1.456236 S    
S9    O89   1.498786 D    
O62   H22   0.989545 S    
C148  C154  1.466221 A    
C173  C179  1.405930 A    
C171  C175  1.437866 A    
S11   O95   1.498692 D    
S12   O100  1.682002 S    
C25   C29   1.546486 S    
S21   O167  1.681595 S    
C26   C34   1.543221 S    
S3    O65   1.680913 S    
O1    C1    1.296580 A    
N15   O114  1.300219 A    
C105  S29   1.762006 S    
C160  C180  1.412245 A    
S26   O189  1.502164 D    
C72   S8    1.777916 S    
C131  C151  1.416076 A    
C9    C37   1.551138 S    
C139  N11   1.434369 S    
C21   C115  1.439589 S    
C171  N27   1.436919 S    
S27   O193  1.680588 S    
C11   C15   1.539969 S    
C12   C40   1.548821 S    
C44   C48   1.549393 S    
O68   H24   0.990901 S    
O24   C118  1.303524 A    
C140  N12   1.435647 S    
N35   O214  1.301285 A    
C31   C43   1.554387 S    
C26   C30   1.547617 S    
O77   H27   0.988268 S    
C33   C37   1.542067 S    
C114  C156  1.453296 S    
S13   O125  1.502405 D    
C37   C45   1.545704 S    
O6    C2    1.308814 A    
Cu5   O29   1.993284 S    
S15   O131  1.501788 D    
S14   O128  1.502011 D    
C92   C112  1.411390 A    
C75   C83   1.449746 A    
C107  C111  1.387014 A    
C130  H18   1.080199 S    
C35   N31   1.458301 S    
C77   C93   1.407298 A    
C58   C62   1.390441 A    
C86   C98   1.438229 A    
C12   C28   1.553500 S    
C81   C85   1.449763 A    
C134  C140  1.390271 A    
S8    O79   1.490770 D    
O2    Cu1   1.985077 S    
C27   S27   1.799099 S    
O10   Cu1   1.949264 S    
O32   C120  1.304442 A    
O34   C121  1.289679 A    
C136  C138  1.385689 A    
C143  C147  1.459039 A    
C61   N33   1.441618 S    
Cu6   O30   1.995767 S    
C121  C181  1.479150 S    
N2    O51   1.300786 A    
C40   C48   1.541296 S    
O74   H26   0.987896 S    
C145  C153  1.468822 A    
O40   Cu12  1.989272 S    
S22   O169  1.503004 D    
O196  H48   0.991115 S    
C80   C96   1.404932 A    
O43   Cu12  1.984741 S    
S31   O204  1.499394 D    
N28   O163  1.298638 A    
N25   O157  1.299354 A    
C1    C93   1.466528 S    
S5    O69   1.503341 D    
O136  H36   0.995703 S    
Cu10  O46   1.994372 S    
C3    C95   1.456696 S    
S14   O130  1.681307 S    
S1    O58   1.503261 D    
C13   C45   1.538060 S    
O208  H52   0.991495 S    
C43   H3    1.110021 S    
N14   O111  1.301993 A    
O7    C3    1.297682 A    
S6    O74   1.681340 S    
C149  C155  1.402360 A    
C91   C111  1.412627 A    
C14   N2    1.457868 S    
S4    O66   1.502603 D    
N30   O180  1.299957 A    
C139  C143  1.415920 A    
S17   O138  1.501524 D    
S10   O93   1.502869 D    
N19   O122  1.300723 A    
C141  N13   1.422042 S    
C150  C155  1.403910 A    
N1    O49   1.299879 A    
O25   Cu6   1.952131 S    
O26   Cu5   1.952129 S    
O91   H29   0.990576 S    
C131  C135  1.376270 A    
C33   N29   1.456603 S    
C82   C86   1.452487 A    
C4    C96   1.456045 S    
C38   C46   1.543996 S    
C76   C80   1.415276 A    
S3    O63   1.502621 D    
C163  C165  1.395861 A    
S27   O191  1.501267 D    
Cu11  O47   1.993980 S    
C174  C180  1.405486 A    
N33   O209  1.301346 A    
N4    O56   1.300258 A    
C78   C94   1.407212 A    
C85   C89   1.409365 A    
C172  C176  1.448429 A    
S13   O127  1.681039 S    
C119  C183  1.478349 S    
C29   C49   1.466671 S    
C97   N5    1.426019 S    
O11   C7    1.301567 A    
C151  C156  1.397879 A    
Cu5   Cu6   2.705824 S    
O1    Cu1   1.987571 S    
O9    Cu1   1.948881 S    
Cu11  Cu12  2.656009 S    
C104  C108  1.385584 A    
N22   O152  1.301441 A    
C142  C146  1.454976 A    
C23   C117  1.437166 S    
S23   O173  1.681712 S    
C43   C47   1.547600 S    
C14   C30   1.538013 S    
S6    O72   1.503266 D    
C64   C68   1.400084 A    
S18   O142  1.681904 S    
C169  N25   1.419984 S    
S30   O201  1.502320 D    
C41   H1    1.110579 S    
N31   O181  1.298179 A    
C127  C153  1.497194 S    
C137  C141  1.415841 A    
O11   Cu2   1.948881 S    
S5    O71   1.681278 S    
O35   Cu11  1.994065 S    
C67   C71   1.407233 A    
C35   C43   1.547215 S    
S7    O76   1.489983 D    
C98   C102  1.396695 A    
C34   N30   1.457748 S    
C176  C182  1.443332 A    
C2    C94   1.460909 S    
C161  C167  1.407194 A    
S19   O143  1.501673 D    
C175  C182  1.437582 A    
C129  C133  1.378122 A    
C36   C44   1.547393 S    
S19   O145  1.681512 S    
C24   C118  1.437644 S    
N32   O184  1.300314 A    
C60   H8    1.079288 S    
C90   C94   1.404389 A    
O19   C114  1.294800 A    
O27   Cu8   1.952131 S    
S11   O96   1.502880 D    
S12   O99   1.503135 D    
S29   O198  1.502493 D    
C30   C42   1.554089 S    
O47   C128  1.293404 A    
O25   C115  1.303768 A    
S1    O59   1.681350 S    
O2    C2    1.296855 A    
C165  N21   1.437899 S    
C144  C148  1.463079 A    
N18   O119  1.309013 A    
C27   C35   1.550143 S    
O145  H39   0.989156 S    
C166  C170  1.415153 A    
O31   C120  1.302536 A    
C28   C36   1.548895 S    
O193  H47   0.991410 S    
N20   O124  1.300432 A    
C63   N35   1.441489 S    
O41   C123  1.305687 A    
S4    O68   1.681424 S    
C9    S13   1.786175 S    
O14   Cu3   1.948565 S    
C15   N3    1.455753 S    
C10   S14   1.786422 S    
C148  C150  1.420962 A    
C48   S24   1.776697 S    
N24   O156  1.301080 A    
O37   C123  1.290321 A    
Cu1   Cu3   2.718861 S    
C161  N18   1.444142 S    
N13   O109  1.302031 A    
C158  C162  1.390997 A    
Cu2   Cu4   2.718861 S    
O190  H46   0.990924 S    
N6    O83   1.302579 A    
N35   O213  1.301087 A    
C129  H17   1.080819 S    
N27   O161  1.300895 A    
N17   O117  1.301023 A    
C157  C177  1.416523 A    
S15   O132  1.504027 D    
O46   C127  1.295776 A    
C7    C19   1.439001 S    
C10   C38   1.549941 S    
S28   O194  1.502389 D    
C8    C20   1.438702 S    
N26   O160  1.299120 A    
C158  C178  1.411276 A    
C128  C154  1.481034 S    
N5    O81   1.302364 A    
O44   C126  1.284897 A    
C100  N8    1.431854 S    
N34   O211  1.301336 A    
O22   C116  1.302345 A    
O12   C8    1.301860 A    
C146  C152  1.416460 A    
C168  N24   1.433392 S    
O133  H35   0.989947 S    
C87   C91   1.411896 A    
C167  N23   1.433110 S    
S1    O57   1.502920 D    
C73   C77   1.421289 A    
