data_mof_unit_43765.cif
_audit_creation_date              2013-03-05T15:42:15-0500
_audit_creation_method            fapswitch 2.2
_symmetry_space_group_name_H-M    P1
_symmetry_Int_Tables_number       1
_space_group_crystal_system       triclinic
_cell_length_a                    11.561136
_cell_length_b                    11.606284
_cell_length_c                    19.462501
_cell_angle_alpha                 90.812666
_cell_angle_beta                  90.071786
_cell_angle_gamma                 60.279866
_cell_volume                      2267.71015972

loop_
_atom_site_label
_atom_site_type_symbol
_atom_site_description
_atom_site_fract_x
_atom_site_fract_y
_atom_site_fract_z
_atom_type_partial_charge
O1    O     O_R   0.267740 0.231960 0.575440 -0.480571
O2    O     O_R   0.527280 0.186640 0.570530 -0.490244
C1    C     C_R   0.640606 0.117389 0.598957 0.557798
O3    O     O_R   0.728090 0.003450 0.576380 -0.484411
O4    O     O_R   0.682970 0.789190 0.570490 -0.479863
C2    C     C_R   0.612446 0.745966 0.598410 0.564013
O5    O     O_R   0.499290 0.771880 0.575530 -0.493435
O6    O     O_R   0.285330 0.030870 0.569730 -0.488711
C3    C     C_R   0.240658 0.145471 0.597866 0.566732
O7    O     O_R   0.270980 0.227080 0.423890 -0.469145
O8    O     O_R   0.530280 0.182120 0.430050 -0.443272
C4    C     C_R   0.648162 0.114199 0.403780 0.591916
O9    O     O_R   0.731330 0.998570 0.424830 -0.485915
O10   O     O_R   0.685970 0.784660 0.430010 -0.480791
C5    C     C_R   0.616182 0.738960 0.401616 0.570351
O11   O     O_R   0.502530 0.767000 0.423990 -0.523528
O12   O     O_R   0.288330 0.026350 0.429250 -0.489580
C6    C     C_R   0.238209 0.142515 0.403137 0.584140
Cr1   Cr    Cr6+3 0.404720 0.198220 0.499960 1.152332
Cr2   Cr    Cr6+3 0.698290 0.897110 0.500380 1.128420
Cr3   Cr    Cr6+3 0.396970 0.904720 0.499610 1.102741
O13   O     O_3   0.499990 0.000020 0.499980 -0.313678
C7    C     C_1   0.670577 0.646470 0.860312 0.006856
C8    C     C_1   0.655015 0.683510 0.728310 -0.024745
C9    C     C_1   0.663700 0.666628 0.799739 -0.028631
C10   C     C_1   0.641363 0.703735 0.667748 0.019733
C11   C     C_1   0.127057 0.198468 0.859474 0.006030
C12   C     C_1   0.170844 0.170639 0.727531 -0.024640
C13   C     C_1   0.150177 0.182118 0.798925 -0.028642
C14   C     C_1   0.194444 0.161508 0.667041 0.020396
C15   C     C_1   0.678650 0.190532 0.861039 0.006575
C16   C     C_1   0.658667 0.167411 0.728958 -0.025274
C17   C     C_1   0.665688 0.180461 0.800428 -0.028647
C18   C     C_1   0.653181 0.150062 0.668372 0.017635
H1    H     H_    0.831137 0.690379 0.325382 0.152209
C19   C     C_R   0.651265 0.694442 0.187079 -0.010996
C20   C     C_R   0.531227 0.726969 0.220665 0.026957
C21   C     C_R   0.538320 0.696777 0.290260 0.016950
C22   C     C_R   0.751859 0.689155 0.296576 -0.136496
C23   C     C_R   0.759903 0.680803 0.225506 -0.151489
C24   C     C_R   0.411589 0.764819 0.184617 -0.086500
C25   C     C_R   0.314160 0.742495 0.213033 -0.153253
C26   C     C_R   0.333499 0.689012 0.278179 -0.116431
C27   C     C_R   0.441279 0.670142 0.317029 -0.041515
C28   C     C_R   0.642866 0.693232 0.330074 0.020065
H2    H     H_    0.398959 0.800517 0.132482 0.123453
H3    H     H_    0.853590 0.654977 0.200957 0.145675
H4    H     H_    0.267249 0.660516 0.300147 0.165990
C29   C     C_R   0.140720 0.200798 0.195127 -0.008942
C30   C     C_R   0.143925 0.298806 0.237560 -0.009723
C31   C     C_R   0.122127 0.297489 0.308448 0.029041
C32   C     C_R   0.173111 0.068823 0.296677 -0.124883
C33   C     C_R   0.152460 0.086625 0.226047 -0.152122
C34   C     C_R   0.167127 0.398332 0.212094 -0.096954
C35   C     C_R   0.144576 0.505552 0.253437 -0.145654
C36   C     C_R   0.093947 0.518148 0.319844 -0.069832
C37   C     C_R   0.078064 0.416357 0.347573 0.248784
C38   C     C_R   0.162968 0.173034 0.338388 0.054918
H5    H     H_    0.206956 0.392060 0.161054 0.142854
H6    H     H_    0.147540 0.010755 0.195422 0.142975
H7    H     H_    0.070223 0.605059 0.350771 0.166120
C39   C     C_R   0.665631 0.186438 0.194550 -0.046335
C40   C     C_R   0.748756 0.062560 0.224461 -0.017168
C41   C     C_R   0.777068 0.059646 0.294738 -0.019741
C42   C     C_R   0.584772 0.277789 0.309411 0.195884
C43   C     C_R   0.581841 0.294502 0.237902 -0.147370
C44   C     C_R   0.817650 0.945174 0.184877 -0.082450
C45   C     C_R   0.931288 0.838568 0.210668 -0.180938
C46   C     C_R   0.974208 0.847546 0.276198 -0.131328
C47   C     C_R   0.900955 0.957958 0.318601 0.244668
C48   C     C_R   0.678532 0.156503 0.337953 0.035984
H8    H     H_    0.989266 0.752210 0.178300 0.104781
H9    H     H_    0.065199 0.769898 0.294278 0.117862
O14   O     O_R   0.821500 0.119340 0.952830 -0.508719
O15   O     O_R   0.037130 0.162530 0.957360 -0.495629
C49   C     C_R   0.081915 0.231108 0.928829 0.543478
O16   O     O_R   0.056440 0.344740 0.951340 -0.506532
O17   O     O_R   0.797900 0.560360 0.957470 -0.497089
C50   C     C_R   0.683960 0.604380 0.929677 0.540005
O18   O     O_R   0.596130 0.579390 0.952730 -0.509431
O19   O     O_R   0.639060 0.321160 0.958670 -0.495386
C51   C     C_R   0.708403 0.206454 0.930400 0.540877
O20   O     O_R   0.821240 0.124200 0.104370 -0.510541
O21   O     O_R   0.036890 0.167040 0.097840 -0.498544
C52   C     C_R   0.084171 0.235936 0.125485 0.542723
O22   O     O_R   0.056180 0.349610 0.102880 -0.524783
O23   O     O_R   0.797660 0.564870 0.097950 -0.503980
C53   C     C_R   0.679545 0.619566 0.122696 0.540363
O24   O     O_R   0.595880 0.584250 0.104270 -0.514058
O25   O     O_R   0.638830 0.325670 0.099150 -0.499252
C54   C     C_R   0.705449 0.210843 0.126468 0.545238
Cr4   Cr    Cr6+3 0.926180 0.151990 0.028120 1.026254
Cr5   Cr    Cr6+3 0.921330 0.451820 0.027470 1.021383
Cr6   Cr    Cr6+3 0.626260 0.446870 0.028710 1.027918
O26   O     O_3   0.824590 0.350230 0.028100 -0.249525
H10   H     H_    0.165045 0.578949 0.232600 0.101452
N1    N     N_R   0.015229 0.435076 0.413911 0.076102
O27   O     O_R   0.005798 0.527415 0.456108 -0.316455
O28   O     O_R   0.955160 0.369197 0.429629 -0.298855
N2    N     N_R   0.498014 0.385345 0.353692 0.058678
O29   O     O_R   0.370382 0.434522 0.348031 -0.372487
O30   O     O_R   0.544970 0.407967 0.410017 -0.323604
H11   H     H_    0.788444 0.938912 0.132648 0.133563
H12   H     H_    0.518980 0.392123 0.216935 0.156694
N3    N     N_R   0.959672 0.972049 0.381365 0.083428
O31   O     O_R   0.054566 0.868235 0.410956 -0.341970
O32   O     O_R   0.928030 0.089287 0.405496 -0.297739
H13   H     H_    0.227191 0.761331 0.183613 0.108403
H14   H     H_    0.449084 0.630210 0.367345 0.225735
H15   H     H_    0.199594 0.973529 0.318313 0.175292

loop_
_geom_bond_atom_site_label_1
_geom_bond_atom_site_label_2
_geom_bond_distance
_ccdc_geom_bond_type
C23   H3    1.080100 S    
O23   C53   1.277936 A    
O11   Cr3   2.052791 S    
C11   C13   1.200138 T    
C24   C25   1.391679 A    
C35   C36   1.395015 A    
N1    O27   1.301667 A    
C44   H11   1.083501 S    
O4    Cr2   1.931635 S    
C52   O22   1.277381 A    
C19   C53   1.456236 S    
O20   Cr4   2.045566 S    
N3    O32   1.301794 A    
O8    Cr1   1.929296 S    
C39   C40   1.407817 A    
C15   C51   1.424635 S    
C12   C13   1.403407 S    
C8    C10   1.199987 T    
O4    C2    1.275198 A    
O17   Cr5   1.934096 S    
C5    O11   1.263098 A    
C36   C37   1.397921 A    
C41   C48   1.405227 A    
O14   Cr4   2.046937 S    
O24   Cr6   2.051298 S    
C21   C28   1.418543 A    
O21   C52   1.283799 A    
C6    C38   1.474648 S    
O6    C3    1.278538 A    
C24   H2    1.083571 S    
C15   C17   1.200275 T    
C46   H9    1.053887 S    
C31   C37   1.420208 A    
C41   C47   1.413448 A    
C26   H4    1.065291 S    
C22   C28   1.398978 A    
C27   H14   1.073827 S    
Cr5   O26   1.987272 S    
Cr3   O13   1.986952 S    
Cr6   O26   1.991318 S    
O14   C51   1.273879 A    
N1    O28   1.301596 A    
C33   H6    1.081013 S    
O25   Cr6   1.931542 S    
C34   H5    1.081652 S    
C40   C44   1.407082 A    
O1    Cr1   2.047910 S    
C39   C43   1.410925 A    
C44   C45   1.383142 A    
C43   H12   1.083670 S    
C19   C23   1.402053 A    
Cr1   O13   1.998155 S    
O1    C3    1.273024 A    
C49   O16   1.271552 A    
C22   C23   1.385242 A    
O17   C50   1.275777 A    
C45   C46   1.389110 A    
C1    C18   1.424684 S    
C30   C31   1.404466 A    
C42   C48   1.404579 A    
Cr4   O26   1.998464 S    
O19   C51   1.280586 A    
C50   O18   1.270172 A    
C16   C18   1.200295 T    
H1    C22   1.079800 S    
O15   C49   1.277418 A    
C21   C27   1.405552 A    
C20   C21   1.396021 A    
O22   Cr5   2.049813 S    
O10   Cr2   1.931971 S    
C32   H15   1.082331 S    
O7    Cr1   2.046853 S    
C45   H8    1.080616 S    
C37   N1    1.442136 S    
C39   C54   1.479641 S    
N2    O30   1.302694 A    
O12   C6    1.286819 A    
C31   C38   1.412754 A    
C30   C34   1.405595 A    
C8    C9    1.403208 S    
C32   C38   1.402644 A    
O15   Cr4   1.929167 S    
C3    C14   1.424360 S    
C4    C48   1.481773 S    
Cr2   O13   1.991912 S    
C42   C43   1.405966 A    
C26   C27   1.379891 A    
C25   C26   1.388118 A    
C5    C28   1.460592 S    
O18   Cr6   2.050784 S    
C1    O3    1.274073 A    
C32   C33   1.395590 A    
C34   C35   1.383632 A    
C19   C20   1.404110 A    
O9    Cr2   2.047233 S    
O2    Cr1   1.929695 S    
C36   H7    1.078851 S    
C42   N2    1.427335 S    
C35   H10   1.075203 S    
C47   N3    1.442935 S    
O6    Cr3   1.935459 S    
O8    C4    1.290451 A    
C2    O5    1.269804 A    
O20   C54   1.281665 A    
N3    O31   1.301715 A    
C7    C50   1.424203 S    
C16   C17   1.403681 S    
C12   C14   1.200106 T    
O2    C1    1.278808 A    
O5    Cr3   2.052210 S    
O19   Cr6   1.933612 S    
O25   C54   1.285817 A    
C2    C10   1.424164 S    
O7    C6    1.275567 A    
C29   C33   1.407337 A    
O23   Cr5   1.934217 S    
O16   Cr5   2.051482 S    
N2    O29   1.296733 A    
C7    C9    1.200000 T    
C20   C24   1.414977 A    
C46   C47   1.391442 A    
O12   Cr3   1.933405 S    
C40   C41   1.402960 A    
O3    Cr2   2.049002 S    
C53   O24   1.272908 A    
C29   C30   1.411516 A    
O10   C5    1.285532 A    
O21   Cr4   1.928885 S    
C29   C52   1.476464 S    
C4    O9    1.276145 A    
C25   H13   1.082013 S    
C11   C49   1.424481 S    
