data_mof_unit_47797.cif
_audit_creation_date              2012-12-10T18:09:51-0500
_audit_creation_method            fapswitch 2.2
_symmetry_space_group_name_H-M    P1
_symmetry_Int_Tables_number       1
_space_group_crystal_system       triclinic
_cell_length_a                    10.922388
_cell_length_b                    12.632476
_cell_length_c                    13.350769
_cell_angle_alpha                 84.59749
_cell_angle_beta                  96.407746
_cell_angle_gamma                 102.008658
_cell_volume                      1785.75436745

loop_
_atom_site_label
_atom_site_type_symbol
_atom_type_description
_atom_site_fract_x
_atom_site_fract_y
_atom_site_fract_z
_atom_type_partial_charge
Br1   Br    Br    0.220449 0.632824 0.684095 -0.393695
Br2   Br    Br    0.861065 0.960941 0.733609 -0.236801
Br3   Br    Br    0.086536 0.249865 0.551742 -0.369532
Br4   Br    Br    0.962470 0.698963 0.609606 -0.224005
Br5   Br    Br    0.864022 0.475320 0.718298 -0.312922
Br6   Br    Br    0.871217 0.703580 0.363679 -0.263199
Br7   Br    Br    0.156436 0.732333 0.447029 -0.334177
Br8   Br    Br    0.616463 0.818690 0.240669 -0.366859
Br9   Br    Br    0.159748 0.357037 0.053137 -0.214079
Br10  Br    Br    0.692538 0.551595 0.917743 -0.290437
Br11  Br    Br    0.245177 0.291983 0.304603 -0.301124
Br12  Br    Br    0.196336 0.053934 0.220550 -0.150175
Br13  Br    Br    0.727527 0.707216 0.715310 -0.261212
C1    C     C_R   0.478077 0.441188 0.690867 0.993835
C2    C     C_R   0.379143 0.465798 0.952347 -0.085113
C3    C     C_R   0.443974 0.486652 0.864590 -0.193000
C4    C     C_R   0.742665 0.500798 0.498844 1.037244
C5    C     C_R   0.413633 0.543632 0.026796 0.016566
C6    C     C_R   0.462525 0.652316 0.993496 -0.050798
C7    C     C_R   0.502547 0.672090 0.897042 0.443602
C8    C     C_R   0.532986 0.582753 0.857973 0.282908
C9    C     C_R   0.438103 0.512072 0.129449 0.436793
C10   C     C_R   0.521257 0.702762 0.163458 0.196912
C11   C     C_R   0.428733 0.409017 0.792278 -0.135454
C12   C     C_3   0.121884 0.496353 0.504000 -0.331833
C13   C     C_R   0.326756 0.088522 0.330596 0.245152
C14   C     C_R   0.662973 0.809508 0.626438 0.302810
C15   C     C_R   0.718670 0.919229 0.635327 0.127742
C16   C     C_R   0.509478 0.558585 0.308339 0.945129
C17   C     C_R   0.667876 0.998417 0.573867 0.369663
C18   C     C_R   0.552764 0.966785 0.515301 -0.054670
C19   C     C_R   0.514098 0.855197 0.496922 0.074672
C20   C     C_R   0.481343 0.043091 0.466730 -0.182929
C21   C     C_R   0.396160 0.012552 0.380500 -0.097119
C22   C     C_R   0.380167 0.905818 0.349712 0.551068
C23   C     C_3   0.082059 0.583170 0.416999 0.456268
C24   C     C_R   0.430521 0.827798 0.413418 -0.137146
C25   C     C_R   0.489373 0.148222 0.501959 0.606662
C26   C     C_R   0.348070 0.193073 0.364436 0.276707
C27   C     C_R   0.257986 0.497999 0.502388 1.018311
C28   C     C_3   0.900272 0.379508 0.495399 0.231512
C29   C     C_3   0.038517 0.381040 0.479899 0.042789
C30   C     C_3   0.933908 0.566808 0.400758 0.502377
C31   C     C_3   0.955306 0.543714 0.601701 0.280658
C32   C     C_3   0.880159 0.500126 0.498831 -0.331941
C33   C     C_3   0.092734 0.519432 0.613317 0.498189
C34   C     C_R   0.500730 0.732164 0.061481 -0.078431
C35   C     C_R   0.492083 0.591692 0.199323 -0.248401
C36   C     C_R   0.347829 0.306983 0.810694 0.328984
C37   C     C_R   0.278697 0.287653 0.897267 0.310002
C38   C     C_R   0.288008 0.369966 0.962718 0.366522
H1    H     H_    0.534377 0.815776 0.034712 0.244887
H2    H     H_    0.313080 0.799854 0.249323 0.362896
H3    H     H_    0.526763 0.109539 0.643628 0.351135
H4    H     H_    0.820701 0.110498 0.591415 0.388307
H5    H     H_    0.909410 0.550319 0.254448 0.396796
H6    H     H_    0.112110 0.500429 0.305450 0.361691
H7    H     H_    0.106069 0.441445 0.748473 0.387636
H8    H     H_    0.876917 0.334359 0.568772 0.213894
H9    H     H_    0.402747 0.744919 0.395848 0.208396
H10   H     H_    0.043341 0.366066 0.400369 0.206828
H11   H     H_    0.831180 0.246960 0.427243 0.387693
H12   H     H_    0.529465 0.775391 0.784406 0.347133
H13   H     H_    0.519715 0.395048 0.179101 0.365723
H14   H     H_    0.246957 0.184095 0.741821 0.384187
H15   H     H_    0.234868 0.131015 0.897042 0.367661
N1    N     N_R   0.433240 0.222190 0.444680 -0.173161
N2    N     N_R   0.566070 0.776970 0.554790 -0.162269
O1    O     O_R   0.468120 0.366740 0.627160 -0.508563
O2    O     O_3   0.544906 0.776511 0.858698 -0.706255
O3    O     O_3   0.432578 0.403286 0.155382 -0.688572
O4    O     O_3   0.331786 0.230575 0.740296 -0.683749
O5    O     O_3   0.199083 0.190010 0.918935 -0.644071
O6    O     O_3   0.312359 0.876512 0.259446 -0.659585
O7    O     O_3   0.541534 0.175807 0.597020 -0.636150
O8    O     O_3   0.732253 0.104714 0.563242 -0.713639
O9    O     O_3   0.888516 0.504408 0.317139 -0.696733
O10   O     O_3   0.132609 0.575781 0.325396 -0.735835
O11   O     O_3   0.096081 0.423940 0.676757 -0.722965
O12   O     O_R   0.510770 0.544830 0.662520 -0.617689
O13   O     O_R   0.663880 0.410950 0.482330 -0.543375
O14   O     O_R   0.706530 0.589040 0.517700 -0.560383
O15   O     O_R   0.489230 0.455170 0.337480 -0.583355
O16   O     O_R   0.531880 0.633260 0.372840 -0.613582
O17   O     O_R   0.293470 0.410960 0.482300 -0.574956
O18   O     O_R   0.336120 0.589050 0.517670 -0.604980
O19   O     O_3   0.821784 0.323802 0.417827 -0.633998
Zn1   Zn    Zn3+2 0.471520 0.381090 0.476390 1.132306
Zn2   Zn    Zn3+2 0.528480 0.618910 0.523610 1.058670

loop_
_geom_bond_atom_site_label_1
_geom_bond_atom_site_label_2
_ccdc_geom_bond_type
C2    C5    A    
C9    C35   A    
Br3   C29   S    
C3    C8    A    
Br7   C23   S    
C6    C7    A    
Br9   C38   S    
C22   O6    S    
N1    Zn1   S    
O14   Zn2   S    
C22   C24   A    
C4    C32   S    
C16   O15   A    
C12   C27   S    
C33   O11   S    
C6    C34   A    
Br1   C33   S    
C1    C11   S    
C2    C3    A    
Br8   C10   S    
C21   C22   A    
C28   C29   S    
H13   O3    S    
C27   O18   A    
O12   Zn2   S    
C14   N2    A    
C13   C21   A    
H2    O6    S    
C36   O4    S    
C18   C20   A    
C1    O12   A    
C19   N2    A    
O15   Zn1   S    
C3    C11   A    
C7    O2    S    
C31   C33   S    
N2    Zn2   S    
C25   O7    S    
Br10  C8    S    
C28   O19   S    
C10   C34   A    
C16   C35   S    
C24   H9    S    
C28   H8    S    
C16   O16   A    
C37   O5    S    
C5    C6    A    
Br4   C31   S    
H15   O5    S    
H5    O9    S    
Br12  C13   S    
C27   O17   A    
C17   O8    S    
C18   C19   A    
H12   O2    S    
C4    O14   A    
C37   C38   A    
C19   C24   A    
C25   N1    A    
Br11  C26   S    
C30   C32   S    
C29   H10   S    
O1    Zn1   S    
H7    O11   S    
H4    O8    S    
Br5   C31   S    
C2    C38   A    
Br6   C30   S    
C1    O1    A    
O16   Zn2   S    
C9    O3    S    
C31   C32   S    
O17   Zn1   S    
C11   C36   A    
C10   C35   A    
C5    C9    A    
C26   N1    A    
H6    O10   S    
O18   Zn2   S    
C12   C29   S    
C34   H1    S    
C30   O9    S    
H14   O4    S    
H11   O19   S    
C20   C25   A    
C15   C17   A    
C23   O10   S    
C17   C18   A    
C20   C21   A    
C4    O13   A    
C13   C26   A    
O13   Zn1   S    
C12   C23   S    
H3    O7    S    
C7    C8    A    
C36   C37   A    
C14   C15   A    
C28   C32   S    
Br13  C14   S    
C23   C30   S    
Br2   C15   S    
C12   C33   S    
