data_mof_unit_68468.cif
_audit_creation_date              2012-12-10T16:47:31-0500
_audit_creation_method            fapswitch 2.2
_symmetry_space_group_name_H-M    P1
_symmetry_Int_Tables_number       1
_space_group_crystal_system       triclinic
_cell_length_a                    10.667184
_cell_length_b                    8.793534
_cell_length_c                    7.449173
_cell_angle_alpha                 102.809511
_cell_angle_beta                  95.330755
_cell_angle_gamma                 92.474276
_cell_volume                      676.947289628

loop_
_atom_site_label
_atom_site_type_symbol
_atom_type_description
_atom_site_fract_x
_atom_site_fract_y
_atom_site_fract_z
_atom_type_partial_charge
C1    C     C_R   0.493661 0.200410 0.454190 0.894734
C2    C     C_3   0.123632 0.498288 0.500434 -0.120098
C3    C     C_3   0.972034 0.629639 0.618251 -0.064095
C4    C     C_3   0.027966 0.370361 0.381748 -0.064094
C5    C     C_2   0.478130 0.033954 0.430312 -0.044229
C6    C     C_2   0.521870 0.966046 0.569688 -0.044229
C7    C     C_3   0.905907 0.228784 0.609936 -0.789753
C8    C     C_3   0.094093 0.771216 0.390064 -0.789753
C9    C     C_2   0.115500 0.505271 0.860605 0.454295
C10   C     C_2   0.884500 0.494729 0.139395 0.454297
C11   C     C_2   0.946432 0.777774 0.749987 0.424664
C12   C     C_R   0.506338 0.799590 0.545810 0.894734
C13   C     C_2   0.053568 0.222226 0.250013 0.424664
C14   C     C_3   0.407059 0.945381 0.246685 -0.779016
C15   C     C_3   0.592940 0.054619 0.753314 -0.779017
C16   C     C_R   0.259724 0.498856 0.500435 0.857981
C17   C     C_R   0.740276 0.501144 0.499565 0.857981
C18   C     C_3   0.052267 0.501291 0.671137 -0.055253
C19   C     C_3   0.947733 0.498709 0.328863 -0.055252
C20   C     C_3   0.956230 0.373424 0.552585 0.099622
C21   C     C_3   0.043770 0.626576 0.447415 0.099622
C22   C     C_3   0.876368 0.501712 0.499566 -0.120098
Cu1   Cu    Cu3+1 0.514140 0.517380 0.684380 0.980375
Cu2   Cu    Cu3+1 0.485860 0.482620 0.315620 0.980375
H1    H     H_    0.399830 0.379814 0.947713 0.248450
H2    H     H_    0.832097 0.388859 0.060702 0.049206
H3    H     H_    0.024793 0.853840 0.828657 0.060668
H4    H     H_    0.975207 0.146160 0.171343 0.060668
H5    H     H_    0.362487 0.023245 0.164543 0.267316
H6    H     H_    0.472752 0.876982 0.158321 0.242418
H7    H     H_    0.328749 0.868559 0.271419 0.232421
H8    H     H_    0.637512 0.976755 0.835457 0.267316
H9    H     H_    0.671250 0.131441 0.728581 0.232421
H10   H     H_    0.527248 0.123018 0.841679 0.242418
H11   H     H_    0.600170 0.620186 0.052287 0.248450
H12   H     H_    0.983785 0.151631 0.626327 0.252361
H13   H     H_    0.865869 0.264737 0.743652 0.243199
H14   H     H_    0.831722 0.164057 0.502527 0.197619
H15   H     H_    0.016215 0.848369 0.373673 0.252361
H16   H     H_    0.168278 0.835943 0.497473 0.197619
H17   H     H_    0.134131 0.735263 0.256348 0.243199
H18   H     H_    0.167901 0.611141 0.939298 0.049206
N1    N     N_2   0.464560 0.456420 0.038510 -0.226172
N2    N     N_2   0.535440 0.543580 0.961490 -0.226171
O1    O     O_R   0.509190 0.286130 0.619780 -0.607120
O2    O     O_2   0.888740 0.610601 0.075068 -0.547166
O3    O     O_2   0.838648 0.814080 0.768866 -0.542228
O4    O     O_2   0.161352 0.185920 0.231134 -0.542228
O5    O     O_R   0.490810 0.713870 0.380220 -0.607121
O6    O     O_R   0.485310 0.256770 0.308360 -0.577199
O7    O     O_R   0.514690 0.743230 0.691640 -0.577198
O8    O     O_R   0.328790 0.514640 0.655680 -0.622006
O9    O     O_R   0.671210 0.485360 0.344320 -0.622006
O10   O     O_R   0.304910 0.485280 0.344260 -0.530996
O11   O     O_R   0.695090 0.514720 0.655740 -0.530996
O12   O     O_2   0.111258 0.389400 0.924933 -0.547166

loop_
_geom_bond_atom_site_label_1
_geom_bond_atom_site_label_2
_ccdc_geom_bond_type
C10   O2    D    
C13   O4    D    
C2    C4    S    
N1    N2    D    
C13   H4    S    
Cu1   O11   S    
C19   C22   S    
Cu1   O1    S    
C8    H15   S    
C2    C18   S    
C2    C16   S    
C7    H12   S    
C17   O11   A    
C15   H10   S    
Cu1   O7    S    
C17   C22   S    
C11   H3    S    
C10   C19   S    
Cu1   Cu2   S    
C1    O1    A    
H1    N1    S    
C2    C21   S    
C12   O5    A    
C5    C14   S    
C15   H8    S    
C9    O12   D    
Cu1   O8    S    
C6    C12   S    
H11   N2    S    
C10   H2    S    
C9    H18   S    
C14   H6    S    
C1    C5    S    
C19   C21   S    
C7    H14   S    
C20   C22   S    
C8    C21   S    
C18   C20   S    
Cu2   O6    S    
C5    C6    D    
C7    H13   S    
C16   O10   A    
C3    C21   S    
C3    C11   S    
C14   H5    S    
Cu2   O10   S    
C4    C20   S    
C17   O9    A    
C9    C18   S    
C4    C13   S    
C12   O7    A    
C8    H17   S    
C3    C18   S    
C7    C20   S    
C1    O6    A    
Cu2   O5    S    
Cu2   N1    S    
C3    C22   S    
C8    H16   S    
Cu2   O9    S    
C4    C19   S    
C11   O3    D    
C15   H9    S    
Cu1   N2    S    
C16   O8    A    
C6    C15   S    
C14   H7    S    
