data_mof_unit_47058.cif
_audit_creation_date              2013-03-05T15:50:03-0500
_audit_creation_method            fapswitch 2.2
_symmetry_space_group_name_H-M    P1
_symmetry_Int_Tables_number       1
_space_group_crystal_system       triclinic
_cell_length_a                    8.222274
_cell_length_b                    12.97496
_cell_length_c                    17.385702
_cell_angle_alpha                 95.824126
_cell_angle_beta                  95.876888
_cell_angle_gamma                 98.000178
_cell_volume                      1814.41380073

loop_
_atom_site_label
_atom_site_type_symbol
_atom_site_description
_atom_site_fract_x
_atom_site_fract_y
_atom_site_fract_z
_atom_type_partial_charge
P1    P     P_3+3 0.990420 0.746550 0.559720 0.469256
O1    O     O_2   0.163080 0.763400 0.536930 -0.340501
O2    O     O_3   0.893330 0.628980 0.538660 -0.395773
O3    O     O_3   0.379830 0.697590 0.399610 -0.398528
O4    O     O_2   0.287506 0.880670 0.444008 -0.269656
O5    O     O_3   0.016704 0.766133 0.662089 -0.613012
O6    O     O_3   0.372376 0.862565 0.304437 -0.505775
H1    H     H_    0.356452 0.710672 0.251348 0.125509
C1    C     C_3   0.418174 0.822552 0.172079 -1.006417
H2    H     H_    0.285465 0.811569 0.147047 0.283322
H3    H     H_    0.472893 0.906823 0.173956 0.258083
P2    P     P_3+3 0.330880 0.415450 0.326700 0.484843
P3    P     P_3+3 0.912132 0.637414 0.259960 0.520712
O7    O     O_2   0.161570 0.447940 0.314920 -0.365951
O8    O     O_3   0.953630 0.643360 0.361440 -0.279417
O9    O     O_2   0.009060 0.552678 0.226571 -0.384731
O10   O     O_3   0.290166 0.278372 0.305769 -0.572191
O11   O     O_3   0.012385 0.752024 0.229188 -0.483515
C2    C     C_3   0.900877 0.824045 0.217471 0.514282
H4    H     H_    0.776569 0.784389 0.191068 -0.027530
C3    C     C_3   0.964569 0.897179 0.159857 -1.029725
H5    H     H_    0.083278 0.947046 0.185597 0.272726
H6    H     H_    0.986837 0.850577 0.105363 0.263600
C4    C     C_3   0.852684 0.269229 0.292137 0.428103
H7    H     H_    0.981363 0.292866 0.317344 0.123332
C5    C     C_3   0.854573 0.202901 0.214403 -1.097402
H8    H     H_    0.726430 0.167135 0.189825 0.267438
H9    H     H_    0.910205 0.252366 0.171893 0.243049
H10   H     H_    0.930290 0.139015 0.223133 0.271902
Ba1   Ba    Ba6+2 0.158660 0.552610 0.463110 1.595960
C6    C     C_3   0.034779 0.672402 0.694336 0.417592
H11   H     H_    0.162056 0.655415 0.690815 0.058457
H12   H     H_    0.946244 0.604108 0.665543 0.160717
C7    C     C_3   0.000831 0.684597 0.779172 -1.000755
H13   H     H_    0.108320 0.730355 0.816982 0.237106
H14   H     H_    0.977147 0.606959 0.800391 0.242459
H15   H     H_    0.889863 0.723579 0.785024 0.284046
C8    C     C_3   0.275867 0.230840 0.374509 0.373629
H16   H     H_    0.157326 0.241479 0.397241 0.019865
H17   H     H_    0.377357 0.263250 0.421401 0.166948
C9    C     C_3   0.279964 0.113704 0.356163 -0.811476
H18   H     H_    0.185981 0.078984 0.305784 0.243597
H19   H     H_    0.252549 0.073335 0.407757 0.248596
H20   H     H_    0.405453 0.101433 0.341133 0.254580
P4    P     P_3+3 0.819870 0.253440 0.440220 0.492563
O12   O     O_2   0.647210 0.236530 0.463040 -0.361100
O13   O     O_3   0.916960 0.371010 0.461280 -0.356032
O14   O     O_3   0.430470 0.302400 0.600330 -0.393463
O15   O     O_3   0.761629 0.209795 0.340532 -0.586285
P5    P     P_3+3 0.884309 0.367753 0.740059 0.441285
O16   O     O_3   0.388290 0.554800 0.590630 -0.396535
O17   O     O_3   0.856660 0.356630 0.638500 -0.386281
O18   O     O_2   0.755187 0.430180 0.773360 -0.419802
O19   O     O_3   0.836573 0.242748 0.766521 -0.513347
Ba2   Ba    Ba6+2 0.651510 0.447380 0.536830 1.562611
P6    P     P_3+3 0.419002 0.834045 0.399703 0.529030
C10   C     C_3   0.431732 0.789284 0.253620 0.560862
H21   H     H_    0.563360 0.784592 0.272244 -0.081290
H22   H     H_    0.485769 0.773375 0.133810 0.220077
O20   O     O_3   0.422000 0.445190 0.409310 -0.389873
C11   C     C_3   0.543965 0.770059 0.673092 0.273840
H23   H     H_    0.670172 0.766962 0.655921 0.067202
H24   H     H_    0.450051 0.748174 0.620928 0.140830
C12   C     C_3   0.530792 0.879783 0.709360 -0.378487
H25   H     H_    0.631339 0.902524 0.758239 0.151118
P7    P     P_3+3 0.471297 0.576943 0.689433 0.432349
O21   O     O_2   0.648720 0.552000 0.685060 -0.342575
O22   O     O_3   0.515075 0.705235 0.730232 -0.597156
H26   H     H_    0.871795 0.948814 0.144672 0.225593
C13   C     C_3   0.913083 0.173882 0.719124 0.532135
H27   H     H_    0.836683 0.152956 0.661462 0.094652
H28   H     H_    0.039659 0.208043 0.708148 0.009597
C14   C     C_3   0.928995 0.077106 0.760490 -1.101819
H29   H     H_    0.963157 0.013544 0.720176 0.231778
H30   H     H_    0.025152 0.097993 0.811736 0.303597
H31   H     H_    0.809552 0.050320 0.782596 0.260429
P8    P     P_3+3 0.389094 0.169965 0.608362 0.446102
C15   C     C_3   0.431188 0.237891 0.756013 0.383458
H32   H     H_    0.296121 0.232412 0.756965 0.046463
O23   O     O_2   0.508476 0.123980 0.556100 -0.348185
O24   O     O_3   0.467587 0.155133 0.704112 -0.563361
H33   H     H_    0.477079 0.314607 0.737211 0.148672
C16   C     C_3   0.519159 0.237666 0.838945 -0.589506
H34   H     H_    0.585519 0.317403 0.861003 0.199440
H35   H     H_    0.612698 0.183881 0.838028 0.214000
C17   C     C_R   0.073677 0.184270 0.535332 -0.516129
C18   C     C_R   0.727406 0.820421 0.477148 -0.436505
C19   C     C_R   0.695233 0.996311 0.447765 -0.177443
C20   C     C_R   0.631621 0.889280 0.444636 0.228984
C21   C     C_R   0.884741 0.854391 0.516828 0.285973
C22   C     C_R   0.948500 0.966368 0.524392 -0.022639
C23   C     C_R   0.852987 0.038252 0.487690 -0.017306
C24   C     C_R   0.918207 0.149460 0.492957 0.242080
C25   C     C_R   0.169867 0.115859 0.568975 0.213345
C26   C     C_R   0.105373 0.008581 0.565255 -0.217947
H36   H     H_    0.619305 0.046037 0.419619 0.172814
H37   H     H_    0.178866 0.958291 0.593568 0.190598
H38   H     H_    0.124968 0.266282 0.538740 0.167316
H39   H     H_    0.676587 0.738228 0.472885 0.155642
H40   H     H_    0.541359 0.554748 0.856983 0.163424
H41   H     H_    0.713712 0.599221 0.104676 0.147952
C27   C     C_R   0.584219 0.559439 0.280575 -0.380593
C28   C     C_R   0.438713 0.489011 0.255721 0.303866
C29   C     C_R   0.381311 0.470350 0.175875 -0.269079
C30   C     C_R   0.475868 0.515663 0.121523 0.087779
C31   C     C_R   0.633648 0.572458 0.146718 -0.315506
C32   C     C_R   0.690056 0.592148 0.226317 0.166327
C33   C     C_R   0.418303 0.513968 0.835826 -0.288475
C34   C     C_R   0.363268 0.501335 0.755880 0.318830
C35   C     C_R   0.094899 0.422222 0.780438 0.227758
C36   C     C_R   0.146644 0.434248 0.860599 -0.151929
C37   C     C_R   0.310484 0.478520 0.888464 0.085766
C38   C     C_1   0.366616 0.490242 0.970830 0.021708
C39   C     C_1   0.415250 0.500697 0.039582 -0.006775
C40   C     C_R   0.204611 0.452202 0.728554 -0.542818
H42   H     H_    0.060482 0.409185 0.900600 0.148868
H43   H     H_    0.265169 0.419656 0.156219 0.156125
H44   H     H_    0.625699 0.577149 0.342226 0.185113
H45   H     H_    0.162397 0.444908 0.666887 0.167608
C41   C     C_2   0.553412 0.949768 0.647500 0.521833
H46   H     H_    0.655268 0.012876 0.654527 0.069382
O25   O     O_2   0.462595 0.931500 0.586214 -0.571092
C42   C     C_3   0.361540 0.880087 0.741149 -0.244516
C43   C     C_3   0.345605 0.977002 0.796910 -0.264783
C44   C     C_3   0.230169 0.948621 0.858056 -0.958267
H47   H     H_    0.106461 0.911295 0.828747 0.289420
H48   H     H_    0.282940 0.894618 0.896405 0.264522
H49   H     H_    0.212704 0.019737 0.895636 0.270762
H50   H     H_    0.469025 0.012897 0.827355 0.201357
H51   H     H_    0.288882 0.033212 0.762283 0.230624
H52   H     H_    0.265197 0.871788 0.690885 0.217171
H53   H     H_    0.336582 0.810959 0.773680 0.229360
C45   C     C_2   0.405673 0.206186 0.897652 0.479850
H54   H     H_    0.443503 0.155001 0.939825 0.048031
O26   O     O_2   0.275915 0.241090 0.901647 -0.592574
C46   C     C_2   0.887595 0.888947 0.292796 0.451768
H55   H     H_    0.796915 0.942272 0.294830 -0.022105
O27   O     O_2   0.979187 0.883347 0.351534 -0.522195
C47   C     C_2   0.772930 0.363234 0.280150 0.611023
H56   H     H_    0.684298 0.365578 0.228517 -0.063065
O28   O     O_2   0.798806 0.435396 0.332412 -0.551179

loop_
_geom_bond_atom_site_label_1
_geom_bond_atom_site_label_2
_geom_bond_distance
_ccdc_geom_bond_type
O14   Ba2   2.818018 S    
P7    O22   1.716049 S    
Ba1   O16   2.756072 S    
C19   H36   1.076623 S    
P1    C21   1.920005 S    
C42   H53   1.114429 S    
C11   C12   1.520153 S    
C7    H15   1.111619 S    
C9    H19   1.110692 S    
C14   H29   1.112563 S    
O4    P6    1.544772 D    
C2    H4    1.108935 S    
C15   O24   1.415936 S    
P3    C32   1.853183 S    
P4    C24   1.928064 S    
C21   C22   1.462243 A    
C42   C43   1.537099 S    
P4    O12   1.505748 D    
C5    H8    1.113338 S    
P5    O19   1.734255 S    
P3    O11   1.757160 S    
C2    C3    1.529711 S    
C4    C5    1.529474 S    
C7    H13   1.105207 S    
C8    H16   1.109288 S    
C31   C32   1.399763 A    
P8    C25   1.873054 S    
P5    C35   1.816664 S    
C33   C34   1.402789 A    
P1    O1    1.505521 D    
C9    H18   1.118780 S    
C11   H24   1.114752 S    
C35   C36   1.401282 A    
C23   C24   1.457986 A    
C17   C25   1.400568 A    
O2    Ba2   2.859033 S    
C15   C16   1.545942 S    
C19   C23   1.415235 A    
Ba1   O20   2.914790 S    
O12   Ba2   2.895340 S    
C44   H49   1.110265 S    
P5    O17   1.745580 S    
C6    H12   1.105218 S    
C36   H42   1.083496 S    
P4    O15   1.763286 S    
C1    H2    1.116797 S    
C7    H14   1.106480 S    
C11   H23   1.113643 S    
C27   H44   1.082278 S    
O17   Ba2   2.778640 S    
P2    Ba1   3.365906 S    
P7    O21   1.545254 D    
Ba2   O20   2.755480 S    
O3    P6    1.754703 S    
C45   O26   1.221266 D    
C14   H30   1.113300 S    
C25   C26   1.411411 A    
O6    P6    1.749555 S    
O7    Ba1   2.791827 S    
C29   C30   1.406771 A    
C41   O25   1.218856 D    
C18   H39   1.082130 S    
P4    O13   1.608168 S    
C4    C47   1.485731 S    
H40   C33   1.083637 S    
P5    O18   1.545477 D    
P1    O5    1.758690 S    
C30   C39   1.444687 S    
C4    H7    1.092244 S    
C8    C9    1.526706 S    
C46   O27   1.219878 D    
C22   C23   1.454603 A    
C15   H32   1.104851 S    
O11   C2    1.412161 S    
O16   Ba2   2.913957 S    
C2    C46   1.505695 S    
C33   C37   1.404649 A    
C3    H26   1.112354 S    
C1    H22   1.116686 S    
O16   P7    1.761882 S    
O14   P8    1.727320 S    
P2    O10   1.756642 S    
O2    Ba1   2.896718 S    
C17   C24   1.399913 A    
H1    C10   1.111828 S    
C15   H33   1.107597 S    
C16   H34   1.111139 S    
O19   C13   1.409384 S    
P8    O24   1.761914 S    
C13   C14   1.523395 S    
C6    C7    1.525649 S    
C43   H51   1.112713 S    
C27   C32   1.404911 A    
C1    H3    1.118862 S    
C13   H27   1.114289 S    
P2    C28   1.856731 S    
Ba1   O13   2.858463 S    
P6    C20   1.854207 S    
C16   H35   1.108357 S    
P2    O7    1.510007 D    
C40   H45   1.083017 S    
P3    O8    1.754105 S    
C45   H54   1.088587 S    
C9    H20   1.118370 S    
P3    O9    1.545972 D    
C41   H46   1.074548 S    
O8    Ba1   2.778050 S    
O13   Ba2   2.897554 S    
C38   C39   1.208800 T    
Ba1   Ba2   4.556320 S    
P8    O23   1.542959 D    
H41   C31   1.083800 S    
C36   C37   1.404961 A    
C42   H52   1.103705 S    
C6    H11   1.105479 S    
C46   H55   1.086239 S    
Ba2   O21   2.792010 S    
C47   H56   1.102533 S    
C26   H37   1.071105 S    
C12   C42   1.549420 S    
C30   C31   1.403552 A    
C29   H43   1.083547 S    
C5    H9    1.118554 S    
C12   C41   1.485919 S    
O1    Ba1   2.894659 S    
C12   H25   1.109057 S    
C3    H6    1.116600 S    
C8    H17   1.109623 S    
C47   O28   1.216464 D    
C11   O22   1.383127 S    
C10   H21   1.109256 S    
C44   H47   1.111519 S    
C4    O15   1.401095 S    
P1    Ba1   3.413760 S    
C14   H31   1.114632 S    
C43   H50   1.111443 S    
O5    C6    1.409625 S    
C1    C10   1.521093 S    
O10   C8    1.407334 S    
P7    C34   1.812048 S    
C27   C28   1.400993 A    
C17   H38   1.082052 S    
C16   C45   1.500945 S    
C34   C40   1.383479 A    
C22   C26   1.416033 A    
P2    O20   1.536126 S    
C37   C38   1.444859 S    
C19   C20   1.407739 A    
P4    Ba2   3.414311 S    
C5    H10   1.116941 S    
C18   C21   1.393035 A    
C28   C29   1.405066 A    
C44   H48   1.115320 S    
C18   C20   1.394700 A    
C13   H28   1.116004 S    
P1    O2    1.608170 S    
C3    H5    1.116958 S    
C35   C40   1.385252 A    
O6    C10   1.403476 S    
O3    Ba1   2.818652 S    
C43   C44   1.534722 S    
