data_mof_unit_11531.cif
_audit_creation_date              2012-12-10T19:15:23-0500
_audit_creation_method            fapswitch 2.2
_symmetry_space_group_name_H-M    P1
_symmetry_Int_Tables_number       1
_space_group_crystal_system       triclinic
_cell_length_a                    10.667784
_cell_length_b                    10.153229
_cell_length_c                    23.142926
_cell_angle_alpha                 89.858955
_cell_angle_beta                  90.819959
_cell_angle_gamma                 91.875359
_cell_volume                      2505.06296041

loop_
_atom_site_label
_atom_site_type_symbol
_atom_type_description
_atom_site_fract_x
_atom_site_fract_y
_atom_site_fract_z
_atom_type_partial_charge
C1    C     C_R   0.260727 0.499665 0.506739 0.892871
C2    C     C_R   0.287798 0.562315 0.962200 -0.076804
C3    C     C_R   0.284077 0.545784 0.021825 -0.112563
C4    C     C_R   0.395911 0.545366 0.054451 -0.024631
C5    C     C_R   0.512070 0.566545 0.026913 -0.003569
C6    C     C_R   0.623654 0.574129 0.059635 -0.084362
C7    C     C_R   0.737430 0.604429 0.032527 -0.200930
C8    C     C_R   0.743665 0.622288 0.972564 0.375818
C9    C     C_R   0.394968 0.525990 0.114258 0.529188
C10   C     C_R   0.618195 0.553967 0.119351 0.550469
C11   C     C_R   0.514374 0.634822 0.238888 -0.082741
C12   C     C_R   0.499791 0.500605 0.389630 0.995130
C13   C     C_R   0.513660 0.627774 0.298551 -0.126705
C14   C     C_R   0.500188 0.505027 0.326471 -0.083737
C15   C     C_R   0.486786 0.389354 0.293500 -0.122223
C16   C     C_R   0.487476 0.396911 0.233365 -0.087296
C17   C     C_R   0.501697 0.519810 0.206312 0.279906
C18   C     C_R   0.414272 0.440558 0.763202 0.480901
C19   C     C_R   0.404042 0.453605 0.703364 -0.297803
C20   C     C_R   0.508105 0.497080 0.672023 -0.113868
C21   C     C_R   0.625989 0.503607 0.698957 -0.193649
C22   C     C_R   0.636091 0.487245 0.758577 0.383019
C23   C     C_R   0.738709 0.501192 0.512238 0.936167
C24   C     C_R   0.525146 0.490405 0.791465 0.006494
C25   C     C_3   0.081948 0.642229 0.532086 -0.454966
C26   C     C_3   0.080448 0.411963 0.565155 -0.393073
C27   C     C_3   0.937423 0.645154 0.531446 0.250757
C28   C     C_3   0.936167 0.418882 0.572634 0.329645
C29   C     C_3   0.064178 0.471023 0.455870 -0.350938
C30   C     C_3   0.124702 0.503293 0.514844 -0.006531
C31   C     C_3   0.878959 0.502437 0.521200 -0.206612
C32   C     C_3   0.925400 0.449178 0.462654 -0.375217
C33   C     C_3   0.366689 0.071587 0.493168 0.103391
C34   C     C_3   0.368471 0.910020 0.488332 0.154024
C35   C     C_3   0.561867 0.082826 0.444834 0.236559
C36   C     C_3   0.571869 0.923522 0.447525 0.145939
C37   C     C_3   0.560316 0.078723 0.549912 -0.402333
C38   C     C_3   0.547815 0.923540 0.552835 -0.417570
C39   C     C_R   0.500479 0.499608 0.609820 0.881560
C40   C     C_R   0.628653 0.598548 0.877146 0.637294
C41   C     C_R   0.410019 0.575031 0.874388 0.615334
C42   C     C_R   0.403483 0.574631 0.934321 -0.011488
C43   C     C_R   0.516330 0.579432 0.966559 -0.055213
C44   C     C_R   0.632076 0.602198 0.938310 -0.153725
H1    H     H_    0.200417 0.558880 0.937772 0.235498
H2    H     H_    0.709852 0.506400 0.673132 0.209944
H3    H     H_    0.117004 0.718376 0.502339 0.251711
H4    H     H_    0.110694 0.310486 0.560067 0.272187
H5    H     H_    0.124337 0.669354 0.574773 0.225320
H6    H     H_    0.127710 0.445204 0.606054 0.139636
H7    H     H_    0.912126 0.700911 0.492872 0.232809
H8    H     H_    0.919860 0.470926 0.613396 0.156338
H9    H     H_    0.877521 0.496501 0.425224 0.226555
H10   H     H_    0.905351 0.342163 0.460258 0.317514
H11   H     H_    0.493321 0.097535 0.408896 0.154044
H12   H     H_    0.525910 0.887132 0.407914 0.169270
H13   H     H_    0.660379 0.105497 0.549177 0.272639
H14   H     H_    0.639868 0.883709 0.563982 0.259833
H15   H     H_    0.521310 0.120867 0.589813 0.222230
H16   H     H_    0.485476 0.894334 0.589131 0.208181
H17   H     H_    0.822343 0.614436 0.058498 0.236789
H18   H     H_    0.525279 0.729727 0.217752 0.162901
H19   H     H_    0.524214 0.718898 0.322584 0.213791
H20   H     H_    0.475546 0.293811 0.314001 0.220124
N1    N     N_R   0.522048 0.552498 0.848565 -0.342379
N2    N     N_R   0.505221 0.529448 0.145033 -0.361270
N3    N     N_3   0.499750 0.138610 0.498760 -0.159921
N4    N     N_3   0.499750 0.861390 0.498760 -0.163120
O1    O     O_R   0.314910 0.616040 0.499990 -0.585913
O2    O     O_R   0.314910 0.383960 0.499990 -0.549565
O3    O     O_R   0.500080 0.616070 0.416130 -0.549458
O4    O     O_R   0.500080 0.383930 0.416130 -0.538428
O5    O     O_R   0.685320 0.616040 0.499970 -0.537246
O6    O     O_R   0.685320 0.383960 0.499970 -0.511032
O7    O     O_R   0.500150 0.616010 0.583820 -0.605262
O8    O     O_R   0.500150 0.383990 0.583820 -0.607458
O9    O     O_2   0.726318 0.646031 0.846744 -0.398252
O10   O     O_2   0.306717 0.600088 0.842577 -0.467709
O11   O     O_2   0.285180 0.505221 0.141629 -0.515190
O12   O     O_2   0.724565 0.559132 0.151701 -0.511368
Zn1   Zn    Zn3+2 0.500150 0.654960 0.499970 1.059528
Zn2   Zn    Zn3+2 0.500150 0.345040 0.499970 1.084231
H21   H     H_    0.318278 0.422046 0.680999 0.179012
S1    S     S_3+6 0.771340 0.406896 0.784118 0.140926
O13   O     O_2   0.756345 0.362316 0.845669 -0.228687
O14   O     O_2   0.791277 0.287590 0.747494 -0.251948
O15   O     O_3   0.897914 0.509173 0.778806 -0.369326
H22   H     H_    0.921781 0.505824 0.737653 0.379557
S2    S     S_3+6 0.888393 0.729743 0.596535 0.003579
O16   O     O_2   0.751316 0.705043 0.606899 -0.357879
O17   O     O_2   0.960356 0.684765 0.648928 -0.302080
O18   O     O_3   0.918454 0.892394 0.589626 -0.477287
H23   H     H_    0.870489 0.933497 0.620759 0.413514
S3    S     S_3+6 0.871867 0.260562 0.590198 0.002278
O19   O     O_2   0.873789 0.172270 0.538722 -0.283865
O20   O     O_2   0.950855 0.202495 0.637581 -0.248113
O21   O     O_3   0.726082 0.277435 0.614733 -0.598971
H24   H     H_    0.713722 0.206230 0.643608 0.395257
H25   H     H_    0.080688 0.555165 0.425736 0.214373
H26   H     H_    0.103656 0.385697 0.434098 0.286214
S4    S     S_3+6 0.252070 0.149545 0.440829 0.087526
O22   O     O_2   0.302674 0.270039 0.411792 -0.286619
O23   O     O_2   0.192184 0.080399 0.390215 -0.116256
O24   O     O_3   0.129272 0.182983 0.481503 -0.560922
H27   H     H_    0.092814 0.095792 0.492719 0.416269
S5    S     S_3+6 0.286656 0.841225 0.421083 0.053611
O25   O     O_2   0.148988 0.864088 0.427532 -0.242871
O26   O     O_2   0.334691 0.910819 0.367873 -0.297339
O27   O     O_3   0.287719 0.682485 0.402353 -0.549036
H28   H     H_    0.242253 0.676324 0.364761 0.378104
H29   H     H_    0.193718 0.531983 0.042120 0.217948
H30   H     H_    0.321315 0.089678 0.535324 0.118660
H31   H     H_    0.309404 0.870792 0.524101 0.107841
S6    S     S_3+6 0.694480 0.169490 0.406896 0.087987
O28   O     O_2   0.703772 0.315435 0.401508 -0.320018
O29   O     O_2   0.819897 0.129367 0.429379 -0.194813
O30   O     O_3   0.677023 0.122209 0.337391 -0.535599
H32   H     H_    0.752358 0.158450 0.317561 0.406657
S7    S     S_3+6 0.724645 0.859096 0.427115 0.110290
O31   O     O_2   0.721086 0.716548 0.411668 -0.294232
O32   O     O_2   0.772461 0.918698 0.372191 -0.155266
O33   O     O_3   0.830678 0.895189 0.478912 -0.468309
H33   H     H_    0.789418 0.956922 0.504562 0.385147
S8    S     S_3+6 0.893841 0.666275 0.944493 0.110185
O34   O     O_2   0.886389 0.792459 0.910714 -0.141469
O35   O     O_2   0.989164 0.686805 0.992387 -0.332895
O36   O     O_3   0.942308 0.546482 0.901014 -0.396324
H34   H     H_    0.949616 0.468315 0.926384 0.356630
H35   H     H_    0.477696 0.307848 0.207837 0.163437
S9    S     S_3+6 0.307399 0.328461 0.797073 0.100316
O37   O     O_2   0.179193 0.385632 0.797870 -0.188192
O38   O     O_2   0.300101 0.203065 0.762628 -0.238770
O39   O     O_3   0.355164 0.293470 0.864814 -0.549207
H36   H     H_    0.282300 0.247216 0.882751 0.397553

loop_
_geom_bond_atom_site_label_1
_geom_bond_atom_site_label_2
_ccdc_geom_bond_type
O15   H22   S    
S4    O22   D    
C11   C13   A    
C41   C42   A    
C19   C20   A    
S1    O15   S    
C11   H18   S    
S6    O28   D    
C7    C8    A    
C34   H31   S    
C17   N2    S    
C37   C38   S    
C18   C24   A    
N4    Zn1   S    
C1    C30   S    
O6    Zn2   S    
C29   C32   S    
C26   H6    S    
C5    C6    A    
S5    O25   D    
C15   C16   A    
C35   S6    S    
C28   S3    S    
C18   C19   A    
C9    O11   S    
C32   H10   S    
C36   S7    S    
C9    N2    A    
C7    H17   S    
C38   H14   S    
C35   C36   S    
C3    H29   S    
C16   C17   A    
C15   H20   S    
C27   S2    S    
C39   O7    A    
S2    O17   D    
C25   H3    S    
C26   H4    S    
S7    O32   D    
C12   O4    A    
S4    O23   D    
C13   C14   A    
C23   O5    A    
C19   H21   S    
O5    Zn1   S    
O24   H27   S    
C27   H7    S    
O21   H24   S    
C10   N2    A    
C2    H1    S    
C29   H25   S    
C27   C31   S    
C34   S5    S    
S1    O13   D    
O8    Zn2   S    
C41   O10   S    
C20   C39   S    
C10   O12   S    
O7    Zn1   S    
C41   N1    A    
S3    O21   S    
C35   H11   S    
C1    O1    A    
C23   C31   S    
S9    O38   D    
C43   C44   A    
C29   C30   S    
C36   H12   S    
C31   C32   S    
C13   H19   S    
C35   N3    S    
C33   C34   S    
C33   H30   S    
C39   O8    A    
S2    O18   S    
S3    O20   D    
C16   H35   S    
C37   H15   S    
C24   N1    S    
S8    O36   S    
C38   H16   S    
C12   O3    A    
C38   N4    S    
C26   C30   S    
S4    O24   S    
C40   N1    A    
O39   H36   S    
C33   S4    S    
C18   S9    S    
S9    O39   S    
C42   C43   A    
C23   O6    A    
C34   N4    S    
O36   H34   S    
S2    O16   D    
C32   H9    S    
C33   N3    S    
S8    O35   D    
C21   H2    S    
S7    O33   S    
C25   C30   S    
C11   C17   A    
C29   H26   S    
C14   C15   A    
C28   C31   S    
C8    S8    S    
C8    C44   A    
C12   C14   S    
C4    C5    A    
C6    C10   A    
S6    O29   D    
S7    O31   D    
C36   N4    S    
C37   H13   S    
C6    C7    A    
C25   C27   S    
C26   C28   S    
C1    O2    A    
C21   C22   A    
C2    C3    A    
O33   H33   S    
O30   H32   S    
C28   H8    S    
S5    O26   D    
C2    C42   A    
C37   N3    S    
O18   H23   S    
S9    O37   D    
C22   C24   A    
C5    C43   A    
S3    O19   D    
O2    Zn2   S    
C25   H5    S    
S6    O30   S    
O1    Zn1   S    
C40   C44   A    
C20   C21   A    
N3    Zn2   S    
C40   O9    S    
S1    O14   D    
C4    C9    A    
O27   H28   S    
O4    Zn2   S    
C3    C4    A    
C22   S1    S    
S8    O34   D    
O3    Zn1   S    
S5    O27   S    
