data_mof_unit_67713.cif
_audit_creation_date              2012-12-10T19:48:33-0500
_audit_creation_method            fapswitch 2.2
_symmetry_space_group_name_H-M    P1
_symmetry_Int_Tables_number       1
_space_group_crystal_system       triclinic
_cell_length_a                    11.436527
_cell_length_b                    10.679425
_cell_length_c                    9.736762
_cell_angle_alpha                 91.010076
_cell_angle_beta                  90.436669
_cell_angle_gamma                 88.594913
_cell_volume                      1188.63155765

loop_
_atom_site_label
_atom_site_type_symbol
_atom_type_description
_atom_site_fract_x
_atom_site_fract_y
_atom_site_fract_z
_atom_type_partial_charge
C1    C     C_R   0.497982 0.259830 0.499197 0.893506
C2    C     C_3   0.487323 0.041495 0.630411 -0.160410
C3    C     C_3   0.501629 0.874881 0.501641 -0.133566
C4    C     C_3   0.495279 0.121029 0.498757 -0.118747
C5    C     C_3   0.590359 0.956998 0.577476 -0.269603
C6    C     C_3   0.405369 0.037300 0.423632 -0.286316
C7    C     C_3   0.433811 0.588152 0.051383 0.182619
C8    C     C_3   0.566791 0.411700 0.948770 0.239171
C9    C     C_3   0.397516 0.484622 0.947245 -0.227168
C10   C     C_3   0.603700 0.515879 0.053655 -0.167128
C11   C     C_3   0.537026 0.604401 0.954386 0.236112
C12   C     C_R   0.501359 0.738788 0.500835 0.856869
C13   C     C_3   0.463179 0.396166 0.046399 0.286950
C14   C     C_R   0.262314 0.503480 0.498281 0.810601
C15   C     C_R   0.736933 0.498502 0.500516 0.802854
C16   C     C_R   0.126869 0.513285 0.994216 0.436248
C17   C     C_R   0.900713 0.242781 0.905328 0.466696
C18   C     C_R   0.095318 0.562306 0.126034 0.091043
C19   C     C_R   0.906863 0.284683 0.769436 0.120104
C20   C     C_R   0.102760 0.483300 0.240050 -0.014217
C21   C     C_R   0.897232 0.413996 0.740742 -0.060599
C22   C     C_R   0.130348 0.355539 0.221773 0.188861
C23   C     C_R   0.870717 0.498490 0.500273 -0.056052
C24   C     C_R   0.873799 0.500316 0.846611 0.281013
C25   C     C_R   0.148666 0.305933 0.093574 -0.229335
C26   C     C_R   0.868598 0.458774 0.980714 -0.335117
C27   C     C_R   0.150555 0.380357 0.980198 -0.000547
C28   C     C_R   0.877506 0.331411 0.010158 0.103680
C29   C     C_R   0.931467 0.529249 0.381181 -0.167584
C30   C     C_R   0.064498 0.479203 0.608910 -0.128355
C31   C     C_3   0.171367 0.686887 0.857158 -0.157485
C32   C     C_3   0.984314 0.053905 0.962894 -0.188815
C33   C     C_3   0.765077 0.973591 0.336420 -0.124105
C34   C     C_R   0.126702 0.508575 0.493160 -0.102982
C35   C     C_3   0.199646 0.950440 0.574504 -0.251565
C36   C     C_R   0.942300 0.462690 0.612407 0.121692
C37   C     C_R   0.056232 0.522134 0.373357 0.119992
C38   C     C_3   0.595547 0.035554 0.446858 0.543785
C39   C     C_3   0.400572 0.957035 0.553902 0.547136
C40   C     C_3   0.507917 0.952659 0.370405 -0.245234
Cu1   Cu    Cu3+1 0.500030 0.499990 0.643150 1.034489
Cu2   Cu    Cu3+1 0.499970 0.500010 0.356850 1.039320
H1    H     H_    0.318545 0.478097 0.887867 0.204044
H2    H     H_    0.331998 0.064907 0.356090 0.217235
H3    H     H_    0.143936 0.768461 0.920860 0.210462
H4    H     H_    0.157644 0.715615 0.749438 0.199876
H5    H     H_    0.265726 0.668441 0.866369 0.173236
H6    H     H_    0.967989 0.952315 0.957017 0.233651
H7    H     H_    0.010446 0.076896 0.070145 0.185921
H8    H     H_    0.055384 0.070501 0.889186 0.174061
H9    H     H_    0.725290 0.938158 0.239267 0.179703
H10   H     H_    0.775194 0.896736 0.411675 0.132446
H11   H     H_    0.854470 0.003908 0.312011 0.230975
H12   H     H_    0.684375 0.542643 0.106404 0.170171
H13   H     H_    0.186514 0.930822 0.462960 0.202082
H14   H     H_    0.193459 0.051966 0.598965 0.226747
H15   H     H_    0.127853 0.905691 0.629842 0.197461
H16   H     H_    0.165145 0.206259 0.082805 0.207804
H17   H     H_    0.860917 0.526893 0.062367 0.185051
H18   H     H_    0.880913 0.545570 0.289143 0.168953
H19   H     H_    0.114637 0.459502 0.695634 0.233378
H20   H     H_    0.518959 0.916338 0.263823 0.217508
H21   H     H_    0.469014 0.074003 0.736732 0.228654
H22   H     H_    0.667375 0.923415 0.637626 0.221401
I1    I     I_    0.210524 0.265393 0.808213 -0.436272
I2    I     I_    0.860725 0.696160 0.806504 -0.325375
I3    I     I_    0.827316 0.273148 0.205055 -0.252186
I4    I     I_    0.337384 0.743300 0.142313 -0.335194
I5    I     I_    0.631028 0.238717 0.864960 -0.205433
I6    I     I_    0.573225 0.794328 0.903898 -0.248015
I7    I     I_    0.418565 0.211821 0.113554 -0.265667
I8    I     I_    0.015722 0.745736 0.156925 -0.445681
I9    I     I_    0.904326 0.147333 0.611297 -0.271577
I10   I     I_    0.132325 0.221510 0.376650 -0.415122
N1    N     N_3   0.500090 0.499970 0.858290 -0.223463
N2    N     N_3   0.499910 0.500030 0.141710 -0.213862
O1    O     O_R   0.500060 0.316850 0.620870 -0.558352
O2    O     O_3   0.879763 0.117623 0.928045 -0.522369
O3    O     O_3   0.699770 0.077481 0.389494 -0.532697
O4    O     O_3   0.306874 0.899947 0.620701 -0.588867
O5    O     O_R   0.499940 0.683150 0.379130 -0.575431
O6    O     O_R   0.500000 0.316860 0.379090 -0.531721
O7    O     O_R   0.500000 0.683140 0.620910 -0.543006
O8    O     O_R   0.319670 0.500010 0.620890 -0.577028
O9    O     O_R   0.680330 0.499990 0.379110 -0.578634
O10   O     O_R   0.319620 0.500010 0.379110 -0.555137
O11   O     O_R   0.680380 0.499990 0.620890 -0.564732
O12   O     O_3   0.101902 0.581506 0.877767 -0.612808

loop_
_geom_bond_atom_site_label_1
_geom_bond_atom_site_label_2
_ccdc_geom_bond_type
C8    C13   S    
C34   C37   A    
C1    O1    A    
Cu1   Cu2   S    
Cu2   O6    S    
C14   O8    A    
C11   I6    S    
C21   C36   S    
C33   H10   S    
C7    C11   S    
C8    I5    S    
C23   C29   A    
C19   C21   A    
C24   C26   A    
Cu1   O1    S    
C38   O3    S    
Cu1   O7    S    
C35   O4    S    
C40   H20   S    
C9    C13   S    
C3    C12   S    
C7    I4    S    
C10   N2    S    
C2    C39   S    
C31   H4    S    
C13   N2    S    
Cu2   O10   S    
C26   H17   S    
C24   I2    S    
C15   O9    A    
C16   C27   A    
C15   C23   S    
C3    C39   S    
C31   H5    S    
C5    C38   S    
C33   H11   S    
C32   H6    S    
Cu2   O5    S    
C18   I8    S    
Cu1   O11   S    
C9    H1    S    
C30   C34   A    
C35   H13   S    
C19   I9    S    
C28   I3    S    
C14   O10   A    
C4    C6    S    
C33   O3    S    
C13   I7    S    
C1    O6    A    
Cu1   O8    S    
C22   C25   A    
C8    N1    S    
C5    H22   S    
C2    C4    S    
C27   I1    S    
Cu1   N1    S    
C29   H18   S    
Cu2   O9    S    
C32   H8    S    
C16   C18   A    
C4    C38   S    
C3    C40   S    
C6    C40   S    
C30   H19   S    
C2    C5    S    
C33   H9    S    
C25   H16   S    
C22   I10   S    
C2    H21   S    
C15   O11   A    
C7    C9    S    
C31   O12   S    
C35   H14   S    
C17   C28   A    
Cu2   N2    S    
C20   C22   A    
C3    C5    S    
C14   C34   S    
C7    N2    S    
C25   C27   A    
C26   C28   A    
C30   C36   A    
C35   H15   S    
C1    C4    S    
C39   O4    S    
C11   N1    S    
C38   C40   S    
C20   C37   S    
C17   O2    S    
C17   C19   A    
C12   O5    A    
C18   C20   A    
C10   H12   S    
C32   H7    S    
C10   C11   S    
C32   O2    S    
C12   O7    A    
C8    C10   S    
C23   C36   A    
C31   H3    S    
C21   C24   A    
C29   C37   A    
C16   O12   S    
C6    C39   S    
C6    H2    S    
C9    N1    S    
