data_mof_unit_47077.cif
_audit_creation_date              2013-03-05T15:49:07-0500
_audit_creation_method            fapswitch 2.2
_symmetry_space_group_name_H-M    P1
_symmetry_Int_Tables_number       1
_space_group_crystal_system       triclinic
_cell_length_a                    22.456867
_cell_length_b                    13.006011
_cell_length_c                    26.90903
_cell_angle_alpha                 89.998381
_cell_angle_beta                  90.604921
_cell_angle_gamma                 89.997523
_cell_volume                      7858.99695765

loop_
_atom_site_label
_atom_site_type_symbol
_atom_site_description
_atom_site_fract_x
_atom_site_fract_y
_atom_site_fract_z
_atom_type_partial_charge
O1    O     O_R   0.769900 0.064540 0.196060 -0.521253
O2    O     O_R   0.230100 0.064540 0.803940 -0.521506
O3    O     O_R   0.269900 0.564540 0.196060 -0.521582
O4    O     O_R   0.730100 0.564540 0.803940 -0.521287
O5    O     O_R   0.750800 0.274080 0.199250 -0.514756
O6    O     O_R   0.249200 0.274080 0.800750 -0.514564
O7    O     O_R   0.250800 0.774080 0.199250 -0.514844
O8    O     O_R   0.749200 0.774080 0.800750 -0.514764
C1    C     C_R   0.721191 0.346140 0.178709 0.578634
C2    C     C_R   0.278799 0.346169 0.821280 0.579038
C3    C     C_R   0.221183 0.846148 0.178702 0.578423
C4    C     C_R   0.778808 0.846139 0.821290 0.578643
O9    O     O_R   0.669990 0.371670 0.194150 -0.460032
O10   O     O_R   0.330010 0.371670 0.805850 -0.459351
O11   O     O_R   0.169990 0.871670 0.194150 -0.458716
O12   O     O_R   0.830010 0.871670 0.805850 -0.460008
O13   O     O_R   0.574600 0.238480 0.197800 -0.502043
O14   O     O_R   0.425400 0.238480 0.802200 -0.501134
O15   O     O_R   0.074600 0.738480 0.197800 -0.501003
O16   O     O_R   0.925400 0.738480 0.802200 -0.502024
C5    C     C_R   0.553541 0.157218 0.177633 0.544547
C6    C     C_R   0.446477 0.157218 0.822356 0.545051
C7    C     C_R   0.053531 0.657225 0.177640 0.545138
C8    C     C_R   0.946467 0.657212 0.822363 0.544588
O17   O     O_R   0.566130 0.068680 0.194240 -0.520333
O18   O     O_R   0.433870 0.068680 0.805760 -0.520884
O19   O     O_R   0.066130 0.568680 0.194240 -0.520782
O20   O     O_R   0.933870 0.568680 0.805760 -0.520320
O21   O     O_R   0.680610 0.992490 0.199570 -0.497175
O22   O     O_R   0.319390 0.992490 0.800430 -0.496347
O23   O     O_R   0.180610 0.492490 0.199570 -0.496401
O24   O     O_R   0.819390 0.492490 0.800430 -0.497173
C9    C     C_R   0.730989 0.002531 0.179016 0.547519
C10   C     C_R   0.269002 0.002452 0.820953 0.548083
C11   C     C_R   0.230977 0.502580 0.178998 0.548199
C12   C     C_R   0.769010 0.502521 0.820982 0.547519
O25   O     O_R   0.770060 0.065440 0.307230 -0.498396
O26   O     O_R   0.229940 0.065440 0.692770 -0.502628
O27   O     O_R   0.270060 0.565440 0.307230 -0.502574
O28   O     O_R   0.729940 0.565440 0.692770 -0.498417
O29   O     O_R   0.750960 0.274920 0.302300 -0.506448
O30   O     O_R   0.249040 0.274920 0.697700 -0.503649
O31   O     O_R   0.250960 0.774920 0.302300 -0.503707
O32   O     O_R   0.749040 0.774920 0.697700 -0.506456
C13   C     C_R   0.722200 0.350289 0.320636 0.549907
C14   C     C_R   0.278077 0.349105 0.678837 0.554210
C15   C     C_R   0.221922 0.849103 0.321163 0.553920
C16   C     C_R   0.777799 0.850290 0.679364 0.549906
O33   O     O_R   0.670160 0.372580 0.305320 -0.506366
O34   O     O_R   0.329840 0.372580 0.694680 -0.509412
O35   O     O_R   0.170160 0.872580 0.305320 -0.509478
O36   O     O_R   0.829840 0.872580 0.694680 -0.506361
O37   O     O_R   0.574760 0.239320 0.300850 -0.498272
O38   O     O_R   0.425240 0.239320 0.699150 -0.503185
O39   O     O_R   0.074760 0.739320 0.300850 -0.503167
O40   O     O_R   0.925240 0.739320 0.699150 -0.498283
C17   C     C_R   0.555271 0.158482 0.321962 0.534683
C18   C     C_R   0.446032 0.158757 0.678659 0.533114
C19   C     C_R   0.053967 0.658757 0.321341 0.533100
C20   C     C_R   0.944729 0.658482 0.678038 0.534721
O41   O     O_R   0.566290 0.069580 0.305400 -0.507530
O42   O     O_R   0.433710 0.069580 0.694600 -0.516978
O43   O     O_R   0.066290 0.569580 0.305400 -0.516995
O44   O     O_R   0.933710 0.569580 0.694600 -0.507503
O45   O     O_R   0.680760 0.993330 0.302620 -0.496999
O46   O     O_R   0.319240 0.993330 0.697380 -0.493545
O47   O     O_R   0.180760 0.493330 0.302620 -0.493579
O48   O     O_R   0.819240 0.493330 0.697380 -0.497000
C21   C     C_R   0.731617 0.003061 0.323340 0.536519
C22   C     C_R   0.269353 0.005560 0.675682 0.539423
C23   C     C_R   0.230647 0.505562 0.324318 0.539396
C24   C     C_R   0.768383 0.503060 0.676660 0.536521
Cr1   Cr    Cr6+3 0.756570 0.170940 0.251190 1.036401
Cr2   Cr    Cr6+3 0.243430 0.170940 0.748810 1.037449
Cr3   Cr    Cr6+3 0.256570 0.670940 0.251190 1.037174
Cr4   Cr    Cr6+3 0.743430 0.670940 0.748810 1.036332
Cr5   Cr    Cr6+3 0.623740 0.299110 0.249580 1.059617
Cr6   Cr    Cr6+3 0.376260 0.299110 0.750420 1.057368
Cr7   Cr    Cr6+3 0.123740 0.799110 0.249580 1.057816
Cr8   Cr    Cr6+3 0.876260 0.799110 0.750420 1.059623
Cr9   Cr    Cr6+3 0.625990 0.036240 0.250480 1.047247
Cr10  Cr    Cr6+3 0.374010 0.036240 0.749520 1.045664
Cr11  Cr    Cr6+3 0.125990 0.536240 0.250480 1.045564
Cr12  Cr    Cr6+3 0.874010 0.536240 0.749520 1.047302
O49   O     O_3   0.668770 0.168760 0.250420 -0.262026
O50   O     O_3   0.331230 0.168760 0.749580 -0.260880
O51   O     O_3   0.168770 0.668760 0.250420 -0.260843
O52   O     O_3   0.831230 0.668760 0.749580 -0.262023
C25   C     C_R   0.515127 0.070213 0.102709 -0.128767
C26   C     C_R   0.485058 0.070233 0.897231 -0.129110
C27   C     C_R   0.014918 0.570275 0.102770 -0.128871
C28   C     C_R   0.984850 0.570177 0.897291 -0.128720
C29   C     C_R   0.506285 0.070217 0.051631 0.010296
C30   C     C_R   0.493952 0.070229 0.948304 0.010252
C31   C     C_R   0.006047 0.570257 0.051693 0.010344
C32   C     C_R   0.993716 0.570197 0.948366 0.010270
C33   C     C_R   0.497364 0.977008 0.974221 -0.139553
C34   C     C_R   0.502949 0.977002 0.025705 -0.139504
C35   C     C_R   0.996969 0.476992 0.974311 -0.139448
C36   C     C_R   0.002553 0.477024 0.025795 -0.139395
H1    H     H_    0.481375 0.997028 0.878144 0.136708
H2    H     H_    0.518835 0.997002 0.121790 0.136919
H3    H     H_    0.981067 0.496958 0.878230 0.136963
H4    H     H_    0.018525 0.497078 0.121875 0.136777
H5    H     H_    0.494845 0.904177 0.954739 0.112658
H6    H     H_    0.505511 0.904165 0.045183 0.112579
H7    H     H_    0.994334 0.404147 0.954850 0.112610
H8    H     H_    0.004999 0.404200 0.045294 0.112708
C37   C     C_R   0.474710 0.162727 0.871655 -0.004398
C38   C     C_R   0.525380 0.162715 0.128304 -0.004394
C39   C     C_R   0.974660 0.662686 0.871680 -0.004365
C40   C     C_R   0.025330 0.662762 0.128329 -0.004444
C41   C     C_R   0.519803 0.257037 0.103162 -0.131488
C42   C     C_R   0.480274 0.257049 0.896796 -0.131289
C43   C     C_R   0.019877 0.757080 0.103162 -0.131245
C44   C     C_R   0.980346 0.757015 0.896796 -0.131570
C45   C     C_R   0.508485 0.258465 0.051882 0.011814
C46   C     C_R   0.491639 0.258473 0.948069 0.011766
C47   C     C_R   0.008545 0.758496 0.051885 0.011694
C48   C     C_R   0.991699 0.758452 0.948072 0.011756
C49   C     C_R   0.503561 0.164520 0.025894 0.063779
C50   C     C_R   0.496631 0.164525 0.974048 0.063777
C51   C     C_R   0.003467 0.664541 0.025927 0.063742
C52   C     C_R   0.996537 0.664514 0.974081 0.063759
C53   C     C_R   0.504535 0.351648 0.025741 -0.134702
C54   C     C_R   0.495549 0.351652 0.974215 -0.134732
C55   C     C_R   0.004747 0.851665 0.025716 -0.134806
C56   C     C_R   0.995759 0.851646 0.974191 -0.135023
H9    H     H_    0.472507 0.328678 0.877165 0.140246
H10   H     H_    0.527509 0.328669 0.122805 0.140056
H11   H     H_    0.972697 0.828651 0.877139 0.139960
H12   H     H_    0.027705 0.828704 0.122779 0.140877
H13   H     H_    0.491725 0.424411 0.954827 0.121845
H14   H     H_    0.508313 0.424404 0.045135 0.121845
H15   H     H_    0.992059 0.924399 0.954781 0.121790
H16   H     H_    0.008650 0.924429 0.045089 0.122464
C57   C     C_R   0.737854 0.960946 0.128617 0.030151
C58   C     C_R   0.262141 0.960579 0.871287 0.030240
C59   C     C_R   0.237794 0.461204 0.128553 0.030029
C60   C     C_R   0.762143 0.460916 0.871377 0.030175
C61   C     C_R   0.791725 0.972803 0.103270 -0.131870
C62   C     C_R   0.313265 0.928757 0.897809 -0.104030
C63   C     C_R   0.186797 0.428200 0.102227 -0.104485
C64   C     C_R   0.813119 0.427814 0.897708 -0.103996
C65   C     C_R   0.793526 0.958418 0.051967 -0.123496
C66   C     C_R   0.311467 0.916249 0.949037 -0.122901
C67   C     C_R   0.188334 0.416190 0.050952 -0.122999
C68   C     C_R   0.811530 0.415609 0.948970 -0.122827
C69   C     C_R   0.741255 0.934381 0.025328 0.030366
C70   C     C_R   0.258322 0.933344 0.974501 0.030158
C71   C     C_R   0.241103 0.435009 0.025233 0.030594
C72   C     C_R   0.758731 0.434327 0.974664 0.030377
C73   C     C_R   0.688462 0.915643 0.051027 -0.122824
C74   C     C_R   0.205968 0.955957 0.947654 -0.123488
C75   C     C_R   0.293387 0.459026 0.051858 -0.123195
C76   C     C_R   0.706458 0.458348 0.948019 -0.123515
C77   C     C_R   0.686879 0.927838 0.102290 -0.104001
C78   C     C_R   0.207975 0.970734 0.896377 -0.131933
C79   C     C_R   0.291632 0.473221 0.103175 -0.131843
C80   C     C_R   0.708265 0.472746 0.896717 -0.131890
C81   C     C_R   0.719283 0.835805 0.949507 -0.150562
C82   C     C_R   0.280878 0.835805 0.050533 -0.150749
C83   C     C_R   0.219146 0.336269 0.949466 -0.150364
C84   C     C_R   0.780716 0.335780 0.050493 -0.150573
C85   C     C_R   0.726942 0.815726 0.899598 -0.174739
C86   C     C_R   0.273438 0.816102 0.100510 -0.174667
C87   C     C_R   0.226861 0.316013 0.899579 -0.174723
C88   C     C_R   0.773062 0.315717 0.100405 -0.174723
C89   C     C_R   0.777361 0.980091 0.889178 0.224569
C90   C     C_R   0.221813 0.979470 0.110530 0.224667
C91   C     C_R   0.277277 0.480352 0.889067 0.224442
C92   C     C_R   0.722616 0.480070 0.110808 0.224545
C93   C     C_R   0.767631 0.002215 0.939987 0.000229
C94   C     C_R   0.231261 0.001227 0.059653 0.000482
C95   C     C_R   0.267502 0.502647 0.939854 0.000019
C96   C     C_R   0.732340 0.502178 0.059997 0.000225
C97   C     C_R   0.742159 0.925633 0.970748 0.012881
C98   C     C_R   0.257289 0.924897 0.029080 0.012819
C99   C     C_R   0.242001 0.426165 0.970655 0.012872
C100  C     C_R   0.757824 0.425593 0.029243 0.012873
C101  C     C_R   0.758647 0.884330 0.869661 0.006012
C102  C     C_R   0.241250 0.884330 0.130293 0.005762
C103  C     C_R   0.258596 0.384512 0.869613 0.005906
C104  C     C_R   0.741347 0.384322 0.130335 0.005997
H17   H     H_    0.831656 0.997901 0.122658 0.131469
H18   H     H_    0.355830 0.920601 0.879647 0.145335
H19   H     H_    0.144482 0.418571 0.120611 0.145571
H20   H     H_    0.855458 0.418298 0.879348 0.145609
H21   H     H_    0.697814 0.778275 0.972159 0.114681
H22   H     H_    0.302781 0.778532 0.028010 0.114731
H23   H     H_    0.197664 0.278813 0.972152 0.114781
H24   H     H_    0.802194 0.278249 0.027848 0.114694
H25   H     H_    0.711852 0.742123 0.885395 0.147644
H26   H     H_    0.289099 0.742991 0.114890 0.147717
H27   H     H_    0.211791 0.242360 0.885423 0.147674
H28   H     H_    0.788165 0.242125 0.114616 0.147675
H29   H     H_    0.835228 0.969350 0.032804 0.119840
H30   H     H_    0.352143 0.897257 0.969029 0.116678
H31   H     H_    0.147729 0.396031 0.031147 0.116528
H32   H     H_    0.852126 0.395445 0.968791 0.116455
H33   H     H_    0.647867 0.895466 0.031210 0.116476
H34   H     H_    0.164050 0.965627 0.966655 0.119954
H35   H     H_    0.335074 0.470023 0.032680 0.119630
H36   H     H_    0.664751 0.469263 0.967179 0.119772
H37   H     H_    0.644544 0.918303 0.120653 0.145638
H38   H     H_    0.167942 0.994777 0.876813 0.130918
H39   H     H_    0.331577 0.498273 0.122556 0.130914
H40   H     H_    0.668333 0.497835 0.877325 0.131359
C105  C     C_R   0.538512 0.164560 0.374075 0.027801
C106  C     C_R   0.475348 0.167135 0.630400 0.007484
C107  C     C_R   0.024652 0.667136 0.369600 0.007484
C108  C     C_R   0.961486 0.664561 0.625924 0.027818
C109  C     C_R   0.502874 0.243695 0.392825 -0.117372
C110  C     C_R   0.482475 0.263071 0.607129 -0.118687
C111  C     C_R   0.017521 0.763072 0.392868 -0.118677
C112  C     C_R   0.997123 0.743693 0.607172 -0.117342
C113  C     C_R   0.492937 0.249833 0.444037 -0.096546
C114  C     C_R   0.498634 0.268078 0.557218 -0.107817
C115  C     C_R   0.001362 0.768078 0.442780 -0.107817
C116  C     C_R   0.007059 0.749832 0.555961 -0.096536
C117  C     C_R   0.520576 0.179224 0.476622 0.026345
C118  C     C_R   0.507326 0.177218 0.530095 0.015497
C119  C     C_R   0.992674 0.677219 0.469905 0.015494
C120  C     C_R   0.979423 0.679226 0.523377 0.026346
C121  C     C_R   0.558699 0.104327 0.457421 -0.112722
C122  C     C_R   0.502108 0.081861 0.554141 -0.111513
C123  C     C_R   0.997896 0.581862 0.445861 -0.111505
C124  C     C_R   0.941302 0.604330 0.542579 -0.112721
C125  C     C_R   0.566252 0.095335 0.406811 -0.104074
C126  C     C_R   0.487300 0.076944 0.603820 -0.120385
C127  C     C_R   0.012705 0.576945 0.396182 -0.120379
C128  C     C_R   0.933749 0.595340 0.593189 -0.104073
H41   H     H_    0.482395 0.299237 0.368005 0.122496
H42   H     H_    0.473236 0.333834 0.626812 0.145618
H43   H     H_    0.026757 0.833835 0.373183 0.145634
H44   H     H_    0.017599 0.799233 0.631991 0.122515
H45   H     H_    0.507091 0.010205 0.534125 0.168323
H46   H     H_    0.582664 0.051960 0.481615 0.157805
H47   H     H_    0.917340 0.551965 0.518386 0.157799
H48   H     H_    0.992916 0.510206 0.465879 0.168332
H49   H     H_    0.481680 0.001767 0.620448 0.164087
H50   H     H_    0.595782 0.035887 0.393356 0.159314
H51   H     H_    0.904220 0.535893 0.606646 0.159309
H52   H     H_    0.018329 0.501768 0.379556 0.164096
H53   H     H_    0.463074 0.308238 0.457942 0.124646
H54   H     H_    0.503269 0.342552 0.539699 0.149180
H55   H     H_    0.996723 0.842553 0.460296 0.149187
H56   H     H_    0.036920 0.808235 0.542054 0.124652
C129  C     C_R   0.734691 0.981844 0.376074 0.039988
C130  C     C_R   0.268975 0.985477 0.622473 0.036313
C131  C     C_R   0.231024 0.485485 0.377528 0.036306
C132  C     C_R   0.765309 0.481844 0.623926 0.039990
C133  C     C_R   0.748163 0.884565 0.395152 -0.107634
C134  C     C_R   0.224467 0.927775 0.598843 -0.107275
C135  C     C_R   0.186206 0.532612 0.405617 -0.092587
C136  C     C_R   0.751839 0.384567 0.604850 -0.107641
C137  C     C_R   0.749275 0.870128 0.446603 -0.017461
C138  C     C_R   0.226180 0.914800 0.547303 -0.033859
C139  C     C_R   0.185263 0.521613 0.456817 -0.025474
C140  C     C_R   0.750727 0.370129 0.553400 -0.017470
C141  C     C_R   0.735322 0.952228 0.478409 0.098941
C142  C     C_R   0.271626 0.961189 0.519579 0.108947
C143  C     C_R   0.228373 0.461214 0.480423 0.108940
C144  C     C_R   0.764678 0.452227 0.521591 0.098943
C145  C     C_R   0.721206 0.048791 0.458872 -0.063684
C146  C     C_R   0.314738 0.021580 0.543182 -0.025484
C147  C     C_R   0.273816 0.414807 0.452702 -0.033877
C148  C     C_R   0.778792 0.548788 0.541125 -0.063671
C149  C     C_R   0.721518 0.063710 0.407984 -0.102235
C150  C     C_R   0.313796 0.032586 0.594382 -0.092605
C151  C     C_R   0.275530 0.427774 0.401162 -0.107302
C152  C     C_R   0.778481 0.563707 0.592013 -0.102230
C153  C     C_R   0.780081 0.997539 0.560139 0.176084
C154  C     C_R   0.233708 0.013446 0.436744 0.180917
C155  C     C_R   0.266282 0.513467 0.563260 0.180931
C156  C     C_R   0.719916 0.497538 0.439859 0.176085
C157  C     C_R   0.784526 0.984016 0.611911 -0.028081
C158  C     C_R   0.221856 0.988850 0.386603 -0.035076
C159  C     C_R   0.278132 0.488864 0.613402 -0.035090
C160  C     C_R   0.715469 0.484013 0.388088 -0.028079
C161  C     C_R   0.710603 0.847570 0.606538 -0.147374
C162  C     C_R   0.288643 0.842260 0.394200 -0.133028
C163  C     C_R   0.211358 0.342271 0.605800 -0.133010
C164  C     C_R   0.789396 0.347562 0.393464 -0.147371
C165  C     C_R   0.699710 0.869890 0.556609 0.153784
C166  C     C_R   0.303628 0.869032 0.442907 0.180908
C167  C     C_R   0.196372 0.369051 0.557094 0.180899
C168  C     C_R   0.800291 0.369884 0.443391 0.153791
C169  C     C_R   0.738156 0.939303 0.532436 -0.034292
C170  C     C_R   0.272005 0.950282 0.465413 -0.025884
C171  C     C_R   0.227990 0.450306 0.534590 -0.025888
C172  C     C_R   0.761844 0.439301 0.467564 -0.034291
C173  C     C_R   0.755357 0.898847 0.633446 -0.044857
C174  C     C_R   0.245326 0.896722 0.367057 -0.046285
C175  C     C_R   0.254670 0.396730 0.632944 -0.046234
C176  C     C_R   0.744641 0.398842 0.366554 -0.044858
H57   H     H_    0.758308 0.821155 0.370569 0.106862
H58   H     H_    0.189113 0.892820 0.620068 0.113314
H59   H     H_    0.152558 0.580128 0.387874 0.120643
H60   H     H_    0.741695 0.321158 0.629435 0.106856
H61   H     H_    0.761469 0.795826 0.461738 0.142966
H62   H     H_    0.191976 0.869555 0.528893 0.132668
H63   H     H_    0.150888 0.559527 0.478046 0.137322
H64   H     H_    0.738534 0.295829 0.538267 0.142969
H65   H     H_    0.685302 0.786941 0.624054 0.184861
H66   H     H_    0.309272 0.775063 0.378032 0.186887
H67   H     H_    0.190734 0.275070 0.621967 0.186885
H68   H     H_    0.814700 0.286930 0.375949 0.184864
H69   H     H_    0.710464 0.112566 0.483101 0.119297
H70   H     H_    0.349114 0.059483 0.521951 0.137315
H71   H     H_    0.308018 0.369553 0.471115 0.132648
H72   H     H_    0.789534 0.612562 0.516894 0.119297
H73   H     H_    0.710532 0.139073 0.393277 0.114581
H74   H     H_    0.347445 0.080095 0.612122 0.120641
H75   H     H_    0.310882 0.392805 0.379939 0.113262
H76   H     H_    0.789466 0.639070 0.606718 0.114577
N1    N     N_R   0.805062 0.054706 0.857449 0.081233
O53   O     O_R   0.781644 0.076405 0.814266 -0.340174
O54   O     O_R   0.854600 0.099044 0.870907 -0.358889
N2    N     N_R   0.193579 0.053832 0.142063 0.081498
O55   O     O_R   0.217084 0.077025 0.185034 -0.339841
O56   O     O_R   0.143447 0.096299 0.128661 -0.358807
N3    N     N_R   0.304982 0.554877 0.857291 0.081433
O57   O     O_R   0.281595 0.576402 0.814077 -0.340017
O58   O     O_R   0.354500 0.599295 0.870735 -0.358476
N4    N     N_R   0.694903 0.554687 0.142529 0.081234
O59   O     O_R   0.718320 0.576414 0.185708 -0.340154
O60   O     O_R   0.645354 0.598996 0.129068 -0.358949
N5    N     N_R   0.821693 0.063001 0.535030 0.083075
O61   O     O_R   0.825973 0.159876 0.546282 -0.313457
O62   O     O_R   0.856204 0.025028 0.501098 -0.287297
N6    N     N_R   0.205466 0.100605 0.459215 0.085445
O63   O     O_R   0.237379 0.169552 0.482214 -0.347266
O64   O     O_R   0.148018 0.112263 0.455886 -0.267244
N7    N     N_R   0.294519 0.600629 0.540790 0.085454
O65   O     O_R   0.262605 0.669575 0.517786 -0.347282
O66   O     O_R   0.351966 0.612294 0.544127 -0.267244
N8    N     N_R   0.678304 0.563007 0.464967 0.083077
O67   O     O_R   0.674029 0.659885 0.453715 -0.313456
O68   O     O_R   0.643792 0.525038 0.498899 -0.287294
C177  C     C_3   0.820884 0.058891 0.642846 -0.307761
H77   H     H_    0.806843 0.138818 0.634470 0.160694
H78   H     H_    0.813120 0.050485 0.683237 0.162729
H79   H     H_    0.869018 0.049636 0.634961 0.183048
C178  C     C_3   0.185933 0.061792 0.354354 -0.308304
H80   H     H_    0.192193 0.142762 0.366390 0.174718
H81   H     H_    0.200982 0.058836 0.315204 0.158149
H82   H     H_    0.137942 0.041820 0.356139 0.177392
C179  C     C_3   0.314045 0.561806 0.645653 -0.308222
H83   H     H_    0.307773 0.642778 0.633620 0.174735
H84   H     H_    0.298998 0.558835 0.684803 0.158701
H85   H     H_    0.362039 0.541847 0.643867 0.177305
C180  C     C_3   0.679107 0.558889 0.357152 -0.307771
H86   H     H_    0.693144 0.638815 0.365525 0.160700
H87   H     H_    0.686870 0.550484 0.316760 0.162721
H88   H     H_    0.630973 0.549635 0.365038 0.183040
N9    N     N_R   0.650851 0.819761 0.531124 0.110267
O69   O     O_R   0.627128 0.737095 0.549674 -0.251704
O70   O     O_R   0.624525 0.863284 0.493311 -0.327107
N10   N     N_R   0.348686 0.809970 0.468995 0.136337
O71   O     O_R   0.367332 0.723263 0.450642 -0.263511
O72   O     O_R   0.376854 0.847459 0.507367 -0.303925
N11   N     N_R   0.151318 0.309993 0.531005 0.136330
O73   O     O_R   0.132672 0.223287 0.549359 -0.263485
O74   O     O_R   0.123151 0.347486 0.492630 -0.303934
N12   N     N_R   0.849155 0.319756 0.468876 0.110279
O75   O     O_R   0.872881 0.237091 0.450328 -0.251689
O76   O     O_R   0.875479 0.363281 0.506687 -0.327101
C181  C     C_3   0.781167 0.108364 0.960000 -0.364926
H89   H     H_    0.757681 0.123515 0.995287 0.122137
H90   H     H_    0.829816 0.117096 0.966330 0.150916
H91   H     H_    0.765491 0.168014 0.933372 0.177466
C182  C     C_3   0.216753 0.106802 0.039361 -0.365262
H92   H     H_    0.231890 0.167175 0.065822 0.177075
H93   H     H_    0.240084 0.122209 0.004027 0.121891
H94   H     H_    0.168020 0.114150 0.033022 0.150931
C183  C     C_3   0.281037 0.608854 0.959800 -0.364809
H95   H     H_    0.265320 0.668423 0.933147 0.177593
H96   H     H_    0.257597 0.624093 0.995102 0.122278
H97   H     H_    0.329690 0.617631 0.966087 0.151001
C184  C     C_3   0.718785 0.608315 0.039972 -0.364944
H98   H     H_    0.734450 0.667980 0.066594 0.177463
H99   H     H_    0.742268 0.623462 0.004683 0.122137
H100  H     H_    0.670134 0.617026 0.033641 0.150874

loop_
_geom_bond_atom_site_label_1
_geom_bond_atom_site_label_2
_geom_bond_distance
_ccdc_geom_bond_type
C153  N5    1.438059 S    
O4    C12   1.271182 A    
C130  C134  1.397581 A    
N9    O69   1.301747 A    
O39   C19   1.274908 A    
C62   C66   1.389076 A    
C119  C120  1.472643 S    
C140  C144  1.405909 A    
Cr7   O51   1.973987 S    
C5    C38   1.466048 S    
C143  C147  1.406502 A    
C7    C40   1.466013 S    
C137  C141  1.405909 A    
C91   C103  1.413946 A    
C29   C49   1.409516 A    
C74   C78   1.394330 A    
O25   C21   1.264665 A    
C90   C94   1.416139 A    
C108  C128  1.401056 A    
C32   C35   1.400398 A    
C117  C121  1.399327 A    
C144  C172  1.464226 S    
C15   C174  1.473523 S    
C69   C73   1.400185 A    
O44   Cr12  2.052147 S    
C183  H97   1.109738 S    
C11   C59   1.469722 S    
C66   C70   1.400203 A    
C3    O11   1.270707 A    
C72   C76   1.404222 A    
C9    C57   1.469689 S    
C105  C109  1.401036 A    
N4    O59   1.301345 A    
C71   C75   1.404200 A    
C89   N1    1.438381 S    
C181  H91   1.110780 S    
C33   H5    1.083853 S    
O2    C10   1.271354 A    
C116  H56   1.082598 S    
C59   C79   1.403553 A    
O17   Cr9   2.057253 S    
C153  C169  1.414600 A    
C109  H41   1.082988 S    
C120  C124  1.399318 A    
C23   C131  1.455366 S    
C180  H87   1.108015 S    
C73   H33   1.083541 S    
C157  C177  1.514492 S    
O31   Cr3   1.933914 S    
C17   C105  1.457905 S    
C36   H8    1.083864 S    
O16   Cr8   1.936084 S    
N3    O57   1.301350 A    
C84   C88   1.380717 A    
C77   H37   1.083204 S    
C55   H16   1.083560 S    
C56   H15   1.083557 S    
N7    O66   1.301116 A    
C68   H32   1.083545 S    
C30   C33   1.400376 A    
C96   C184  1.511626 S    
O13   C5    1.276650 A    
O28   Cr4   2.058893 S    
O12   Cr8   2.055929 S    
C72   C100  1.473423 S    
O15   C7    1.276579 A    
O46   Cr10  1.938156 S    
C71   C99   1.473476 S    
C4    C101  1.469128 S    
O48   C24   1.271920 A    
C6    C37   1.466028 S    
C178  H82   1.110143 S    
C79   H39   1.083054 S    
C20   C108  1.457909 S    
C148  H72   1.083796 S    
C30   C50   1.409538 A    
C110  C114  1.396435 A    
C184  H98   1.110779 S    
C145  H69   1.083797 S    
C81   C97   1.396217 A    
C82   H22   1.081865 S    
C147  H71   1.083388 S    
C8    O20   1.266034 A    
C140  H64   1.082729 S    
C160  C180  1.514496 S    
C154  N6    1.435595 S    
C87   H27   1.083781 S    
Cr12  O52   1.973194 S    
C113  H53   1.082604 S    
O7    Cr3   1.940553 S    
C28   C39   1.404113 A    
C17   O41   1.264565 A    
C47   C51   1.411567 A    
C19   O43   1.268190 A    
C34   H6    1.083856 S    
C20   O44   1.264558 A    
C182  H93   1.108688 S    
Cr8   O52   1.974064 S    
C1    C104  1.469121 S    
C125  H50   1.083394 S    
O46   C22   1.267849 A    
C159  C175  1.412780 A    
C123  H48   1.082798 S    
C161  H65   1.082813 S    
N7    O65   1.300574 A    
C90   N2    1.438322 S    
C16   O36   1.268681 A    
C139  C143  1.394547 A    
C166  N10   1.446258 S    
O27   C23   1.268844 A    
O31   C15   1.273083 A    
C81   C85   1.380724 A    
O32   C16   1.276021 A    
C123  C127  1.382442 A    
O47   Cr11  1.938104 S    
C179  H83   1.110294 S    
O21   C9    1.271281 A    
C128  H51   1.083390 S    
C86   C102  1.401583 A    
C33   C34   1.389736 A    
C51   C52   1.402150 A    
C138  H62   1.083378 S    
C65   H29   1.083211 S    
O24   C12   1.271257 A    
C119  C123  1.404326 A    
C158  C174  1.412791 A    
C165  C169  1.412607 A    
O8    Cr4   1.940615 S    
C46   C50   1.411579 A    
O32   Cr4   1.933865 S    
C1    O9    1.270846 A    
C161  C173  1.401375 A    
C59   C63   1.407343 A    
O11   Cr7   2.055928 S    
C148  C152  1.383122 A    
C163  C175  1.402267 A    
C184  H100  1.109759 S    
O27   Cr3   2.058820 S    
C133  H57   1.082973 S    
Cr5   O49   1.973987 S    
C122  H45   1.082800 S    
C90   C102  1.414048 A    
N5    O62   1.301230 A    
C138  C142  1.406499 A    
C75   H35   1.083210 S    
N10   O71   1.302055 A    
C19   C107  1.466191 S    
O7    C3    1.272328 A    
C43   H12   1.084165 S    
C177  H78   1.108016 S    
C95   C183  1.511676 S    
C41   H10   1.084154 S    
O22   C10   1.270980 A    
C75   C79   1.394156 A    
C4    O12   1.270875 A    
C76   C80   1.394145 A    
N6    O63   1.300571 A    
C2    O10   1.270851 A    
C122  C126  1.382442 A    
C25   C38   1.404087 A    
C10   C58   1.469430 S    
Cr2   O50   1.971806 S    
C44   C48   1.400623 A    
N3    O58   1.301066 A    
N2    O56   1.301506 A    
C27   C40   1.404035 A    
C66   H30   1.083701 S    
C67   C71   1.400192 A    
O5    C1    1.272065 A    
C117  C118  1.472643 S    
C80   H40   1.083058 S    
C58   C78   1.403660 A    
O3    C11   1.271151 A    
O8    C4    1.272108 A    
C154  C170  1.412652 A    
Cr1   O49   1.971806 S    
C37   C42   1.405878 A    
C41   C45   1.400598 A    
Cr3   O51   1.971806 S    
C179  H85   1.110141 S    
N8    O68   1.301223 A    
C83   C99   1.396224 A    
O26   Cr2   2.058893 S    
C31   C51   1.409566 A    
C5    O17   1.266066 A    
O29   C13   1.275997 A    
O28   C24   1.264641 A    
O14   C6    1.276613 A    
C167  N11   1.446247 S    
C68   C72   1.400187 A    
C21   C129  1.446532 S    
C43   C47   1.400558 A    
O40   Cr8   1.936481 S    
C57   C77   1.407359 A    
C127  H52   1.083200 S    
C156  C160  1.406689 A    
O41   Cr9   2.052140 S    
C60   C80   1.403553 A    
C164  H68   1.082819 S    
C136  C140  1.397127 A    
C160  C176  1.414213 A    
C158  C178  1.512922 S    
O33   Cr5   2.053448 S    
C25   C29   1.386667 A    
C146  H70   1.083834 S    
O35   Cr7   2.053448 S    
C183  H96   1.108731 S    
O29   Cr1   1.933914 S    
C133  C137  1.397121 A    
C96   C100  1.419319 A    
C61   H17   1.083054 S    
O18   Cr10  2.057296 S    
C89   C93   1.416385 A    
N4    O60   1.301103 A    
C26   C37   1.404055 A    
C84   H24   1.081693 S    
C45   C53   1.403607 A    
Cr9   O49   1.973266 S    
C92   C96   1.416370 A    
C181  H90   1.109758 S    
C47   C55   1.403631 A    
C53   H14   1.083552 S    
C18   O42   1.268186 A    
Cr11  O51   1.973266 S    
O26   C22   1.268822 A    
C2    C103  1.469206 S    
C156  N8    1.438066 S    
O20   Cr12  2.057296 S    
C67   H31   1.083528 S    
C180  H86   1.108730 S    
C107  C127  1.401303 A    
C168  C172  1.412618 A    
C136  H60   1.082971 S    
C162  H66   1.082563 S    
O38   C18   1.274907 A    
C149  H73   1.084493 S    
C164  C176  1.401381 A    
C93   C181  1.511628 S    
C91   N3    1.438383 S    
O30   C14   1.273106 A    
N1    O54   1.301097 A    
C145  C149  1.383110 A    
N12   O75   1.301752 A    
C82   C86   1.380902 A    
C147  C151  1.398060 A    
C141  C169  1.464209 S    
N11   O73   1.302052 A    
O6    Cr2   1.940615 S    
C39   C44   1.405869 A    
C178  H81   1.110411 S    
C22   C130  1.455374 S    
C84   C100  1.396218 A    
O42   Cr10  2.052147 S    
N9    O70   1.300966 A    
C113  C117  1.409212 A    
C121  H46   1.081624 S    
C110  H42   1.083024 S    
C3    C102  1.469322 S    
C151  H75   1.082961 S    
O34   Cr6   2.053370 S    
C74   H34   1.083299 S    
C26   C30   1.386681 A    
C161  C165  1.393629 A    
O24   Cr12  1.934045 S    
O30   Cr2   1.933865 S    
C166  C170  1.413089 A    
C163  C167  1.393923 A    
O48   Cr12  1.938156 S    
C129  C149  1.401385 A    
C164  C168  1.393631 A    
C58   C62   1.407602 A    
O37   C17   1.274738 A    
C31   C36   1.400376 A    
C162  C174  1.402272 A    
C15   O35   1.271104 A    
Cr10  O50   1.973194 S    
C121  C125  1.379127 A    
C159  C179  1.512918 S    
O43   Cr11  2.052140 S    
C78   H38   1.083105 S    
C155  C159  1.409299 A    
C141  C145  1.396625 A    
C134  H58   1.082954 S    
C111  C115  1.396436 A    
O39   Cr7   1.936490 S    
O45   Cr9   1.938104 S    
C13   O33   1.268650 A    
O13   Cr5   1.936153 S    
C106  C126  1.401304 A    
O15   Cr7   1.936153 S    
C89   C101  1.413879 A    
C49   C50   1.402150 A    
O9    Cr5   2.055928 S    
C53   C54   1.398998 A    
C112  H44   1.082982 S    
C42   H9    1.084159 S    
C115  H55   1.082725 S    
C182  H94   1.109931 S    
C55   C56   1.399001 A    
C124  C128  1.379128 A    
C180  H88   1.110303 S    
C57   C61   1.403554 A    
C60   C64   1.407358 A    
O6    C2    1.272173 A    
C48   C56   1.403615 A    
C143  C171  1.464557 S    
C35   H7    1.083862 S    
C155  N7    1.435592 S    
O1    Cr1   2.053007 S    
O19   Cr11  2.057253 S    
C155  C171  1.412644 A    
O45   C21   1.271938 A    
C61   C65   1.394151 A    
O47   C23   1.267873 A    
C73   C77   1.389355 A    
C153  C157  1.406688 A    
C115  C119  1.403662 A    
O40   C20   1.274736 A    
C6    O18   1.266085 A    
C184  H99   1.108708 S    
C118  C122  1.404325 A    
O36   Cr8   2.053370 S    
C65   C69   1.404217 A    
C16   C173  1.471849 S    
O38   Cr6   1.936481 S    
C107  C111  1.405947 A    
O22   Cr10  1.934045 S    
C25   H2    1.084555 S    
N5    O61   1.299161 A    
O37   Cr5   1.936490 S    
C28   C32   1.386642 A    
C27   H4    1.084562 S    
C64   C68   1.389345 A    
N10   O72   1.300121 A    
O1    C9    1.271203 A    
C177  H77   1.108735 S    
C63   C67   1.389369 A    
C168  N12   1.443442 S    
C114  H54   1.082726 S    
N6    O64   1.301125 A    
C134  C138  1.398068 A    
C129  C133  1.397314 A    
O23   Cr11  1.934040 S    
C152  H76   1.084489 S    
C45   C49   1.411592 A    
C28   H3    1.084554 S    
C131  C135  1.405719 A    
C87   C103  1.401423 A    
O16   C8    1.276672 A    
C54   H13   1.083552 S    
C88   C104  1.401488 A    
C62   H18   1.083353 S    
C7    O19   1.266127 A    
Cr4   O52   1.971806 S    
O2    Cr2   2.052970 S    
O14   Cr6   1.936084 S    
C70   C98   1.473200 S    
Cr6   O50   1.974064 S    
C179  H84   1.110412 S    
C94   C98   1.419218 A    
O5    Cr1   1.940553 S    
N11   O74   1.300132 A    
C8    C39   1.466066 S    
C163  H67   1.082559 S    
C114  C118  1.403664 A    
C18   C106  1.466189 S    
C150  H74   1.083107 S    
C135  C139  1.385537 A    
C82   C98   1.396417 A    
C32   C52   1.409505 A    
C108  C112  1.401028 A    
C111  H43   1.083021 S    
C124  H47   1.081618 S    
C81   H21   1.081687 S    
C146  C150  1.385543 A    
C131  C151  1.397588 A    
C109  C113  1.400596 A    
C132  C152  1.401386 A    
C95   C99   1.419301 A    
C106  C110  1.405948 A    
C91   C95   1.416454 A    
C142  C170  1.464564 S    
C83   C87   1.380740 A    
C26   H1    1.084552 S    
C92   N4    1.438388 S    
C92   C104  1.413882 A    
C35   C36   1.389732 A    
C93   C97   1.419312 A    
C144  C148  1.396627 A    
C69   C97   1.473441 S    
C165  N9    1.443428 S    
C105  C125  1.401063 A    
C24   C132  1.446549 S    
C12   C60   1.469671 S    
C38   C41   1.405872 A    
C183  H95   1.110772 S    
C42   C46   1.400581 A    
O21   Cr9   1.934040 S    
C162  C166  1.393923 A    
C88   H28   1.083788 S    
C167  C171  1.413078 A    
C86   H26   1.083809 S    
C14   C175  1.473517 S    
C130  C150  1.405714 A    
C135  H59   1.083116 S    
C76   H36   1.083215 S    
C116  C120  1.409204 A    
O3    Cr3   2.053007 S    
C181  H89   1.108711 S    
C64   H20   1.083208 S    
C177  H79   1.110300 S    
O25   Cr1   2.058820 S    
C154  C158  1.409295 A    
C63   H19   1.083189 S    
C94   C182  1.511923 S    
C85   H25   1.083784 S    
C142  C146  1.394542 A    
C83   H23   1.081665 S    
C14   O34   1.271135 A    
C132  C136  1.397314 A    
C85   C101  1.401479 A    
N2    O55   1.301482 A    
C126  H49   1.083197 S    
C182  H92   1.110892 S    
C137  H61   1.082733 S    
C44   H11   1.084163 S    
C139  H63   1.083841 S    
C13   C176  1.471862 S    
O23   C11   1.271316 A    
O10   Cr6   2.055929 S    
N1    O53   1.301358 A    
N12   O76   1.300958 A    
O4    Cr4   2.052970 S    
C156  C172  1.414604 A    
C157  C173  1.414203 A    
C27   C31   1.386700 A    
N8    O67   1.299166 A    
C70   C74   1.404515 A    
C46   C54   1.403608 A    
C178  H80   1.110291 S    
C112  C116  1.400596 A    
C29   C34   1.400381 A    
C40   C43   1.405913 A    
C48   C52   1.411618 A    
