data_mof_unit_42047.cif
_audit_creation_date              2012-12-10T21:30:21-0500
_audit_creation_method            fapswitch 2.2
_symmetry_space_group_name_H-M    P1
_symmetry_Int_Tables_number       1
_space_group_crystal_system       triclinic
_cell_length_a                    13.109985
_cell_length_b                    16.115706
_cell_length_c                    16.822883
_cell_angle_alpha                 92.243604
_cell_angle_beta                  88.581428
_cell_angle_gamma                 107.830879
_cell_volume                      3380.65246755

loop_
_atom_site_label
_atom_site_type_symbol
_atom_type_description
_atom_site_fract_x
_atom_site_fract_y
_atom_site_fract_z
_atom_type_partial_charge
C1    C     C_R   0.496933 0.488012 0.347190 0.862136
C2    C     C_R   0.016800 0.456237 0.489363 0.086879
C3    C     C_R   0.123634 0.469530 0.464332 0.100322
C4    C     C_R   0.968369 0.520890 0.473182 0.080751
C5    C     C_R   0.019451 0.589234 0.421356 0.180179
C6    C     C_R   0.118863 0.593367 0.387493 -0.257094
C7    C     C_R   0.170480 0.534204 0.408701 -0.208792
C8    C     C_R   0.871031 0.520163 0.508383 -0.250957
C9    C     C_R   0.866566 0.643789 0.433047 -0.199608
C10   C     C_R   0.181612 0.418686 0.496876 -0.132080
C11   C     C_R   0.480110 0.476349 0.262089 -0.033675
C12   C     C_R   0.298317 0.451279 0.498903 0.852192
C13   C     C_R   0.445896 0.537563 0.222181 -0.237863
C14   C     C_R   0.430709 0.528162 0.141034 -0.174305
C15   C     C_R   0.451169 0.457921 0.098734 0.322744
C16   C     C_R   0.478023 0.393639 0.139054 -0.202386
C17   C     C_R   0.492993 0.402850 0.220744 -0.207076
C18   C     C_R   0.535037 0.460630 0.863178 0.517697
C19   C     C_R   0.533283 0.456123 0.780880 -0.310983
C20   C     C_R   0.501560 0.526333 0.904234 0.196820
C21   C     C_R   0.505020 0.519034 0.739024 -0.109542
C22   C     C_R   0.480784 0.588192 0.779880 -0.218745
C23   C     C_R   0.500827 0.511296 0.652932 0.903351
C24   C     C_R   0.479236 0.591667 0.862416 -0.259137
C25   C     C_R   0.551097 0.776833 0.539630 -0.013530
C26   C     C_R   0.549797 0.863559 0.538008 -0.289114
C27   C     C_R   0.481537 0.886084 0.485035 0.319101
C28   C     C_R   0.416820 0.819914 0.435321 -0.301178
C29   C     C_R   0.421317 0.734291 0.438446 0.012403
C30   C     C_R   0.478122 0.141910 0.450002 0.312308
C31   C     C_R   0.462402 0.224535 0.453399 0.464168
C32   C     C_R   0.533618 0.117718 0.512198 0.078408
C33   C     C_R   0.573451 0.266885 0.566294 -0.152949
C34   C     C_R   0.701710 0.548233 0.497386 0.867271
C35   C     C_R   0.585379 0.182633 0.569634 -0.048382
C36   C     C_R   0.969052 0.651355 0.403008 -0.198302
C37   C     C_R   0.816726 0.576222 0.484011 -0.059101
C38   C     C_R   0.127744 0.343543 0.538195 -0.208232
C39   C     C_R   0.017961 0.322207 0.551721 -0.136366
C40   C     C_R   0.962965 0.378883 0.529465 -0.189528
H1    H     H_    0.824355 0.687235 0.413169 0.155668
H2    H     H_    0.492826 0.338997 0.106562 0.151323
H3    H     H_    0.517069 0.353943 0.251031 0.178836
H4    H     H_    0.460158 0.637969 0.748243 0.174277
H5    H     H_    0.406767 0.577178 0.110737 0.145893
H6    H     H_    0.456881 0.643518 0.893962 0.162454
H7    H     H_    0.431796 0.593216 0.253379 0.156057
H8    H     H_    0.363400 0.834769 0.393914 0.149168
H9    H     H_    0.157638 0.643263 0.345730 0.139449
H10   H     H_    0.372228 0.684065 0.399157 0.120332
H11   H     H_    0.612655 0.318354 0.608397 0.164832
H12   H     H_    0.600947 0.911863 0.578084 0.150500
H13   H     H_    0.603273 0.759520 0.580362 0.129983
H14   H     H_    0.006813 0.703186 0.362818 0.136659
H15   H     H_    0.832671 0.473335 0.552492 0.137622
H16   H     H_    0.170994 0.303087 0.562493 0.147072
H17   H     H_    0.878124 0.359596 0.542334 0.127067
H18   H     H_    0.976144 0.263633 0.582797 0.142879
H19   H     H_    0.246995 0.538791 0.380502 0.151821
H20   H     H_    0.554710 0.403419 0.749985 0.168044
N1    N     N_2   0.455187 0.454772 0.015289 -0.142742
N2    N     N_2   0.490473 0.528738 0.987420 -0.207540
N3    N     N_R   0.487340 0.714070 0.490410 -0.085024
N4    N     N_2   0.473511 0.972481 0.480270 -0.122594
N5    N     N_2   0.542547 0.031177 0.517661 -0.185541
N6    N     N_R   0.512670 0.285920 0.509580 -0.160232
O1    O     O_R   0.504530 0.423560 0.387290 -0.571527
O2    O     O_R   0.496400 0.561030 0.381140 -0.633723
O3    O     O_R   0.352460 0.397130 0.504630 -0.621703
O4    O     O_R   0.344330 0.534610 0.498470 -0.602548
O5    O     O_R   0.503600 0.438970 0.618860 -0.623945
O6    O     O_R   0.495470 0.576440 0.612710 -0.618284
O7    O     O_R   0.655670 0.465390 0.501530 -0.611638
O8    O     O_R   0.647540 0.602870 0.495370 -0.617096
Zn1   Zn    Zn3+2 0.505430 0.408200 0.504110 0.951751
Zn2   Zn    Zn3+2 0.494570 0.591800 0.495890 0.940998
O9    O     O_3   0.563002 0.397278 0.902772 -0.643279
C41   C     C_3   0.669704 0.431184 0.929689 0.092890
H21   H     H_    0.673948 0.401492 0.987543 0.168846
H22   H     H_    0.696371 0.503335 0.941262 0.124014
C42   C     C_3   0.746152 0.405510 0.870411 -0.382999
H23   H     H_    0.720037 0.333442 0.861643 0.240425
H24   H     H_    0.743557 0.435011 0.812194 0.213134
C43   C     C_3   0.861117 0.435882 0.900104 -0.945650
H25   H     H_    0.889190 0.507987 0.908628 0.265752
H26   H     H_    0.914381 0.416563 0.855646 0.266359
H27   H     H_    0.866374 0.405402 0.957333 0.265155
O10   O     O_3   0.404496 0.246235 0.394476 -0.632130
C44   C     C_3   0.295904 0.228032 0.418785 0.148367
H28   H     H_    0.267172 0.280876 0.396655 0.172253
H29   H     H_    0.283517 0.227568 0.484739 0.109813
C45   C     C_3   0.226987 0.141557 0.381378 -0.358962
H30   H     H_    0.244554 0.139642 0.316464 0.241307
H31   H     H_    0.245683 0.086524 0.408861 0.253377
C46   C     C_3   0.107835 0.130104 0.394309 -0.978624
H32   H     H_    0.088481 0.131451 0.458931 0.264959
H33   H     H_    0.059830 0.066419 0.367658 0.271457
H34   H     H_    0.085540 0.182890 0.365569 0.271891
O11   O     O_3   0.437301 0.085670 0.386135 -0.635433
C47   C     C_3   0.520235 0.087074 0.330091 0.114809
H35   H     H_    0.496178 0.023626 0.296280 0.163874
H36   H     H_    0.598229 0.092293 0.358301 0.126821
C48   C     C_3   0.534418 0.160514 0.271533 -0.344167
H37   H     H_    0.455358 0.157067 0.246725 0.244353
H38   H     H_    0.567545 0.224636 0.303154 0.226887
C49   C     C_3   0.610855 0.154106 0.203377 -0.983117
H39   H     H_    0.690830 0.158387 0.226850 0.268491
H40   H     H_    0.620109 0.208676 0.162722 0.268130
H41   H     H_    0.578699 0.091525 0.169083 0.267821
C50   C     C_3   0.653483 0.159533 0.632017 -0.345881
C51   C     C_3   0.714881 0.234914 0.688110 -0.387146
C52   C     C_3   0.785942 0.205265 0.743973 -0.884695
H42   H     H_    0.736181 0.153497 0.782679 0.264925
H43   H     H_    0.843880 0.179877 0.709306 0.256986
H44   H     H_    0.831907 0.261300 0.782130 0.256669
H45   H     H_    0.766824 0.289095 0.652912 0.216402
H46   H     H_    0.657268 0.259186 0.724409 0.224352
H47   H     H_    0.600654 0.106775 0.668413 0.210461
H48   H     H_    0.713002 0.133190 0.600332 0.204753

loop_
_geom_bond_atom_site_label_1
_geom_bond_atom_site_label_2
_ccdc_geom_bond_type
C31   N6    A    
C30   C32   A    
C12   O3    A    
C29   N3    A    
C34   C37   S    
C46   H32   S    
C1    C11   S    
C43   H27   S    
O6    Zn2   S    
C50   H47   S    
C52   H43   S    
C42   H23   S    
C46   H34   S    
O9    C41   S    
O1    Zn1   S    
C26   C27   A    
O8    Zn2   S    
C5    C6    A    
C28   C29   A    
C19   C21   A    
C25   H13   S    
C3    C7    A    
C30   C31   A    
C41   H22   S    
C49   H39   S    
C15   C16   A    
C5    C36   A    
C1    O2    A    
C18   C19   A    
C25   N3    A    
C20   C24   A    
C50   C51   S    
C45   H30   S    
C33   C35   A    
C22   H4    S    
C51   C52   S    
C16   C17   A    
C9    C37   A    
C9    C36   A    
C51   H45   S    
C31   O10   S    
C44   H29   S    
C4    C8    A    
C21   C22   A    
O7    Zn1   S    
C8    H15   S    
C7    H19   S    
C52   H42   S    
C42   H24   S    
C33   N6    A    
C14   H5    S    
C29   H10   S    
C32   C35   A    
C23   O5    A    
C43   H25   S    
C39   C40   A    
C13   H7    S    
C41   H21   S    
C25   C26   A    
C39   H18   S    
C30   O11   S    
C47   C48   S    
C2    C4    A    
C17   H3    S    
C26   H12   S    
O11   C47   S    
C45   H31   S    
C15   N1    S    
C48   H38   S    
C44   C45   S    
C35   C50   S    
C10   C12   S    
C34   O8    A    
C21   C23   S    
O4    Zn2   S    
C22   C24   A    
O2    Zn2   S    
C8    C37   A    
C16   H2    S    
C48   H37   S    
C42   C43   S    
C47   H36   S    
C12   O4    A    
C28   H8    S    
C40   H17   S    
C23   O6    A    
C43   H26   S    
C4    C5    A    
C11   C17   A    
C50   H48   S    
C46   H33   S    
C6    C7    A    
C19   H20   S    
C33   H11   S    
C9    H1    S    
C10   C38   A    
C51   H46   S    
C24   H6    S    
N4    N5    D    
C2    C3    A    
C3    C10   A    
O5    Zn1   S    
C11   C13   A    
C41   C42   S    
C38   C39   A    
C49   H40   S    
C18   O9    S    
N6    Zn1   S    
C47   H35   S    
C1    O1    A    
O3    Zn1   S    
C48   C49   S    
C18   C20   A    
C45   C46   S    
C6    H9    S    
C20   N2    S    
N1    N2    D    
C36   H14   S    
C27   N4    S    
C34   O7    A    
C2    C40   A    
C38   H16   S    
O10   C44   S    
N3    Zn2   S    
C27   C28   A    
C14   C15   A    
C44   H28   S    
C13   C14   A    
C52   H44   S    
C32   N5    S    
C49   H41   S    
