data_mof_unit_68320.cif
_audit_creation_date              2012-12-10T17:22:43-0500
_audit_creation_method            fapswitch 2.2
_symmetry_space_group_name_H-M    P1
_symmetry_Int_Tables_number       1
_space_group_crystal_system       triclinic
_cell_length_a                    10.807571
_cell_length_b                    10.967929
_cell_length_c                    9.764981
_cell_angle_alpha                 89.050886
_cell_angle_beta                  89.293312
_cell_angle_gamma                 100.191591
_cell_volume                      1138.95135211

loop_
_atom_site_label
_atom_site_type_symbol
_atom_type_description
_atom_site_fract_x
_atom_site_fract_y
_atom_site_fract_z
_atom_type_partial_charge
C1    C     C_R   0.503451 0.262116 0.501063 0.836552
C2    C     C_3   0.973085 0.582288 0.408393 -0.296678
C3    C     C_3   0.028522 0.465276 0.371426 0.201955
C4    C     C_3   0.120912 0.490799 0.494610 -0.229356
C5    C     C_R   0.494205 0.102191 0.757817 -0.113639
C6    C     C_R   0.433010 0.036555 0.869309 -0.146172
C7    C     C_R   0.371628 0.915311 0.855783 -0.169118
C8    C     C_R   0.380832 0.856528 0.732427 -0.101503
C9    C     C_R   0.442352 0.922702 0.618069 0.040881
C10   C     C_R   0.481741 0.052233 0.625599 0.043717
C11   C     C_R   0.502710 0.125009 0.502074 -0.203764
C12   C     C_R   0.258823 0.493913 0.499511 0.831199
C13   C     C_R   0.497684 0.061980 0.375202 0.201658
C14   C     C_R   0.471979 0.931635 0.372911 0.173627
C15   C     C_R   0.463022 0.863126 0.496153 -0.224313
C16   C     C_R   0.689935 0.652048 0.145788 -0.133773
C17   C     C_R   0.796610 0.716994 0.080906 0.230924
C18   C     C_R   0.802003 0.719357 0.941005 -0.290802
C19   C     C_R   0.699301 0.667774 0.862251 0.267714
C20   C     C_R   0.594793 0.580980 0.924451 0.090722
C21   C     C_R   0.593831 0.576823 0.073784 0.035892
C22   C     C_R   0.415284 0.419833 0.076493 0.271335
C23   C     C_R   0.485549 0.733563 0.498814 0.816855
C24   C     C_R   0.415381 0.420345 0.929653 0.193779
C25   C     C_R   0.740058 0.503437 0.500514 0.784187
C26   C     C_3   0.021094 0.412677 0.590268 0.182782
C27   C     C_3   0.931257 0.388579 0.469734 0.203277
C28   C     C_3   0.875821 0.503303 0.505242 -0.210543
C29   C     C_3   0.967797 0.528527 0.625756 0.249713
C30   C     C_3   0.064331 0.606126 0.528628 0.226981
Cu1   Cu    Cu3+1 0.499990 0.499990 0.640660 0.976386
Cu2   Cu    Cu3+1 0.500010 0.500010 0.359340 0.986197
H1    H     H_    0.321286 0.865517 0.941988 0.145779
H2    H     H_    0.335664 0.760760 0.726001 0.175199
H3    H     H_    0.682307 0.666046 0.252850 0.210364
H4    H     H_    0.883761 0.774769 0.891540 0.165984
H5    H     H_    0.954014 0.655106 0.337516 0.221690
H6    H     H_    0.549502 0.191373 0.778816 0.169808
H7    H     H_    0.430719 0.082230 0.965015 0.151430
N1    N     N_R   0.501210 0.501210 0.147910 -0.218121
N2    N     N_R   0.501250 0.501290 0.852040 -0.220124
O1    O     O_R   0.499990 0.319640 0.618810 -0.579396
O2    O     O_R   0.500000 0.319660 0.381240 -0.524185
O3    O     O_R   0.316850 0.499960 0.618770 -0.555325
O4    O     O_R   0.316860 0.499980 0.381190 -0.539640
O5    O     O_R   0.500000 0.680340 0.618760 -0.548018
O6    O     O_R   0.500010 0.680360 0.381190 -0.568305
O7    O     O_R   0.683140 0.500020 0.618810 -0.585598
O8    O     O_R   0.683150 0.500040 0.381230 -0.595592
N3    N     N_2   0.856287 0.267900 0.446836 -0.435592
H8    H     H_    0.768184 0.268884 0.409421 0.258230
C31   C     C_3   0.919782 0.173725 0.391591 -0.666724
H9    H     H_    0.869968 0.081540 0.428153 0.217603
H10   H     H_    0.018907 0.185568 0.424376 0.242462
H11   H     H_    0.918668 0.177235 0.278103 0.255886
N4    N     N_2   0.432325 0.869352 0.249848 -0.403896
H12   H     H_    0.350026 0.889918 0.210871 0.239841
C32   C     C_3   0.528132 0.864008 0.147295 -0.631343
H13   H     H_    0.498015 0.782371 0.082987 0.232431
H14   H     H_    0.618529 0.859654 0.196101 0.236596
H15   H     H_    0.541753 0.945912 0.079072 0.210685
I1    I     I_    0.285084 0.281730 0.186388 -0.331638
N5    N     N_2   0.898835 0.783316 0.155200 -0.432545
H16   H     H_    0.982757 0.802995 0.100892 0.262608
C33   C     C_3   0.873189 0.888302 0.230846 -0.779878
H17   H     H_    0.961640 0.936597 0.276417 0.242495
H18   H     H_    0.804956 0.857537 0.315718 0.221237
H19   H     H_    0.837284 0.954788 0.161241 0.241567
N6    N     N_2   0.704117 0.717907 0.727027 -0.343408
H20   H     H_    0.780572 0.699662 0.672371 0.257134
C34   C     C_3   0.708384 0.851347 0.719729 -0.696142
H21   H     H_    0.697037 0.880813 0.612185 0.213423
H22   H     H_    0.800701 0.902871 0.752708 0.198353
H23   H     H_    0.633763 0.877974 0.785778 0.256014
I2    I     I_    0.283568 0.287206 0.831637 -0.346894
N7    N     N_2   0.040549 0.313369 0.682071 -0.382852
H24   H     H_    0.081300 0.247815 0.632937 0.266414
C35   C     C_3   0.935574 0.258987 0.769987 -0.600509
H25   H     H_    0.954611 0.171303 0.816813 0.227516
H26   H     H_    0.847052 0.237911 0.711781 0.224017
H27   H     H_    0.923936 0.321800 0.854774 0.249114
N8    N     N_2   0.942377 0.564655 0.763139 -0.449560
H28   H     H_    0.868074 0.506876 0.810246 0.268169
C36   C     C_3   0.052150 0.593388 0.848158 -0.622471
H29   H     H_    0.024415 0.624907 0.949132 0.236573
H30   H     H_    0.121614 0.670057 0.803163 0.244075
H31   H     H_    0.097606 0.510969 0.861766 0.284362
N9    N     N_2   0.138644 0.727214 0.551792 -0.437600
H32   H     H_    0.207438 0.751976 0.477526 0.253596
C37   C     C_3   0.068002 0.825075 0.577501 -0.698279
H33   H     H_    0.010707 0.840131 0.487447 0.226717
H34   H     H_    0.005472 0.802089 0.668463 0.246697
H35   H     H_    0.133984 0.912426 0.597677 0.240636
I3    I     I_    0.022675 0.432086 0.158198 -0.435374
N10   N     N_2   0.509894 0.129065 0.248471 -0.379576
H36   H     H_    0.442450 0.095961 0.179257 0.261005
C38   C     C_3   0.635468 0.164517 0.190497 -0.659547
H37   H     H_    0.634495 0.151376 0.078032 0.196762
H38   H     H_    0.700999 0.108251 0.235552 0.221632
H39   H     H_    0.669599 0.264514 0.206707 0.267359

loop_
_geom_bond_atom_site_label_1
_geom_bond_atom_site_label_2
_ccdc_geom_bond_type
C14   N4    S    
N5    C33   S    
C16   C21   A    
Cu1   O1    S    
Cu2   O4    S    
N10   H36   S    
C1    C11   S    
C36   H31   S    
C20   N2    A    
C7    C8    A    
C25   C28   S    
C26   C27   S    
C13   N10   S    
C28   C29   S    
C36   H30   S    
C16   H3    S    
C5    C6    A    
C35   H26   S    
C32   H14   S    
N4    H12   S    
C18   C19   A    
N6    C34   S    
C37   H34   S    
C1    O2    A    
C19   C20   A    
C8    C9    A    
C33   H18   S    
Cu1   O5    S    
N3    C31   S    
C4    C12   S    
C9    C10   A    
C31   H11   S    
C35   H27   S    
N9    H32   S    
C32   H15   S    
C15   C23   S    
C23   O5    A    
C5    H6    S    
C24   N2    A    
C7    H1    S    
C38   H38   S    
C31   H10   S    
C38   H37   S    
C23   O6    A    
Cu1   O3    S    
C36   H29   S    
C34   H22   S    
C35   H25   S    
C16   C17   A    
N3    H8    S    
C32   H13   S    
C29   C30   S    
C22   I1    S    
C26   N7    S    
Cu1   Cu2   S    
C33   H19   S    
C22   N1    A    
N10   C38   S    
C17   C18   A    
C8    H2    S    
N7    H24   S    
C25   O7    A    
N9    C37   S    
N8    H28   S    
N8    C36   S    
Cu1   O7    S    
Cu2   O6    S    
C22   C24   A    
C19   N6    S    
C30   N9    S    
C3    C4    S    
C38   H39   S    
C31   H9    S    
C37   H35   S    
Cu1   N2    S    
C6    H7    S    
N7    C35   S    
C12   O4    A    
C34   H23   S    
C4    C26   S    
C27   N3    S    
C24   I2    S    
C6    C7    A    
C2    C30   S    
C3    C27   S    
C2    C3    S    
C9    C15   A    
C5    C10   A    
C12   O3    A    
C17   N5    S    
C11   C13   A    
C2    H5    S    
C37   H33   S    
C21   N1    A    
Cu2   O2    S    
N4    C32   S    
C3    I3    S    
Cu2   N1    S    
N6    H20   S    
C25   O8    A    
Cu2   O8    S    
C10   C11   A    
N5    H16   S    
C1    O1    A    
C29   N8    S    
C34   H21   S    
C20   C21   A    
C26   C29   S    
C33   H17   S    
C27   C28   S    
C14   C15   A    
C2    C28   S    
C13   C14   A    
C18   H4    S    
C4    C30   S    
