data_mof_unit_41787.cif
_audit_creation_date              2012-12-10T19:00:46-0500
_audit_creation_method            fapswitch 2.2
_symmetry_space_group_name_H-M    P1
_symmetry_Int_Tables_number       1
_space_group_crystal_system       triclinic
_cell_length_a                    14.993845
_cell_length_b                    10.818052
_cell_length_c                    9.558229
_cell_angle_alpha                 90.08807
_cell_angle_beta                  90.023745
_cell_angle_gamma                 90.207546
_cell_volume                      1550.37269956

loop_
_atom_site_label
_atom_site_type_symbol
_atom_type_description
_atom_site_fract_x
_atom_site_fract_y
_atom_site_fract_z
_atom_type_partial_charge
C1    C     C_R   0.501483 0.262381 0.499888 0.793324
C2    C     C_R   0.907453 0.609577 0.551983 0.116643
C3    C     C_R   0.952033 0.303502 0.385132 -0.202816
C4    C     C_R   0.044991 0.303249 0.382863 -0.213759
C5    C     C_R   0.092868 0.402897 0.439431 0.118383
C6    C     C_R   0.047031 0.504402 0.498181 0.070449
C7    C     C_R   0.094902 0.604300 0.557197 0.117751
C8    C     C_R   0.049171 0.705998 0.611873 -0.242348
C9    C     C_R   0.956301 0.709295 0.608085 -0.185293
C10   C     C_R   0.185888 0.402982 0.438580 -0.257165
C11   C     C_R   0.232704 0.501022 0.499777 -0.049840
C12   C     C_R   0.329004 0.499838 0.499968 0.803542
C13   C     C_R   0.187841 0.600819 0.559845 -0.244351
C14   C     C_R   0.502828 0.064012 0.625354 0.076187
C15   C     C_R   0.509845 0.129282 0.500129 -0.080232
C16   C     C_R   0.528740 0.064328 0.376216 -0.222610
C17   C     C_R   0.528846 0.935402 0.376525 -0.213722
C18   C     C_R   0.510092 0.870815 0.500753 -0.123262
C19   C     C_R   0.503454 0.936622 0.626087 0.072524
C20   C     C_3   0.433143 0.930871 0.737313 0.096814
C21   C     C_3   0.432932 0.071651 0.736303 -0.526971
C22   C     C_R   0.537936 0.595391 0.073209 0.179073
C23   C     C_R   0.501628 0.737637 0.500117 0.783323
C24   C     C_R   0.455068 0.412178 0.074248 -0.081271
C25   C     C_R   0.455207 0.412042 0.925424 -0.079695
C26   C     C_R   0.536283 0.596627 0.926262 0.278864
C27   C     C_3   0.629193 0.644365 0.916023 -0.556659
C28   C     C_3   0.632782 0.640404 0.075150 0.023737
C29   C     C_R   0.670993 0.502197 0.499868 0.814472
C30   C     C_R   0.813845 0.611010 0.548646 0.073013
C31   C     C_R   0.767511 0.506081 0.499117 -0.078890
C32   C     C_R   0.813168 0.404505 0.444914 -0.280684
C33   C     C_R   0.905956 0.404177 0.442200 0.099397
C34   C     C_R   0.953394 0.505985 0.497776 0.007221
Cu1   Cu    Cu3+1 0.500000 0.499980 0.640670 0.946372
Cu2   Cu    Cu3+1 0.500000 0.500020 0.359330 0.946210
H1    H     H_    0.539692 0.886926 0.278815 0.152420
H2    H     H_    0.370055 0.886751 0.700742 0.135207
H3    H     H_    0.369355 0.111332 0.697090 0.172601
H4    H     H_    0.458976 0.115017 0.833698 0.196751
H5    H     H_    0.419967 0.339805 0.129723 0.137795
H6    H     H_    0.420070 0.339765 0.869683 0.138858
H7    H     H_    0.674788 0.577991 0.863851 0.219343
H8    H     H_    0.631601 0.739936 0.874004 0.177889
H9    H     H_    0.776048 0.325905 0.404431 0.144545
H10   H     H_    0.640056 0.732398 0.126266 0.136520
H11   H     H_    0.916133 0.225180 0.341820 0.143757
H12   H     H_    0.079442 0.224843 0.337759 0.141735
H13   H     H_    0.222041 0.326200 0.392839 0.128958
H14   H     H_    0.225507 0.676511 0.605798 0.127695
H15   H     H_    0.085283 0.783400 0.656859 0.144945
H16   H     H_    0.923059 0.789618 0.650819 0.178665
H17   H     H_    0.539488 0.112451 0.278332 0.159843
N1    N     N_R   0.500570 0.500930 0.147930 -0.184103
N2    N     N_R   0.500570 0.500890 0.852020 -0.181820
O1    O     O_R   0.500000 0.319640 0.618810 -0.579635
O2    O     O_R   0.500010 0.319680 0.381230 -0.596373
O3    O     O_R   0.370250 0.499950 0.618800 -0.577953
O4    O     O_R   0.370260 0.499990 0.381220 -0.576419
O5    O     O_R   0.499990 0.680320 0.618770 -0.564693
O6    O     O_R   0.500000 0.680360 0.381190 -0.590412
O7    O     O_R   0.629740 0.500010 0.618780 -0.593777
O8    O     O_R   0.629750 0.500050 0.381200 -0.543007
N3    N     N_3   0.766810 0.720835 0.588953 -0.618858
H18   H     H_    0.727843 0.749668 0.504386 0.213709
H19   H     H_    0.724436 0.699573 0.671855 0.227355
N4    N     N_2   0.467285 0.879713 0.867033 -0.402647
H20   H     H_    0.527354 0.916401 0.900235 0.248971
C35   C     C_3   0.402215 0.868463 0.977880 -0.697920
H21   H     H_    0.433174 0.823155 0.069896 0.218547
H22   H     H_    0.344987 0.810747 0.942704 0.235314
H23   H     H_    0.378113 0.961299 0.009897 0.223630
N5    N     N_2   0.695464 0.548493 0.125387 -0.359252
H24   H     H_    0.687935 0.461287 0.082796 0.260920
C36   C     C_3   0.787175 0.589931 0.131864 -0.659472
H25   H     H_    0.829756 0.514611 0.173019 0.231096
H26   H     H_    0.793210 0.670807 0.203075 0.230114
H27   H     H_    0.811419 0.615341 0.025863 0.221428

loop_
_geom_bond_atom_site_label_1
_geom_bond_atom_site_label_2
_ccdc_geom_bond_type
C29   O8    A    
C30   N3    S    
C32   H9    S    
C20   N4    S    
C19   C20   S    
Cu2   O4    S    
C6    C34   A    
C26   N2    A    
C7    C8    A    
C22   N1    A    
C28   H10   S    
C26   C27   S    
Cu1   O3    S    
C14   C21   S    
C1    O1    A    
C5    C6    A    
C3    C33   A    
C24   N1    A    
C15   C16   A    
C18   C19   A    
N5    H24   S    
C35   H22   S    
C16   H17   S    
C12   O4    A    
C27   H8    S    
Cu1   Cu2   S    
C8    C9    A    
C1    C15   S    
Cu2   O8    S    
C12   O3    A    
C2    C34   A    
C22   C28   S    
C24   H5    S    
N5    C36   S    
C9    H16   S    
C28   N5    S    
C17   C18   A    
C23   O5    A    
Cu1   N2    S    
C18   C23   S    
C24   C25   A    
Cu2   O2    S    
C16   C17   A    
N4    H20   S    
Cu1   O5    S    
N4    C35   S    
N3    H19   S    
C2    C9    A    
C35   H23   S    
C36   H25   S    
C1    O2    A    
C20   H2    S    
C31   C32   A    
C21   H3    S    
C23   O6    A    
C33   C34   A    
C17   H1    S    
C36   H26   S    
C8    H15   S    
Cu2   O6    S    
C4    H12   S    
C29   O7    A    
Cu1   O1    S    
C14   C19   A    
C25   N2    A    
C4    C5    A    
C25   H6    S    
C11   C12   S    
C6    C7    A    
C2    C30   A    
N3    H18   S    
C5    C10   A    
C29   C31   S    
C32   C33   A    
C11   C13   A    
C30   C31   A    
C21   H4    S    
C3    H11   S    
Cu1   O7    S    
C35   H21   S    
C36   H27   S    
Cu2   N1    S    
C10   C11   A    
C13   H14   S    
C27   H7    S    
C7    C13   A    
C20   C21   S    
C22   C26   A    
C27   C28   S    
C14   C15   A    
C10   H13   S    
C3    C4    A    
