data_mof_unit_53795.cif
_audit_creation_date              2012-12-11T15:22:33-0500
_audit_creation_method            fapswitch 2.2
_symmetry_space_group_name_H-M    P1
_symmetry_Int_Tables_number       1
_space_group_crystal_system       triclinic
_cell_length_a                    22.288047
_cell_length_b                    13.075676
_cell_length_c                    26.937996
_cell_angle_alpha                 89.996642
_cell_angle_beta                  90.619279
_cell_angle_gamma                 89.882903
_cell_volume                      7850.09971019

loop_
_atom_site_label
_atom_site_type_symbol
_atom_type_description
_atom_site_fract_x
_atom_site_fract_y
_atom_site_fract_z
_atom_type_partial_charge
C1    C     C_R   0.720305 0.344349 0.177616 0.567480
C2    C     C_R   0.485894 0.254478 0.895853 -0.094860
C3    C     C_R   0.946957 0.614895 0.542478 0.336976
C4    C     C_R   0.540993 0.069224 0.402471 -0.110766
C5    C     C_R   0.429859 0.117655 0.592217 -0.112250
C6    C     C_R   0.040993 0.569223 0.402471 -0.110765
C7    C     C_R   0.929859 0.617656 0.592217 -0.112250
C8    C     C_R   0.744024 0.956765 0.371421 0.015272
C9    C     C_R   0.255376 0.958048 0.627408 -0.008563
C10   C     C_R   0.244024 0.456765 0.371420 0.015270
C11   C     C_R   0.755376 0.458048 0.627408 -0.008563
C12   C     C_R   0.696251 0.908894 0.395912 -0.138663
C13   C     C_R   0.022374 0.757226 0.102574 -0.120740
C14   C     C_R   0.270708 0.855303 0.618363 -0.154651
C15   C     C_R   0.196251 0.408894 0.395912 -0.138665
C16   C     C_R   0.770708 0.355303 0.618363 -0.154651
C17   C     C_R   0.699549 0.892065 0.446685 -0.079437
C18   C     C_R   0.258576 0.811125 0.571888 -0.131616
C19   C     C_R   0.199549 0.392065 0.446685 -0.079437
C20   C     C_R   0.758576 0.311125 0.571888 -0.131616
C21   C     C_R   0.749078 0.927939 0.473487 0.016073
C22   C     C_R   0.235184 0.871795 0.533297 0.021414
C23   C     C_R   0.249078 0.427939 0.473487 0.016074
C24   C     C_R   0.985893 0.754479 0.895854 -0.094858
C25   C     C_R   0.735184 0.371795 0.533297 0.021414
C26   C     C_R   0.795316 0.979657 0.449744 -0.114263
C27   C     C_R   0.227273 0.976128 0.540903 -0.067752
C28   C     C_R   0.295316 0.479656 0.449744 -0.114262
C29   C     C_R   0.727273 0.476128 0.540903 -0.067752
C30   C     C_R   0.796563 0.984197 0.398448 0.056675
C31   C     C_R   0.230730 0.017763 0.588068 0.055364
C32   C     C_R   0.296563 0.484197 0.398448 0.056675
C33   C     C_R   0.730730 0.517763 0.588068 0.055364
C34   C     C_R   0.812592 0.849043 0.539157 0.098463
C35   C     C_R   0.511838 0.258162 0.051213 0.019692
C36   C     C_R   0.166196 0.866279 0.458732 0.049975
C37   C     C_R   0.312592 0.349042 0.539157 0.098463
C38   C     C_R   0.666196 0.366280 0.458732 0.049976
C39   C     C_R   0.703550 0.303257 0.326508 0.565661
C40   C     C_R   0.291897 0.315091 0.672738 0.544170
C41   C     C_R   0.203550 0.803257 0.326508 0.565661
C42   C     C_R   0.791896 0.815091 0.672738 0.544171
C43   C     C_R   0.822896 0.828391 0.588699 -0.111385
C44   C     C_R   0.162390 0.854638 0.407324 -0.124119
C45   C     C_R   0.322896 0.328391 0.588699 -0.111386
C46   C     C_R   0.496727 0.256454 0.947239 0.030736
C47   C     C_R   0.662390 0.354638 0.407324 -0.124117
C48   C     C_R   0.724242 0.893599 0.609529 -0.099738
C49   C     C_R   0.257142 0.764229 0.406542 -0.131763
C50   C     C_R   0.224242 0.393599 0.609529 -0.099738
C51   C     C_R   0.757142 0.264229 0.406542 -0.131764
C52   C     C_R   0.714390 0.919921 0.560080 -0.113010
C53   C     C_R   0.262364 0.775948 0.457812 -0.148242
C54   C     C_R   0.214390 0.419920 0.560080 -0.113010
C55   C     C_R   0.762364 0.275948 0.457812 -0.148242
C56   C     C_R   0.758342 0.897444 0.524777 0.032841
C57   C     C_R   0.011837 0.758164 0.051214 0.019687
C58   C     C_R   0.218891 0.831206 0.483964 0.009366
C59   C     C_R   0.258342 0.397444 0.524777 0.032841
C60   C     C_R   0.718891 0.331206 0.483964 0.009366
C61   C     C_R   0.778551 0.847109 0.623161 0.036200
C62   C     C_R   0.208534 0.808207 0.380803 -0.011601
C63   C     C_R   0.278551 0.347109 0.623161 0.036200
C64   C     C_R   0.708534 0.308207 0.380803 -0.011602
C65   C     C_R   0.556505 0.157654 0.322675 0.540918
C66   C     C_R   0.446447 0.158276 0.679182 0.527820
C67   C     C_R   0.056505 0.657654 0.322675 0.540922
C68   C     C_R   0.996725 0.756455 0.947240 0.030737
C69   C     C_R   0.946447 0.658276 0.679182 0.527821
C70   C     C_R   0.732629 0.001236 0.322536 0.557602
C71   C     C_R   0.268210 0.004604 0.676010 0.540164
C72   C     C_R   0.232629 0.501236 0.322536 0.557596
C73   C     C_R   0.768210 0.504604 0.676010 0.540163
C74   C     C_R   0.510320 0.072560 0.103693 -0.096929
C75   C     C_R   0.483503 0.068942 0.897815 -0.138344
C76   C     C_R   0.010312 0.572565 0.103696 -0.096898
C77   C     C_R   0.983498 0.568943 0.897817 -0.138344
C78   C     C_R   0.502413 0.071682 0.052469 0.021760
C79   C     C_R   0.503706 0.164624 0.025937 0.065312
C80   C     C_R   0.492027 0.069506 0.948962 0.008022
C81   C     C_R   0.002405 0.571687 0.052471 0.021764
C82   C     C_R   0.992021 0.569508 0.948964 0.008018
C83   C     C_R   0.492198 0.977475 0.975631 -0.146581
C84   C     C_R   0.496486 0.978646 0.027170 -0.133578
C85   C     C_R   0.992189 0.477479 0.975634 -0.146584
C86   C     C_R   0.996476 0.478650 0.027173 -0.133560
C87   C     C_3   0.893665 0.992474 0.893525 -0.115160
C88   C     C_3   0.118973 0.039585 0.115996 -0.126702
C89   C     C_3   0.393664 0.492470 0.893527 -0.115162
C90   C     C_R   0.497591 0.163623 0.974025 0.065494
C91   C     C_3   0.618968 0.539563 0.116008 -0.126702
C92   C     C_3   0.625954 0.829576 0.117602 -0.121991
C93   C     C_3   0.379691 0.805926 0.880421 -0.104826
C94   C     C_3   0.126053 0.329608 0.117716 -0.121761
C95   C     C_3   0.879693 0.305933 0.880428 -0.104830
C96   C     C_3   0.389114 0.977092 0.517934 -0.102379
C97   C     C_3   0.519913 0.891742 0.459741 -0.117157
C98   C     C_3   0.889114 0.477092 0.517934 -0.102380
C99   C     C_3   0.019913 0.391742 0.459740 -0.117157
C100  C     C_2   0.859054 0.817307 0.503699 0.579679
C101  C     C_R   0.003701 0.664627 0.025938 0.065308
C102  C     C_2   0.116158 0.921204 0.484007 0.534392
C103  C     C_2   0.359054 0.317307 0.503699 0.579679
C104  C     C_2   0.616158 0.421204 0.484007 0.534392
C105  C     C_2   0.854239 0.011982 0.374716 0.596715
C106  C     C_2   0.205130 0.121814 0.592935 0.579556
C107  C     C_2   0.354239 0.511981 0.374716 0.596715
C108  C     C_2   0.705130 0.621814 0.592935 0.579556
C109  C     C_3   0.861227 0.051450 0.118094 -0.057149
C110  C     C_3   0.158044 0.141546 0.892220 -0.068212
C111  C     C_3   0.361229 0.551429 0.118094 -0.057160
C112  C     C_R   0.279302 0.345563 0.821890 0.578038
C113  C     C_R   0.997586 0.663625 0.974026 0.065493
C114  C     C_3   0.658030 0.641525 0.892215 -0.068221
C115  C     C_2   0.801738 0.140055 0.007548 0.562899
C116  C     C_2   0.248110 0.163659 0.998526 0.587183
C117  C     C_2   0.301744 0.640047 0.007549 0.562894
C118  C     C_2   0.748080 0.663659 0.998526 0.587192
C119  C     C_R   0.512184 0.350112 0.024300 -0.119914
C120  C     C_R   0.504230 0.349310 0.972695 -0.117217
C121  C     C_R   0.012185 0.850113 0.024300 -0.119918
C122  C     C_R   0.004231 0.849310 0.972695 -0.117218
C123  C     C_R   0.719784 0.029614 0.119043 -0.000560
C124  C     C_R   0.277262 0.015456 0.879759 0.013580
C125  C     C_R   0.219784 0.529616 0.119044 -0.000617
C126  C     C_R   0.777261 0.515462 0.879759 0.013581
C127  C     C_R   0.765741 0.074758 0.090306 0.200498
C128  C     C_R   0.220306 0.844349 0.177616 0.567481
C129  C     C_R   0.251730 0.087193 0.912644 0.186162
C130  C     C_R   0.265744 0.574752 0.090306 0.200518
C131  C     C_R   0.751720 0.587195 0.912642 0.186163
C132  C     C_R   0.761790 0.073635 0.037986 0.052223
C133  C     C_R   0.262124 0.078032 0.964121 0.052938
C134  C     C_R   0.261793 0.573631 0.037987 0.052234
C135  C     C_R   0.762110 0.578038 0.964120 0.052940
C136  C     C_R   0.718947 0.009356 0.014522 -0.065554
C137  C     C_R   0.286131 0.985935 0.983059 -0.074426
C138  C     C_R   0.218946 0.509359 0.014522 -0.065590
C139  C     C_R   0.779302 0.845562 0.821890 0.578034
C140  C     C_R   0.786125 0.485948 0.983060 -0.074424
C141  C     C_R   0.672072 0.969446 0.042392 -0.143284
C142  C     C_R   0.309212 0.913159 0.950580 -0.132488
C143  C     C_R   0.172069 0.469457 0.042392 -0.143257
C144  C     C_R   0.809212 0.413174 0.950583 -0.132479
C145  C     C_R   0.553409 0.157359 0.177676 0.551671
C146  C     C_R   0.446720 0.156888 0.822320 0.542531
C147  C     C_R   0.053409 0.657359 0.177676 0.551690
C148  C     C_R   0.946720 0.656888 0.822320 0.542528
C149  C     C_R   0.672241 0.977745 0.094297 0.224140
C150  C     C_R   0.475944 0.161021 0.871537 -0.001988
C151  C     C_R   0.306854 0.927723 0.898871 0.245744
C152  C     C_R   0.172238 0.477761 0.094296 0.224079
C153  C     C_R   0.806856 0.427735 0.898873 0.245744
C154  C     C_R   0.685977 0.949369 0.928333 -0.086234
C155  C     C_R   0.315776 0.911706 0.066467 -0.082659
C156  C     C_R   0.185976 0.449375 0.928332 -0.086234
C157  C     C_R   0.815775 0.411724 0.066468 -0.082666
C158  C     C_R   0.701024 0.908063 0.881862 -0.127394
C159  C     C_R   0.299173 0.877660 0.113699 -0.128401
C160  C     C_R   0.201023 0.408069 0.881861 -0.127400
C161  C     C_R   0.524494 0.163866 0.128502 -0.007495
C162  C     C_R   0.799173 0.377673 0.113701 -0.128393
C163  C     C_R   0.806293 0.908113 0.906395 0.291858
C164  C     C_R   0.196294 0.932489 0.097288 0.272787
C165  C     C_R   0.306292 0.408110 0.906396 0.291884
C166  C     C_R   0.696291 0.432484 0.097288 0.272782
C167  C     C_R   0.790074 0.938458 0.953794 -0.029829
C168  C     C_R   0.212996 0.961678 0.049738 -0.065917
C169  C     C_R   0.290073 0.438453 0.953795 -0.029811
C170  C     C_R   0.712991 0.461676 0.049739 -0.065917
C171  C     C_R   0.730969 0.966371 0.964447 0.039966
C172  C     C_R   0.975942 0.661021 0.871538 -0.001990
C173  C     C_R   0.272538 0.954321 0.034389 0.025970
C174  C     C_R   0.230968 0.466372 0.964447 0.039945
C175  C     C_R   0.772534 0.454332 0.034391 0.025962
C176  C     C_R   0.761365 0.888149 0.870339 0.070769
C177  C     C_R   0.239408 0.887272 0.129533 0.026295
C178  C     C_R   0.261364 0.388151 0.870339 0.070787
C179  C     C_R   0.739406 0.387274 0.129533 0.026301
C180  C     C_R   0.536312 0.160054 0.374360 -0.020212
C181  C     C_R   0.466910 0.162823 0.628290 -0.011929
C182  C     C_R   0.036311 0.660054 0.374360 -0.020210
C183  C     C_R   0.024491 0.663869 0.128504 -0.007488
C184  C     C_R   0.966909 0.662823 0.628290 -0.011929
C185  C     C_R   0.522359 0.251774 0.398127 -0.159883
C186  C     C_R   0.521698 0.206060 0.615162 -0.141036
C187  C     C_R   0.022359 0.751774 0.398127 -0.159883
C188  C     C_R   0.021698 0.706060 0.615162 -0.141036
C189  C     C_R   0.514024 0.252774 0.449274 -0.137538
C190  C     C_R   0.539137 0.204081 0.565543 -0.137156
C191  C     C_R   0.014024 0.752774 0.449274 -0.137539
C192  C     C_R   0.039136 0.704081 0.565543 -0.137156
C193  C     C_R   0.719064 0.045189 0.173979 0.599208
C194  C     C_R   0.522374 0.257224 0.102573 -0.120731
C195  C     C_R   0.279922 0.041168 0.826279 0.614199
C196  C     C_R   0.219064 0.545189 0.173979 0.599179
C197  C     C_R   0.779922 0.541171 0.826279 0.614191
C198  C     C_R   0.518240 0.162097 0.476939 0.072936
C199  C     C_R   0.501127 0.161742 0.529183 0.107774
C200  C     C_R   0.018240 0.662097 0.476939 0.072937
C201  C     C_R   0.001127 0.661742 0.529183 0.107774
C202  C     C_R   0.531317 0.068903 0.453767 0.301712
C203  C     C_R   0.446957 0.114895 0.542478 0.336976
C204  C     C_R   0.031316 0.568903 0.453767 0.301712
Cr1   Cr    Cr6+3 0.756570 0.170940 0.251190 1.052500
Cr2   Cr    Cr6+3 0.374010 0.036240 0.749520 1.031809
Cr3   Cr    Cr6+3 0.125990 0.536240 0.250480 1.035372
Cr4   Cr    Cr6+3 0.874010 0.536240 0.749520 1.031811
Cr5   Cr    Cr6+3 0.243430 0.170940 0.748810 1.051848
Cr6   Cr    Cr6+3 0.256570 0.670940 0.251190 1.052503
Cr7   Cr    Cr6+3 0.743430 0.670940 0.748810 1.051848
Cr8   Cr    Cr6+3 0.623740 0.299110 0.249580 1.027159
Cr9   Cr    Cr6+3 0.376260 0.299110 0.750420 1.030884
Cr10  Cr    Cr6+3 0.123740 0.799110 0.249580 1.027165
Cr11  Cr    Cr6+3 0.876260 0.799110 0.750420 1.030884
Cr12  Cr    Cr6+3 0.625990 0.036240 0.250480 1.035435
H1    H     H_    0.478048 0.996189 0.879130 0.127497
H2    H     H_    0.551112 0.238923 0.643136 0.133114
H3    H     H_    0.925448 0.428175 0.533902 0.125420
H4    H     H_    0.872326 0.439176 0.483683 0.147091
H5    H     H_    0.055456 0.361254 0.435238 0.116666
H6    H     H_    0.977025 0.402648 0.438772 0.133519
H7    H     H_    0.011768 0.333067 0.488615 0.155393
H8    H     H_    0.879123 0.749759 0.438629 0.356851
H9    H     H_    0.071415 0.950208 0.547234 0.358566
H10   H     H_    0.379122 0.249758 0.438629 0.356850
H11   H     H_    0.571415 0.450208 0.547233 0.358566
H12   H     H_    0.911663 0.988155 0.318450 0.334234
H13   H     H_    0.019523 0.822730 0.377497 0.158451
H14   H     H_    0.144693 0.214710 0.625393 0.330342
H15   H     H_    0.411663 0.488155 0.318449 0.334235
H16   H     H_    0.644693 0.714710 0.625393 0.330342
H17   H     H_    0.899989 0.089864 0.136242 0.133946
H18   H     H_    0.876322 0.022634 0.081420 0.131925
H19   H     H_    0.848567 0.985152 0.141611 0.129210
H20   H     H_    0.140525 0.121541 0.929472 0.133429
H21   H     H_    0.149864 0.076200 0.866688 0.123925
H22   H     H_    0.131674 0.207606 0.878089 0.126868
H23   H     H_    0.399993 0.589837 0.136242 0.133948
H24   H     H_    0.051112 0.738923 0.643135 0.133114
H25   H     H_    0.376322 0.522613 0.081420 0.131919
H26   H     H_    0.348565 0.485133 0.141611 0.129193
H27   H     H_    0.640515 0.621484 0.929464 0.133431
H28   H     H_    0.649856 0.576198 0.866671 0.123952
H29   H     H_    0.631654 0.707592 0.878099 0.126874
H30   H     H_    0.881217 0.213232 0.000970 0.296119
H31   H     H_    0.192128 0.275937 0.018166 0.317341
H32   H     H_    0.381223 0.713224 0.000973 0.296119
H33   H     H_    0.692058 0.775874 0.018177 0.317313
H34   H     H_    0.386796 0.087064 0.603011 0.105077
H35   H     H_    0.555102 0.999126 0.384841 0.128056
H36   H     H_    0.886795 0.587064 0.603011 0.105077
H37   H     H_    0.055101 0.499126 0.384841 0.128056
H38   H     H_    0.504096 0.324495 0.467212 0.218085
H39   H     H_    0.582686 0.232991 0.555543 0.174882
H40   H     H_    0.004096 0.824495 0.467212 0.218085
H41   H     H_    0.510452 0.000463 0.123578 0.163287
H42   H     H_    0.082686 0.732990 0.555543 0.174882
H43   H     H_    0.655819 0.886613 0.376078 0.128995
H44   H     H_    0.289905 0.808592 0.647719 0.132499
H45   H     H_    0.155819 0.386613 0.376078 0.128992
H46   H     H_    0.789905 0.308592 0.647719 0.132499
H47   H     H_    0.864766 0.793268 0.600381 0.123849
H48   H     H_    0.123598 0.884358 0.387508 0.165266
H49   H     H_    0.364766 0.293267 0.600381 0.123849
H50   H     H_    0.623598 0.384358 0.387508 0.165267
H51   H     H_    0.488237 0.904662 0.956746 0.088388
H52   H     H_    0.978042 0.496190 0.879133 0.127502
H53   H     H_    0.496305 0.906727 0.047179 0.110479
H54   H     H_    0.988227 0.404665 0.956750 0.088388
H55   H     H_    0.996292 0.406732 0.047182 0.110542
H56   H     H_    0.663934 0.850928 0.465001 0.152369
H57   H     H_    0.267149 0.730465 0.566145 0.119739
H58   H     H_    0.163934 0.350929 0.465001 0.152368
H59   H     H_    0.767149 0.230465 0.566145 0.119739
H60   H     H_    0.672883 0.957531 0.549306 0.136079
H61   H     H_    0.302701 0.748784 0.476391 0.120595
H62   H     H_    0.172883 0.457531 0.549306 0.136078
H63   H     H_    0.010441 0.500469 0.123581 0.163286
H64   H     H_    0.802701 0.248784 0.476391 0.120595
H65   H     H_    0.690155 0.909407 0.636848 0.119580
H66   H     H_    0.292426 0.724862 0.386878 0.167363
H67   H     H_    0.190156 0.409407 0.636848 0.119580
H68   H     H_    0.792426 0.224862 0.386878 0.167363
H69   H     H_    0.833657 0.006425 0.471180 0.145383
H70   H     H_    0.213105 0.024260 0.510114 0.165700
H71   H     H_    0.333657 0.506424 0.471180 0.145383
H72   H     H_    0.713105 0.524260 0.510114 0.165701
H73   H     H_    0.482367 0.325193 0.875249 0.138708
H74   H     H_    0.636616 0.926903 0.024066 0.130055
H75   H     H_    0.532385 0.328178 0.121688 0.162882
H76   H     H_    0.982368 0.825193 0.875249 0.138708
H77   H     H_    0.032390 0.828179 0.121688 0.162885
H78   H     H_    0.504022 0.421216 0.952737 0.096054
H79   H     H_    0.518681 0.422537 0.043139 0.118799
H80   H     H_    0.004025 0.921215 0.952736 0.096054
H81   H     H_    0.018685 0.922538 0.043139 0.118799
H82   H     H_    0.639618 0.967981 0.935947 0.118191
H83   H     H_    0.361884 0.903747 0.054751 0.131283
H84   H     H_    0.139618 0.467991 0.935946 0.118192
H85   H     H_    0.326181 0.842677 0.965696 0.166765
H86   H     H_    0.861882 0.403774 0.054753 0.131274
H87   H     H_    0.665956 0.894065 0.854589 0.107446
H88   H     H_    0.332835 0.843001 0.137652 0.157260
H89   H     H_    0.165956 0.394076 0.854587 0.107431
H90   H     H_    0.832836 0.343020 0.137653 0.157248
H91   H     H_    0.824950 0.944295 0.981981 0.114637
H92   H     H_    0.178655 0.988705 0.024104 0.110608
H93   H     H_    0.324948 0.444286 0.981982 0.114631
H94   H     H_    0.678648 0.488696 0.024105 0.110629
H95   H     H_    0.900267 0.025047 0.931307 0.112087
H96   H     H_    0.136612 0.426907 0.024071 0.130115
H97   H     H_    0.867511 0.046727 0.869749 0.136573
H98   H     H_    0.938475 0.984836 0.876543 0.110806
H99   H     H_    0.117721 0.080937 0.079937 0.103014
H100  H     H_    0.148881 0.079927 0.142963 0.128824
H101  H     H_    0.072914 0.041380 0.131172 0.124231
H102  H     H_    0.400267 0.525042 0.931309 0.112093
H103  H     H_    0.367510 0.546725 0.869751 0.136573
H104  H     H_    0.438474 0.484833 0.876544 0.110802
H105  H     H_    0.617743 0.580954 0.079959 0.102999
H106  H     H_    0.648859 0.579874 0.142999 0.128885
H107  H     H_    0.826184 0.342696 0.965700 0.166751
H108  H     H_    0.572897 0.541350 0.131162 0.124212
H109  H     H_    0.671737 0.797374 0.124062 0.129170
H110  H     H_    0.607535 0.803509 0.081287 0.094030
H111  H     H_    0.596532 0.798299 0.146852 0.133593
H112  H     H_    0.371939 0.741890 0.906560 0.134139
H113  H     H_    0.411714 0.861891 0.896722 0.083644
H114  H     H_    0.400980 0.773212 0.846937 0.131263
H115  H     H_    0.171825 0.297575 0.124408 0.129306
H116  H     H_    0.107881 0.303306 0.081358 0.093955
H117  H     H_    0.096477 0.298378 0.146870 0.133484
H118  H     H_    0.519522 0.322730 0.377497 0.158452
H119  H     H_    0.871936 0.241895 0.906566 0.134145
H120  H     H_    0.911714 0.361894 0.896734 0.083636
H121  H     H_    0.900985 0.273221 0.846945 0.131263
H122  H     H_    0.351109 0.981795 0.543924 0.122475
H123  H     H_    0.425448 0.928175 0.533902 0.125419
H124  H     H_    0.372326 0.939176 0.483683 0.147091
H125  H     H_    0.555456 0.861254 0.435239 0.116667
H126  H     H_    0.477025 0.902648 0.438772 0.133519
H127  H     H_    0.511769 0.833067 0.488615 0.155393
H128  H     H_    0.851109 0.481795 0.543924 0.122475
O1    O     O_R   0.769900 0.064540 0.196060 -0.482595
O2    O     O_R   0.433710 0.069580 0.694600 -0.512767
O3    O     O_R   0.066290 0.569580 0.305400 -0.523620
O4    O     O_R   0.933710 0.569580 0.694600 -0.512766
O5    O     O_R   0.680760 0.993330 0.302620 -0.514843
O6    O     O_R   0.319240 0.993330 0.697380 -0.508719
O7    O     O_R   0.180760 0.493330 0.302620 -0.514846
O8    O     O_R   0.819240 0.493330 0.697380 -0.508719
O9    O     O_3   0.668770 0.168760 0.250420 -0.308669
O10   O     O_3   0.331230 0.168760 0.749580 -0.296810
O11   O     O_3   0.168770 0.668760 0.250420 -0.308650
O12   O     O_R   0.230100 0.064540 0.803940 -0.503427
O13   O     O_3   0.831230 0.668760 0.749580 -0.296813
O14   O     O_R   0.750800 0.274080 0.199250 -0.504156
O15   O     O_R   0.249200 0.274080 0.800750 -0.493563
O16   O     O_R   0.250800 0.774080 0.199250 -0.504159
O17   O     O_R   0.749200 0.774080 0.800750 -0.493563
O18   O     O_R   0.669990 0.371670 0.194150 -0.461387
O19   O     O_R   0.330010 0.371670 0.805850 -0.475867
O20   O     O_R   0.169990 0.871670 0.194150 -0.461373
O21   O     O_R   0.830010 0.871670 0.805850 -0.475864
O22   O     O_R   0.574600 0.238480 0.197800 -0.496945
O23   O     O_R   0.269900 0.564540 0.196060 -0.482584
O24   O     O_R   0.425400 0.238480 0.802200 -0.484472
O25   O     O_R   0.074600 0.738480 0.197800 -0.496948
O26   O     O_R   0.925400 0.738480 0.802200 -0.484473
O27   O     O_R   0.566130 0.068680 0.194240 -0.486685
O28   O     O_R   0.433870 0.068680 0.805760 -0.529175
O29   O     O_R   0.066130 0.568680 0.194240 -0.486674
O30   O     O_R   0.933870 0.568680 0.805760 -0.529173
O31   O     O_R   0.680610 0.992490 0.199570 -0.452178
O32   O     O_R   0.319390 0.992490 0.800430 -0.448824
O33   O     O_R   0.180610 0.492490 0.199570 -0.452290
O34   O     O_R   0.730100 0.564540 0.803940 -0.503429
O35   O     O_R   0.819390 0.492490 0.800430 -0.448817
O36   O     O_R   0.770060 0.065440 0.307230 -0.493716
O37   O     O_R   0.229940 0.065440 0.692770 -0.458963
O38   O     O_R   0.270060 0.565440 0.307230 -0.493714
O39   O     O_R   0.729940 0.565440 0.692770 -0.458964
O40   O     O_R   0.750960 0.274920 0.302300 -0.499438
O41   O     O_R   0.249040 0.274920 0.697700 -0.496875
O42   O     O_R   0.250960 0.774920 0.302300 -0.499438
O43   O     O_R   0.749040 0.774920 0.697700 -0.496874
O44   O     O_R   0.670160 0.372580 0.305320 -0.508623
O45   O     O_R   0.574760 0.239320 0.300850 -0.521077
O46   O     O_R   0.329840 0.372580 0.694680 -0.513715
O47   O     O_R   0.170160 0.872580 0.305320 -0.508627
O48   O     O_R   0.829840 0.872580 0.694680 -0.513715
O49   O     O_3   0.866452 0.894952 0.895872 -0.553587
O50   O     O_3   0.136238 0.936502 0.109794 -0.561107
O51   O     O_3   0.366451 0.394948 0.895873 -0.553588
O52   O     O_3   0.636234 0.436485 0.109791 -0.561111
O53   O     O_3   0.625055 0.937337 0.120888 -0.541310
O54   O     O_3   0.324655 0.851336 0.866068 -0.517292
O55   O     O_3   0.125040 0.437374 0.120878 -0.541382
O56   O     O_R   0.425240 0.239320 0.699150 -0.509087
O57   O     O_3   0.824660 0.351348 0.866071 -0.517292
O58   O     O_3   0.409570 0.075814 0.505440 -0.542300
O59   O     O_3   0.539343 0.982344 0.483443 -0.584932
O60   O     O_3   0.909569 0.575814 0.505440 -0.542299
O61   O     O_3   0.039342 0.482344 0.483443 -0.584931
O62   O     O_2   0.911510 0.836596 0.512987 -0.559151
O63   O     O_R   0.843139 0.766266 0.459902 -0.647023
O64   O     O_2   0.083093 0.978197 0.460178 -0.520016
O65   O     O_R   0.106689 0.908725 0.534830 -0.715468
O66   O     O_2   0.411510 0.336596 0.512987 -0.559150
O67   O     O_R   0.074760 0.739320 0.300850 -0.521077
O68   O     O_R   0.343139 0.266266 0.459902 -0.647025
O69   O     O_2   0.583093 0.478197 0.460178 -0.520016
O70   O     O_R   0.606689 0.408725 0.534830 -0.715468
O71   O     O_2   0.887921 0.073765 0.394601 -0.537188
O72   O     O_R   0.871185 0.964047 0.330597 -0.670308
O73   O     O_2   0.217110 0.186100 0.561751 -0.542713
O74   O     O_R   0.160843 0.142347 0.627912 -0.649208
O75   O     O_2   0.387921 0.573765 0.394601 -0.537187
O76   O     O_R   0.371185 0.464046 0.330597 -0.670315
O77   O     O_2   0.717110 0.686100 0.561751 -0.542713
O78   O     O_R   0.925240 0.739320 0.699150 -0.509087
O79   O     O_R   0.660843 0.642347 0.627912 -0.649208
O80   O     O_3   0.813716 0.122948 0.113339 -0.516394
O81   O     O_3   0.219360 0.169256 0.894172 -0.529986
O82   O     O_3   0.313722 0.622935 0.113340 -0.516388
O83   O     O_3   0.719344 0.669250 0.894170 -0.529994
O84   O     O_2   0.786158 0.164143 0.965470 -0.549802
O85   O     O_R   0.856617 0.175303 0.026417 -0.700457
O86   O     O_2   0.279521 0.177394 0.035458 -0.533426
O87   O     O_R   0.199025 0.227464 0.989617 -0.705223
O88   O     O_2   0.286166 0.664131 0.965469 -0.549812
O89   O     O_R   0.566290 0.069580 0.305400 -0.523620
O90   O     O_R   0.356622 0.675295 0.026419 -0.700457
O91   O     O_2   0.779493 0.677418 0.035454 -0.533419
O92   O     O_R   0.698974 0.727423 0.989622 -0.705251

loop_
_geom_bond_atom_site_label_1
_geom_bond_atom_site_label_2
_ccdc_geom_bond_type
C21   C26   A    
C34   C56   A    
C98   H4    S    
C112  O19   A    
C101  C113  A    
C143  H96   S    
C165  C169  A    
C67   O3    A    
C110  H21   S    
Cr1   O36   S    
C133  C137  A    
C94   H117  S    
Cr2   O6    S    
C2    H73   S    
C107  O75   D    
C154  C158  A    
C138  C143  A    
C75   C150  A    
C29   C33   A    
C49   H66   S    
C41   O47   A    
C117  O90   S    
C79   C90   A    
C39   O40   A    
C116  O87   S    
C146  C150  S    
H8    O63   S    
C28   H71   S    
C104  O70   S    
Cr4   O35   S    
C138  C174  S    
Cr10  O67   S    
C170  H94   S    
C94   H115  S    
C25   C60   S    
C96   O58   S    
C81   C86   A    
C54   C59   A    
Cr9   O24   S    
C45   H49   S    
C99   H6    S    
C115  O85   S    
C193  O1    A    
C130  C134  A    
C112  O15   A    
C65   O89   A    
C130  O82   S    
C80   C83   A    
C190  C199  A    
C25   C29   A    
C27   C31   A    
C140  C144  A    
C28   C32   A    
C47   C64   A    
C147  O25   A    
C167  C171  A    
C116  C133  S    
Cr11  O13   S    
C1    O14   A    
C17   C21   A    
C85   H54   S    
C186  C190  A    
C19   C23   A    
C89   H102  S    
C137  C173  S    
C136  C141  A    
C188  H24   S    
C67   C182  S    
C195  O32   A    
Cr3   O3    S    
C136  C171  S    
C11   C33   A    
C16   C20   A    
C66   O2    A    
C200  C201  S    
C91   H108  S    
C160  C178  A    
C129  C133  A    
C94   O55   S    
C29   H72   S    
C22   C27   A    
C190  H39   S    
C36   C44   A    
C96   H122  S    
C37   C45   A    
C43   C61   A    
C112  C178  S    
C165  O51   S    
C166  O52   S    
C49   C62   A    
C164  O50   S    
C5    H34   S    
C51   C64   A    
Cr7   O17   S    
C128  O20   A    
C53   C58   A    
C65   C180  S    
C82   C85   A    
C191  H40   S    
C1    O18   A    
C118  O91   D    
Cr4   O4    S    
C120  H78   S    
C3    O60   S    
C27   H70   S    
C93   H114  S    
C145  C161  S    
C195  O12   A    
C49   C53   A    
C51   C55   A    
C159  H88   S    
C100  O63   S    
C193  O31   A    
C160  H89   S    
C187  H13   S    
C48   C52   A    
Cr5   O15   S    
Cr5   O37   S    
C73   O39   A    
C157  C162  A    
Cr2   O28   S    
C72   O38   A    
C109  H17   S    
C196  O33   A    
C2    C150  A    
C114  H28   S    
C137  C142  A    
Cr6   O23   S    
Cr12  O27   S    
C128  O16   A    
C81   C101  A    
C85   C86   A    
C23   C59   S    
C186  H2    S    
C84   H53   S    
C6    C182  A    
C77   C82   A    
C117  O88   D    
C89   H104  S    
C192  H42   S    
C86   H55   S    
H33   O92   S    
C77   C172  A    
C114  H29   S    
C13   C57   A    
C75   H1    S    
C91   H106  S    
Cr6   O16   S    
C35   C194  A    
C198  C202  A    
C167  H91   S    
C96   H124  S    
H12   O72   S    
Cr5   O41   S    
C8    C12   A    
C111  H25   S    
Cr2   O2    S    
C50   C63   A    
C139  C176  S    
C105  O71   D    
C33   C108  S    
C98   O60   S    
Cr10  O25   S    
C115  C132  S    
C106  O74   S    
C99   H7    S    
Cr5   O10   S    
C155  C159  A    
C119  H79   S    
C156  C160  A    
C191  C200  A    
C26   H69   S    
C95   H120  S    
C98   H128  S    
C71   O37   A    
C73   O8    A    
Cr11  O48   S    
C88   H99   S    
C6    H37   S    
C108  O77   D    
C15   H45   S    
C123  C127  A    
C83   C84   A    
C132  C136  A    
C162  C179  A    
C46   C120  A    
C71   O6    A    
C97   H125  S    
C23   C28   A    
C131  O83   S    
Cr1   O14   S    
C37   C59   A    
C204  O61   S    
C38   C60   A    
C109  H19   S    
C129  O81   S    
C124  C151  A    
C26   C30   A    
C30   C105  S    
Cr4   O30   S    
C51   H68   S    
C122  H80   S    
C39   O44   A    
C47   H50   S    
C42   O48   A    
C69   O78   A    
C153  O57   S    
C18   C22   A    
C72   O7    A    
C34   C43   A    
C82   C113  A    
C89   O51   S    
C5    C203  A    
C181  C186  A    
C110  H22   S    
Cr3   O7    S    
C111  H26   S    
C69   O4    A    
C57   C101  A    
C8    C70   S    
C77   H52   S    
H14   O74   S    
C188  C192  A    
C18   H57   S    
C144  H107  S    
C14   H44   S    
C43   H47   S    
C169  H93   S    
C87   O49   S    
C185  H118  S    
C35   C79   A    
C154  C171  A    
C24   C172  A    
C92   H109  S    
C70   O5    A    
C154  H82   S    
C54   H62   S    
C128  C177  S    
Cr7   O13   S    
C100  O62   D    
C98   H3    S    
C34   C100  S    
H30   O85   S    
Cr7   O39   S    
C10   C72   S    
C199  C203  A    
C99   H5    S    
C151  O54   S    
Cr11  O21   S    
Cr5   O12   S    
Cr12  O89   S    
Cr6   O42   S    
C157  H86   S    
C141  H74   S    
C52   H60   S    
C15   C19   A    
C39   C64   S    
C102  O65   S    
C156  C174  A    
C50   C54   A    
C40   C63   S    
Cr3   O29   S    
Cr9   O56   S    
C108  O79   S    
C3    C7    A    
Cr7   O34   S    
Cr8   O45   S    
C74   H41   S    
C19   H58   S    
C20   C25   A    
C117  C134  S    
C155  H83   S    
C147  O29   A    
C97   H127  S    
C110  H20   S    
C13   C183  A    
C32   C107  S    
C12   C17   A    
C121  H81   S    
C192  C201  A    
C12   H43   S    
C139  O21   A    
C76   C183  A    
Cr6   O11   S    
Cr4   O13   S    
C68   C113  A    
C111  O82   S    
C55   H64   S    
C55   C60   A    
C87   H95   S    
C41   C62   S    
C4    C180  A    
Cr8   O9    S    
C5    C181  A    
C146  O24   A    
C170  C175  A    
C135  C140  A    
C94   H116  S    
C110  O81   S    
C70   O36   A    
C103  O68   S    
C107  O76   S    
C11   C73   S    
C68   C122  A    
C37   C103  S    
Cr6   O38   S    
Cr11  O26   S    
Cr9   O10   S    
C65   O45   A    
C93   O54   S    
C118  O92   S    
Cr2   O10   S    
Cr8   O18   S    
C9    C14   A    
C6    C204  A    
Cr4   O8    S    
C92   H111  S    
C93   H113  S    
C11   C16   A    
C4    C202  A    
C164  C168  A    
C104  O69   D    
C48   H65   S    
C163  O49   S    
H16   O79   S    
C185  C189  A    
C99   O61   S    
C121  C122  A    
C24   H76   S    
C197  O34   A    
C143  C152  A    
C66   C181  S    
C3    C201  A    
C158  H87   S    
C93   H112  S    
H11   O70   S    
C146  O28   A    
C76   H63   S    
C13   H77   S    
C9    C71   S    
C4    H35   S    
C44   H48   S    
C21   C56   S    
C119  C120  A    
C42   O43   A    
C46   C90   A    
C7    H36   S    
C36   C58   A    
C8    C30   A    
C89   H103  S    
C20   H59   S    
Cr1   O40   S    
C140  C175  S    
C124  C129  A    
C91   H105  S    
C24   C68   A    
C152  O55   S    
C126  C153  A    
C74   C78   A    
Cr12  O5    S    
C123  C193  S    
C118  C135  S    
C189  C198  A    
C142  C151  A    
C123  C149  A    
C109  O80   S    
H9    O65   S    
C1    C179  S    
C14   C18   A    
C103  O66   D    
C35   C119  A    
Cr9   O46   S    
H15   O76   S    
C141  C149  A    
C2    C46   A    
Cr1   O9    S    
C92   O53   S    
C88   O50   S    
C7    C184  A    
C131  C135  A    
C10   C15   A    
C203  O58   S    
C95   H119  S    
H10   O68   S    
C95   H121  S    
C202  O59   S    
C88   H100  S    
C36   C102  S    
C144  C153  A    
C127  C132  A    
C38   C104  S    
Cr9   O19   S    
C125  C130  A    
Cr8   O44   S    
C115  O84   D    
Cr7   O43   S    
C198  C199  S    
C75   C80   A    
C187  C191  A    
C182  C187  A    
C16   H46   S    
C109  H18   S    
C155  C173  A    
C148  O30   A    
C114  H27   S    
C165  C178  A    
Cr3   O33   S    
Cr1   O1    S    
C41   O42   A    
C159  C177  A    
C17   H56   S    
C163  C176  A    
Cr3   O11   S    
C194  H75   S    
C168  C173  A    
C197  O35   A    
C91   O52   S    
C78   C79   A    
C53   H61   S    
C125  C196  S    
C44   C62   A    
C45   C63   A    
C111  H23   S    
C184  C188  A    
C102  O64   D    
C139  O17   A    
C169  C174  A    
C163  C167  A    
C40   O41   A    
C125  C152  A    
C10   C32   A    
C200  C204  A    
Cr12  O9    S    
C95   O57   S    
C149  O53   S    
C96   H123  S    
C42   C61   S    
C145  O27   A    
C38   C47   A    
C189  H38   S    
C157  C175  A    
C92   H110  S    
C126  C197  S    
C158  C176  A    
C87   H98   S    
C88   H101  S    
C31   C106  S    
C162  H90   S    
C105  O72   S    
Cr10  O47   S    
C67   O67   A    
C22   C58   S    
C106  O73   D    
C147  C183  S    
C168  H92   S    
C156  H84   S    
Cr8   O22   S    
C127  O80   S    
C196  O23   A    
C76   C81   A    
C134  C138  A    
C74   C161  A    
Cr2   O32   S    
C116  O86   D    
C142  H85   S    
C50   H67   S    
C83   H51   S    
C145  O22   A    
Cr12  O31   S    
Cr10  O11   S    
C97   O59   S    
C48   C61   A    
C148  O26   A    
C126  C131  A    
C124  C195  S    
C148  C172  S    
C166  C170  A    
C161  C194  A    
C97   H126  S    
C80   C90   A    
C114  O83   S    
Cr11  O78   S    
C180  C185  A    
C9    C31   A    
C69   C184  S    
C57   C121  A    
C78   C84   A    
C66   O56   A    
C87   H97   S    
H32   O90   S    
C166  C179  A    
H31   O87   S    
C40   O46   A    
Cr10  O20   S    
C164  C177  A    
C52   C56   A    
