data_mof_unit_60636.cif
_audit_creation_date              2012-12-10T18:57:50-0500
_audit_creation_method            fapswitch 2.2
_symmetry_space_group_name_H-M    P1
_symmetry_Int_Tables_number       1
_space_group_crystal_system       triclinic
_cell_length_a                    36.958909
_cell_length_b                    30.241379
_cell_length_c                    21.510071
_cell_angle_alpha                 90.005945
_cell_angle_beta                  54.92594
_cell_angle_gamma                 89.999709
_cell_volume                      19675.848968

loop_
_atom_site_label
_atom_site_type_symbol
_atom_type_description
_atom_site_fract_x
_atom_site_fract_y
_atom_site_fract_z
_atom_type_partial_charge
C1    C     C_R   0.913660 0.499972 0.586181 0.863944
C2    C     C_R   0.086339 0.499969 0.413820 0.863936
C3    C     C_R   0.413661 0.999972 0.586181 0.863941
C4    C     C_R   0.586339 0.999969 0.413820 0.863935
C5    C     C_3   0.960005 0.475335 0.255171 -0.410241
C6    C     C_3   0.040028 0.475395 0.744784 -0.410202
C7    C     C_3   0.460008 0.975328 0.255167 -0.410248
C8    C     C_3   0.540026 0.975392 0.744786 -0.410205
C9    C     C_R   0.796789 0.460734 0.689832 -0.206936
C10   C     C_R   0.203214 0.460724 0.310180 -0.206831
C11   C     C_R   0.296789 0.960736 0.689823 -0.206906
C12   C     C_R   0.703214 0.960724 0.310177 -0.206816
C13   C     C_R   0.842587 0.460878 0.643653 -0.198081
C14   C     C_R   0.157416 0.460871 0.356360 -0.198075
C15   C     C_R   0.342587 0.960879 0.643644 -0.198082
C16   C     C_R   0.657416 0.960871 0.356358 -0.198075
C17   C     C_R   0.865679 0.499884 0.634563 -0.035856
C18   C     C_R   0.134321 0.499874 0.365435 -0.035871
C19   C     C_R   0.365679 0.999884 0.634563 -0.035855
C20   C     C_R   0.634321 0.999874 0.365434 -0.035871
C21   C     C_R   0.842624 0.538680 0.672249 -0.212493
C22   C     C_R   0.157372 0.538663 0.327733 -0.212507
C23   C     C_R   0.342625 0.038679 0.672259 -0.212494
C24   C     C_R   0.657372 0.038663 0.327732 -0.212517
C25   C     C_R   0.796809 0.538386 0.718897 -0.095473
C26   C     C_R   0.203187 0.538365 0.281084 -0.095458
C27   C     C_R   0.296809 0.038385 0.718907 -0.095473
C28   C     C_R   0.703187 0.038365 0.281083 -0.095453
C29   C     C_R   0.773968 0.499416 0.727630 0.148018
C30   C     C_R   0.226032 0.499399 0.272367 0.148125
C31   C     C_R   0.273968 0.999417 0.727629 0.148048
C32   C     C_R   0.726032 0.999400 0.272364 0.148130
C33   C     C_R   0.703262 0.509395 0.853761 0.550314
C34   C     C_R   0.296734 0.509346 0.146232 0.550333
C35   C     C_R   0.203262 0.009386 0.853764 0.550320
C36   C     C_R   0.796735 0.009358 0.146233 0.550336
C37   C     C_R   0.657272 0.510032 0.898606 -0.288013
C38   C     C_R   0.342724 0.509989 0.101387 -0.288112
C39   C     C_R   0.157273 0.010023 0.898609 -0.288044
C40   C     C_R   0.842725 0.010001 0.101389 -0.288128
C41   C     C_R   0.634222 0.499399 0.866835 -0.106125
C42   C     C_R   0.365777 0.499391 0.133164 -0.106100
C43   C     C_R   0.134223 0.999399 0.866835 -0.106116
C44   C     C_R   0.865777 0.999392 0.133164 -0.106084
C45   C     C_R   0.000501 0.500274 0.378072 0.901522
C46   C     C_R   0.999493 0.500277 0.621934 0.901590
C47   C     C_R   0.500501 0.000274 0.378072 0.901512
C48   C     C_R   0.499493 0.000277 0.621933 0.901586
C49   C     C_R   0.657278 0.488215 0.789834 -0.190653
C50   C     C_R   0.342724 0.488235 0.210172 -0.190635
C51   C     C_R   0.157278 0.988226 0.789829 -0.190640
C52   C     C_R   0.842724 0.988225 0.210167 -0.190632
C53   C     C_R   0.703066 0.487961 0.744742 -0.258193
C54   C     C_R   0.296936 0.487976 0.255264 -0.258246
C55   C     C_R   0.203066 0.987973 0.744737 -0.258210
C56   C     C_R   0.796935 0.987967 0.255258 -0.258252
C57   C     C_R   0.726065 0.499052 0.776221 -0.020186
C58   C     C_R   0.273934 0.499034 0.223778 -0.020163
C59   C     C_R   0.226065 0.999054 0.776220 -0.020179
C60   C     C_R   0.773935 0.999035 0.223775 -0.020153
C61   C     C_R   0.999998 0.586224 0.000000 0.874917
C62   C     C_R   0.499998 0.086224 0.000000 0.874910
C63   C     C_R   0.000203 0.498240 0.121145 0.907794
C64   C     C_R   0.999797 0.498247 0.878853 0.907875
C65   C     C_R   0.500203 0.998239 0.121145 0.907785
C66   C     C_R   0.499797 0.998247 0.878853 0.907872
C67   C     C_R   0.000002 0.413657 0.999999 0.843466
C68   C     C_R   0.500001 0.913657 0.999999 0.843465
C69   C     C_R   0.500000 0.413999 0.999997 0.900437
C70   C     C_R   1.000000 0.913999 0.999997 0.900445
C71   C     C_R   0.586214 0.499854 0.914068 0.895431
C72   C     C_R   0.413785 0.499853 0.085932 0.895430
C73   C     C_R   0.086214 0.999854 0.914068 0.895433
C74   C     C_R   0.913785 0.999853 0.085932 0.895430
C75   C     C_R   0.500000 0.586214 0.000003 0.868701
C76   C     C_R   0.000000 0.086214 0.000003 0.868700
C77   C     C_R   0.038204 0.703043 0.979655 -0.182499
C78   C     C_R   0.961780 0.703041 0.020325 -0.182515
C79   C     C_R   0.538210 0.203043 0.979626 -0.182504
C80   C     C_R   0.461775 0.203041 0.020354 -0.182523
C81   C     C_3   0.002253 0.550347 0.282372 0.372696
C82   C     C_3   0.997682 0.550354 0.717703 0.372671
C83   C     C_3   0.502245 0.050347 0.282380 0.372695
C84   C     C_3   0.497685 0.050355 0.717700 0.372670
C85   C     C_R   0.038262 0.657221 0.979384 -0.208909
C86   C     C_R   0.961726 0.657219 0.020608 -0.208995
C87   C     C_R   0.538267 0.157221 0.979355 -0.208901
C88   C     C_R   0.461720 0.157219 0.020637 -0.208992
C89   C     C_R   0.999995 0.634177 0.999999 -0.036414
C90   C     C_R   0.499995 0.134177 0.999999 -0.036430
C91   C     C_R   0.999992 0.726102 0.999987 0.140426
C92   C     C_R   0.499992 0.226102 0.999986 0.140432
C93   C     C_R   0.464451 0.297203 0.061290 -0.177695
C94   C     C_R   0.535531 0.297193 0.938680 -0.177706
C95   C     C_R   0.964443 0.797203 0.061278 -0.177691
C96   C     C_R   0.035538 0.797193 0.938693 -0.177704
C97   C     C_R   0.463958 0.343222 0.061944 0.150714
C98   C     C_R   0.536029 0.343211 0.938033 0.150721
C99   C     C_R   0.963951 0.843222 0.061932 0.150717
C100  C     C_R   0.036036 0.843212 0.938046 0.150718
C101  C     C_R   0.499996 0.366194 0.999992 -0.050360
C102  C     C_R   0.999996 0.866194 0.999992 -0.050345
C103  C     C_R   0.499990 0.274275 0.999984 0.009261
C104  C     C_R   0.999990 0.774275 0.999985 0.009254
C105  C     C_R   0.038122 0.296825 0.980237 -0.180997
C106  C     C_R   0.961889 0.296824 0.019784 -0.181005
C107  C     C_R   0.538122 0.796825 0.980237 -0.180997
C108  C     C_R   0.461889 0.796825 0.019784 -0.181006
C109  C     C_R   0.038224 0.342648 0.979782 -0.199734
C110  C     C_R   0.961785 0.342648 0.020228 -0.199722
C111  C     C_R   0.538224 0.842648 0.979783 -0.199734
C112  C     C_R   0.461785 0.842648 0.020228 -0.199721
C113  C     C_R   0.000004 0.365699 0.000002 -0.023927
C114  C     C_R   0.500004 0.865699 0.000002 -0.023927
C115  C     C_3   0.999412 0.550380 0.211991 0.582324
C116  C     C_3   0.000514 0.550391 0.788094 0.582301
C117  C     C_3   0.499404 0.050379 0.211999 0.582326
C118  C     C_3   0.500518 0.050391 0.788091 0.582298
C119  C     C_R   0.000006 0.273922 0.000012 0.112965
C120  C     C_R   0.500006 0.773922 0.000012 0.112966
C121  C     C_R   0.487231 0.703081 0.959060 -0.179053
C122  C     C_R   0.512783 0.703083 0.040954 -0.179051
C123  C     C_R   0.987231 0.203081 0.959060 -0.179053
C124  C     C_R   0.012783 0.203083 0.040954 -0.179050
C125  C     C_R   0.487472 0.657258 0.958672 -0.190482
C126  C     C_R   0.512536 0.657258 0.041341 -0.190480
C127  C     C_R   0.987472 0.157257 0.958673 -0.190484
C128  C     C_R   0.012536 0.157258 0.041341 -0.190481
C129  C     C_R   0.500002 0.634194 0.000006 -0.028750
C130  C     C_R   0.000002 0.134194 0.000007 -0.028749
C131  C     C_R   0.500007 0.725984 0.000008 0.111506
C132  C     C_R   0.000007 0.225984 0.000008 0.111506
C133  C     C_3   0.042394 0.474269 0.243965 0.017993
C134  C     C_3   0.957632 0.474236 0.756003 0.018042
C135  C     C_3   0.542397 0.974274 0.243963 0.017989
C136  C     C_3   0.457631 0.974238 0.756004 0.018036
C137  C     C_3   0.959108 0.478585 0.327042 -0.594650
C138  C     C_3   0.040913 0.478639 0.672925 -0.594715
C139  C     C_3   0.459111 0.978579 0.327039 -0.594643
C140  C     C_3   0.540912 0.978636 0.672926 -0.594710
C141  C     C_3   0.001847 0.501355 0.308466 0.017846
C142  C     C_3   0.998146 0.501363 0.691540 0.017867
C143  C     C_3   0.501846 0.001355 0.308467 0.017847
C144  C     C_3   0.498147 0.001363 0.691539 0.017867
C145  C     C_3   0.001022 0.500464 0.188499 0.028509
C146  C     C_3   0.998975 0.500473 0.811502 0.028520
C147  C     C_3   0.501022 0.000464 0.188499 0.028509
C148  C     C_3   0.498975 0.000473 0.811502 0.028519
C149  C     C_3   0.042838 0.475909 0.172023 -0.494990
C150  C     C_3   0.957194 0.475866 0.827940 -0.495068
C151  C     C_3   0.542841 0.975915 0.172020 -0.494982
C152  C     C_3   0.457193 0.975868 0.827942 -0.495063
H1    H     H_    0.961371 0.439920 0.239714 0.170468
H2    H     H_    0.038716 0.439981 0.760184 0.170498
H3    H     H_    0.461381 0.939914 0.239704 0.170465
H4    H     H_    0.538713 0.939978 0.760188 0.170496
H5    H     H_    0.037258 0.439109 0.262893 0.174899
H6    H     H_    0.962806 0.439082 0.737019 0.174920
H7    H     H_    0.537265 0.939114 0.262886 0.174897
H8    H     H_    0.462802 0.939084 0.737022 0.174919
H9    H     H_    0.043184 0.441411 0.153485 0.161457
H10   H     H_    0.956902 0.441366 0.846405 0.161437
H11   H     H_    0.543193 0.941418 0.153475 0.161459
H12   H     H_    0.456898 0.941368 0.846409 0.161438
H13   H     H_    0.779111 0.430492 0.696709 0.136260
H14   H     H_    0.220896 0.430485 0.303314 0.136236
H15   H     H_    0.279110 0.930496 0.696693 0.136255
H16   H     H_    0.720896 0.930486 0.303311 0.136236
H17   H     H_    0.859853 0.430643 0.614792 0.156185
H18   H     H_    0.140152 0.430643 0.385234 0.156166
H19   H     H_    0.359853 0.930646 0.614776 0.156180
H20   H     H_    0.640153 0.930643 0.385232 0.156166
H21   H     H_    0.859938 0.569043 0.666145 0.157711
H22   H     H_    0.140056 0.569023 0.333825 0.157735
H23   H     H_    0.359938 0.069040 0.666162 0.157712
H24   H     H_    0.640055 0.069023 0.333824 0.157739
H25   H     H_    0.779131 0.568462 0.747824 0.146781
H26   H     H_    0.220862 0.568435 0.252146 0.146760
H27   H     H_    0.279132 0.068460 0.747841 0.146776
H28   H     H_    0.720861 0.068437 0.252146 0.146777
H29   H     H_    0.639796 0.519012 0.957979 0.174356
H30   H     H_    0.360198 0.518946 0.042008 0.174330
H31   H     H_    0.139797 0.018995 0.957986 0.174348
H32   H     H_    0.860200 0.018967 0.042015 0.174320
H33   H     H_    0.639969 0.479583 0.764541 0.167533
H34   H     H_    0.360034 0.479631 0.235472 0.167544
H35   H     H_    0.139970 0.979602 0.764532 0.167533
H36   H     H_    0.860034 0.979612 0.235464 0.167538
H37   H     H_    0.971421 0.566049 0.331006 0.072832
H38   H     H_    0.028498 0.566087 0.669098 0.072883
H39   H     H_    0.471411 0.066045 0.331016 0.072825
H40   H     H_    0.528502 0.066086 0.669094 0.072881
H41   H     H_    0.720647 0.479647 0.685069 0.159331
H42   H     H_    0.279357 0.479686 0.314943 0.159327
H43   H     H_    0.220648 0.979666 0.685061 0.159329
H44   H     H_    0.779356 0.979668 0.314933 0.159325
H45   H     H_    0.067777 0.720478 0.964808 0.132251
H46   H     H_    0.932206 0.720475 0.035169 0.132248
H47   H     H_    0.567787 0.220478 0.964755 0.132250
H48   H     H_    0.432196 0.220475 0.035221 0.132247
H49   H     H_    0.067988 0.639875 0.963971 0.156716
H50   H     H_    0.932001 0.639871 0.036026 0.156710
H51   H     H_    0.567998 0.139876 0.963919 0.156728
H52   H     H_    0.431991 0.139871 0.036077 0.156722
H53   H     H_    0.437281 0.279090 0.108878 0.139067
H54   H     H_    0.562699 0.279072 0.891090 0.139065
H55   H     H_    0.937268 0.779091 0.108856 0.139069
H56   H     H_    0.062712 0.779073 0.891112 0.139069
H57   H     H_    0.067793 0.279212 0.964490 0.133160
H58   H     H_    0.932218 0.279213 0.035534 0.133164
H59   H     H_    0.567793 0.779212 0.964490 0.133161
H60   H     H_    0.432219 0.779212 0.035534 0.133164
H61   H     H_    0.067962 0.359987 0.964316 0.152424
H62   H     H_    0.932046 0.359986 0.035691 0.152431
H63   H     H_    0.567962 0.859987 0.964316 0.152424
H64   H     H_    0.432046 0.859986 0.035690 0.152431
H65   H     H_    0.477541 0.720694 0.926931 0.132040
H66   H     H_    0.522474 0.720696 0.073083 0.132037
H67   H     H_    0.977541 0.220694 0.926932 0.132040
H68   H     H_    0.022474 0.220696 0.073083 0.132036
H69   H     H_    0.477530 0.639934 0.926686 0.154553
H70   H     H_    0.522476 0.639935 0.073326 0.154548
H71   H     H_    0.977529 0.139934 0.926687 0.154552
H72   H     H_    0.022476 0.139935 0.073326 0.154548
H73   H     H_    0.073722 0.491178 0.123835 0.207692
H74   H     H_    0.926289 0.491092 0.876165 0.207689
H75   H     H_    0.573723 0.991191 0.123835 0.207692
H76   H     H_    0.426288 0.991096 0.876165 0.207689
H77   H     H_    0.955758 0.444716 0.350116 0.211680
H78   H     H_    0.044300 0.444771 0.649810 0.211664
H79   H     H_    0.455765 0.944710 0.350110 0.211682
H80   H     H_    0.544298 0.944769 0.649813 0.211666
H81   H     H_    0.929508 0.497709 0.371305 0.189843
H82   H     H_    0.070490 0.497789 0.628680 0.189835
H83   H     H_    0.429508 0.997699 0.371304 0.189842
H84   H     H_    0.570490 0.997785 0.628681 0.189834
H85   H     H_    0.928466 0.488855 0.267681 0.240188
H86   H     H_    0.071548 0.488960 0.732288 0.240192
H87   H     H_    0.428467 0.988842 0.267678 0.240188
H88   H     H_    0.571547 0.988955 0.732289 0.240191
O1    O     O_R   0.934520 0.536930 0.565470 -0.626679
O2    O     O_R   0.065480 0.536930 0.434530 -0.626657
O3    O     O_R   0.434520 0.036930 0.565470 -0.626680
O4    O     O_R   0.565480 0.036930 0.434530 -0.626658
O5    O     O_R   0.565440 0.499980 0.882290 -0.625096
O6    O     O_R   0.434560 0.499980 0.117710 -0.625107
O7    O     O_R   0.065440 0.999980 0.882290 -0.625100
O8    O     O_R   0.934560 0.999980 0.117710 -0.625105
O9    O     O_R   0.565450 0.499990 0.986830 -0.627355
O10   O     O_R   0.434550 0.499990 0.013170 -0.627360
O11   O     O_R   0.065450 0.999990 0.986830 -0.627358
O12   O     O_R   0.934550 0.999990 0.013170 -0.627362
O13   O     O_R   0.500010 0.565460 0.947720 -0.624988
O14   O     O_R   0.499990 0.565460 0.052280 -0.624991
O15   O     O_R   0.000010 0.065460 0.947720 -0.624990
O16   O     O_R   0.999990 0.065460 0.052280 -0.624991
O17   O     O_R   0.934480 0.463010 0.565510 -0.628319
O18   O     O_R   0.065520 0.463010 0.434490 -0.628298
O19   O     O_R   0.434480 0.963010 0.565510 -0.628316
O20   O     O_R   0.565520 0.963010 0.434490 -0.628297
O21   O     O_R   0.999990 0.536930 0.407410 -0.614347
O22   O     O_R   0.000010 0.536930 0.592590 -0.614417
O23   O     O_R   0.499990 0.036930 0.407410 -0.614338
O24   O     O_R   0.500010 0.036930 0.592590 -0.614414
O25   O     O_R   0.999940 0.463010 0.407450 -0.636580
O26   O     O_R   0.000060 0.463010 0.592550 -0.636594
O27   O     O_R   0.499940 0.963010 0.407450 -0.636579
O28   O     O_R   0.500060 0.963010 0.592550 -0.636593
O29   O     O_R   0.963000 0.565420 0.036990 -0.618465
O30   O     O_R   0.037000 0.565420 0.963010 -0.618428
O31   O     O_R   0.463000 0.065420 0.036990 -0.618469
O32   O     O_R   0.537000 0.065420 0.963010 -0.618431
O33   O     O_R   0.963020 0.499940 0.129580 -0.594997
O34   O     O_R   0.036980 0.499940 0.870420 -0.595080
O35   O     O_R   0.463020 0.999940 0.129580 -0.594987
O36   O     O_R   0.536980 0.999940 0.870420 -0.595076
O37   O     O_R   0.036940 0.500000 0.055660 -0.646034
O38   O     O_R   0.963060 0.500000 0.944340 -0.646040
O39   O     O_R   0.536940 1.000000 0.055660 -0.646033
O40   O     O_R   0.463060 1.000000 0.944340 -0.646039
O41   O     O_R   0.963020 0.434470 0.036970 -0.633050
O42   O     O_R   0.036980 0.434470 0.963030 -0.633050
O43   O     O_R   0.463020 0.934470 0.036970 -0.633050
O44   O     O_R   0.536980 0.934470 0.963030 -0.633050
O45   O     O_R   0.499930 0.434510 0.947790 -0.622356
O46   O     O_R   0.500070 0.434510 0.052210 -0.622351
O47   O     O_R   0.999930 0.934510 0.947790 -0.622355
O48   O     O_R   0.000070 0.934510 0.052210 -0.622353
Zn1   Zn    Zn3+2 0.000000 0.549330 0.500000 0.918291
Zn2   Zn    Zn3+2 0.500000 0.049330 0.500000 0.918293
Zn3   Zn    Zn3+2 0.000000 0.450610 0.500000 0.926858
Zn4   Zn    Zn3+2 0.500000 0.950610 0.500000 0.926860
Zn5   Zn    Zn3+2 0.950610 0.499940 0.049380 0.947390
Zn6   Zn    Zn3+2 0.049390 0.499940 0.950620 0.947372
Zn7   Zn    Zn3+2 0.450610 0.999940 0.049380 0.947390
Zn8   Zn    Zn3+2 0.549390 0.999940 0.950620 0.947370
Zn9   Zn    Zn3+2 0.499970 0.499980 0.930220 0.940422
Zn10  Zn    Zn3+2 0.500030 0.499980 0.069780 0.940430
Zn11  Zn    Zn3+2 0.999970 0.999980 0.930220 0.940418
Zn12  Zn    Zn3+2 0.000030 0.999980 0.069780 0.940429
O49   O     O_3   0.041028 0.572373 0.265684 -0.609449
C153  C     C_3   0.031918 0.614444 0.300442 -0.303050
H89   H     H_    0.004124 0.613979 0.361659 0.164778
H90   H     H_    0.025462 0.639152 0.269964 0.137746
H91   H     H_    0.061659 0.625668 0.296774 0.189480
O50   O     O_3   0.958884 0.572341 0.734410 -0.609479
C154  C     C_3   0.967948 0.614418 0.699704 -0.303108
H92   H     H_    0.995749 0.613979 0.638491 0.164782
H93   H     H_    0.974365 0.639136 0.730227 0.137770
H94   H     H_    0.938198 0.625607 0.703368 0.189499
O51   O     O_3   0.541017 0.072378 0.265692 -0.609446
C155  C     C_3   0.531902 0.114448 0.300456 -0.303046
H95   H     H_    0.504109 0.113979 0.361674 0.164777
H96   H     H_    0.525441 0.139155 0.269982 0.137745
H97   H     H_    0.561642 0.125677 0.296788 0.189479
O52   O     O_3   0.458889 0.072343 0.734406 -0.609478
C156  C     C_3   0.467954 0.114420 0.699698 -0.303107
H98   H     H_    0.495755 0.113979 0.638485 0.164782
H99   H     H_    0.474373 0.139138 0.730219 0.137770
H100  H     H_    0.438205 0.125611 0.703362 0.189497
O53   O     O_3   0.725813 0.520809 0.885027 -0.615775
C157  C     C_3   0.730795 0.482533 0.916829 -0.328788
H101  H     H_    0.749980 0.456580 0.872953 0.163848
H102  H     H_    0.698154 0.469285 0.964047 0.158620
H103  H     H_    0.749572 0.491405 0.940793 0.197268
O54   O     O_3   0.274175 0.520726 0.114969 -0.615763
C158  C     C_3   0.269300 0.482453 0.083019 -0.328760
H104  H     H_    0.250200 0.456433 0.126789 0.163764
H105  H     H_    0.301976 0.469306 0.035734 0.158628
H106  H     H_    0.250487 0.491289 0.059109 0.197253
O55   O     O_3   0.225815 0.020791 0.885029 -0.615772
C159  C     C_3   0.230771 0.982516 0.916866 -0.328772
H107  H     H_    0.249928 0.956542 0.873017 0.163816
H108  H     H_    0.198121 0.969299 0.964108 0.158627
H109  H     H_    0.249564 0.991376 0.940804 0.197263
O56   O     O_3   0.774176 0.020750 0.114975 -0.615775
C160  C     C_3   0.769320 0.982488 0.082976 -0.328773
H110  H     H_    0.750232 0.956449 0.126715 0.163756
H111  H     H_    0.802003 0.969363 0.035675 0.158637
H112  H     H_    0.750501 0.991332 0.059078 0.197256
C161  C     C_3   0.424591 0.367156 0.127868 -0.913967
H113  H     H_    0.410057 0.389569 0.106784 0.232530
H114  H     H_    0.398384 0.343808 0.168943 0.232984
H115  H     H_    0.434892 0.386794 0.158797 0.256674
C162  C     C_3   0.575399 0.367134 0.872113 -0.913990
H116  H     H_    0.589935 0.389545 0.893199 0.232531
H117  H     H_    0.601604 0.343778 0.831037 0.232988
H118  H     H_    0.565099 0.386771 0.841185 0.256668
C163  C     C_3   0.924577 0.867157 0.127841 -0.913997
H119  H     H_    0.910051 0.889568 0.106739 0.232534
H120  H     H_    0.898366 0.843810 0.168909 0.232993
H121  H     H_    0.934867 0.886798 0.158783 0.256665
C164  C     C_3   0.075413 0.867135 0.872140 -0.914009
H122  H     H_    0.089941 0.889544 0.893243 0.232534
H123  H     H_    0.101621 0.843779 0.831070 0.232996
H124  H     H_    0.065124 0.886774 0.841199 0.256661
O57   O     O_3   0.957107 0.566657 0.234064 -0.622025
C165  C     C_3   0.951747 0.613022 0.243070 -0.332289
H125  H     H_    0.968570 0.629667 0.186978 0.188563
H126  H     H_    0.962827 0.626803 0.277127 0.139066
H127  H     H_    0.916006 0.620608 0.274103 0.193115
O58   O     O_3   0.042794 0.566722 0.766064 -0.622083
C166  C     C_3   0.048088 0.613094 0.757135 -0.332304
H128  H     H_    0.031233 0.629720 0.813254 0.188567
H129  H     H_    0.037001 0.626858 0.723083 0.139087
H130  H     H_    0.083818 0.620725 0.726133 0.193133
O59   O     O_3   0.457095 0.066649 0.234075 -0.622018
C167  C     C_3   0.451728 0.113014 0.243090 -0.332290
H131  H     H_    0.468547 0.129662 0.187001 0.188563
H132  H     H_    0.462807 0.126796 0.277148 0.139063
H133  H     H_    0.415986 0.120594 0.274126 0.193111
O60   O     O_3   0.542798 0.066719 0.766060 -0.622079
C168  C     C_3   0.548096 0.113091 0.757128 -0.332308
H134  H     H_    0.531242 0.129718 0.813246 0.188567
H135  H     H_    0.537009 0.126856 0.723075 0.139087
H136  H     H_    0.583825 0.120720 0.726125 0.193130
C169  C     C_3   0.037987 0.577549 0.143515 -0.837682
H137  H     H_    0.070840 0.563162 0.121250 0.230730
H138  H     H_    0.033763 0.579839 0.096612 0.226439
H139  H     H_    0.039025 0.611987 0.159822 0.226947
C170  C     C_3   0.961897 0.577512 0.856610 -0.837650
H140  H     H_    0.929066 0.563082 0.878847 0.230720
H141  H     H_    0.966115 0.579815 0.903520 0.226488
H142  H     H_    0.960810 0.611947 0.840353 0.226953
C171  C     C_3   0.537974 0.077554 0.143526 -0.837676
H143  H     H_    0.570829 0.063173 0.121260 0.230729
H144  H     H_    0.533749 0.079843 0.096624 0.226437
H145  H     H_    0.539006 0.111993 0.159839 0.226947
C172  C     C_3   0.461902 0.077514 0.856605 -0.837643
H146  H     H_    0.429070 0.063086 0.878843 0.230719
H147  H     H_    0.466119 0.079817 0.903515 0.226490
H148  H     H_    0.460817 0.111949 0.840346 0.226954
C173  C     C_3   0.087807 0.487358 0.226270 -0.822895
H149  H     H_    0.099736 0.519367 0.195868 0.286510
H150  H     H_    0.086791 0.489074 0.278719 0.238215
H151  H     H_    0.112637 0.461881 0.188896 0.215973
C174  C     C_3   0.912201 0.487286 0.773731 -0.822951
H152  H     H_    0.900237 0.519279 0.804194 0.286493
H153  H     H_    0.913212 0.489016 0.721289 0.238246
H154  H     H_    0.887402 0.461782 0.811061 0.215948
C175  C     C_3   0.587808 0.987370 0.226271 -0.822893
H155  H     H_    0.599733 0.019380 0.195875 0.286511
H156  H     H_    0.586791 0.989084 0.278721 0.238213
H157  H     H_    0.612642 0.961896 0.188892 0.215976
C176  C     C_3   0.412201 0.987291 0.773731 -0.822937
H158  H     H_    0.400239 0.019284 0.804191 0.286493
H159  H     H_    0.413212 0.989020 0.721289 0.238245
H160  H     H_    0.387400 0.961788 0.811062 0.215953

loop_
_geom_bond_atom_site_label_1
_geom_bond_atom_site_label_2
_ccdc_geom_bond_type
O18   Zn3   S    
C157  H102  S    
C124  H68   S    
O57   C165  S    
C55   C59   A    
C108  C120  A    
C151  H75   S    
C14   H18   S    
C75   O14   A    
C128  H72   S    
C79   C87   A    
C160  H110  S    
O49   C153  S    
C6    H86   S    
C111  H63   S    
C116  C170  S    
C174  H153  S    
C6    C146  S    
C95   C99   A    
C96   H56   S    
C157  H103  S    
O6    Zn10  S    
C106  H58   S    
C47   C143  S    
O40   Zn7   S    
O60   C168  S    
C48   C144  S    
C165  H127  S    
C72   O6    A    
C76   O15   A    
C9    C13   A    
C169  H139  S    
C22   H22   S    
C146  C150  S    
C11   C15   A    
C12   C16   A    
C3    C19   S    
O54   C158  S    
O28   Zn4   S    
C86   H50   S    
O29   Zn5   S    
C68   O43   A    
C45   O25   A    
C69   O46   A    
C4    O20   A    
C11   H15   S    
C41   C49   A    
C167  H131  S    
C164  H123  S    
C25   C29   A    
C135  H7    S    
C27   C31   A    
C28   C32   A    
C168  H136  S    
O2    Zn1   S    
C126  C129  A    
C17   C21   A    
O52   C156  S    
C80   C92   A    
C156  H100  S    
C19   C23   A    
C10   C30   A    
C16   C20   A    
C37   H29   S    
C42   C72   S    
O50   C154  S    
O48   Zn12  S    
C33   O53   S    
C162  H118  S    
C44   C74   S    
C28   H28   S    
C81   H37   S    
C8    H88   S    
O47   Zn11  S    
C21   H21   S    
C96   C104  A    
C139  H83   S    
C172  H146  S    
C71   O5    A    
C24   H24   S    
C123  C127  A    
C160  H112  S    
C98   C162  S    
C47   O27   A    
C77   C91   A    
C64   C146  S    
O56   C160  S    
C135  C175  S    
C81   O49   S    
C5    C137  S    
C73   O7    A    
C69   C101  S    
C173  H149  S    
O11   Zn12  S    
C8    C140  S    
C83   C117  S    
C80   C88   A    
C176  H158  S    
C83   C143  S    
C3    O19   A    
C118  C148  S    
C51   C55   A    
C84   O52   S    
O1    Zn1   S    
C4    C20   S    
C125  C129  A    
C107  H59   S    
O53   C157  S    
C34   C58   A    
C94   C98   A    
C139  H79   S    
C78   H46   S    
C71   O9    A    
C167  H133  S    
C171  H144  S    
C43   C73   S    
O20   Zn4   S    
C122  C126  A    
C163  H119  S    
C54   H42   S    
C123  C132  A    
C94   H54   S    
C67   O41   A    
C93   C103  A    
C112  C114  A    
C175  H155  S    
C133  C173  S    
C118  C172  S    
C21   C25   A    
C155  H97   S    
O27   Zn4   S    
C110  H62   S    
C66   C148  S    
O36   Zn8   S    
C49   C53   A    
O58   C166  S    
C84   C144  S    
C31   C59   S    
C155  H95   S    
C124  C132  A    
C82   H38   S    
O41   Zn5   S    
C76   C130  S    
C63   O33   A    
C64   O38   A    
C170  H142  S    
O13   Zn9   S    
C41   C71   S    
C44   C52   A    
C13   H17   S    
O9    Zn10  S    
C77   C85   A    
C108  H60   S    
C7    C147  S    
C161  H114  S    
C173  H151  S    
C153  H90   S    
C5    C145  S    
C138  H78   S    
C159  H107  S    
C10   C14   A    
C176  H160  S    
C158  H105  S    
O33   Zn5   S    
C147  C151  S    
C121  C125  A    
O30   Zn6   S    
C74   O8    A    
C45   O21   A    
C10   H14   S    
C169  H137  S    
C97   C161  S    
C88   H52   S    
C165  H126  S    
C2    O2    A    
O31   Zn7   S    
O35   Zn7   S    
C42   C50   A    
C134  H6    S    
C26   C30   A    
C163  H121  S    
C166  H130  S    
C115  O57   S    
C65   C147  S    
C50   H34   S    
C93   C97   A    
C122  C131  A    
C175  H157  S    
O17   Zn3   S    
C172  H147  S    
C105  C109  A    
C18   C22   A    
C121  H65   S    
C24   C28   A    
C118  O60   S    
C75   O13   A    
C125  H69   S    
C1    C17   S    
C38   H30   S    
O22   Zn1   S    
C13   C17   A    
C154  H94   S    
C61   O30   A    
C174  H152  S    
C116  C146  S    
C107  C120  A    
O19   Zn4   S    
C96   C100  A    
C133  H5    S    
C112  H64   S    
C37   C41   A    
C76   O16   A    
C145  C149  S    
C169  H138  S    
C136  H8    S    
C40   C44   A    
C56   C60   A    
C84   C118  S    
C36   O56   S    
O8    Zn12  S    
C52   H36   S    
O15   Zn11  S    
C63   C145  S    
C73   O11   A    
C69   O45   A    
C150  H74   S    
C106  C119  A    
C65   O35   A    
C120  C131  S    
C53   H41   S    
C66   O36   A    
C159  H109  S    
C82   C142  S    
C167  H132  S    
C164  H122  S    
C46   C142  S    
C15   C19   A    
C50   C54   A    
C5    H85   S    
C83   H39   S    
C27   H27   S    
O16   Zn12  S    
C168  H135  S    
C54   C58   A    
C100  C164  S    
C25   H25   S    
C23   H23   S    
O44   Zn8   S    
C105  H57   S    
C35   C59   A    
C61   O29   A    
C156  H99   S    
C123  H67   S    
C136  C152  S    
C56   H44   S    
O37   Zn6   S    
O21   Zn1   S    
C166  H128  S    
C162  H117  S    
C85   H49   S    
C62   O31   A    
C124  C128  A    
C82   O50   S    
C157  H101  S    
C83   O51   S    
C45   C141  S    
C8    C148  S    
O12   Zn11  S    
C107  C111  A    
C87   H51   S    
C160  H111  S    
C1    O17   A    
C95   H55   S    
C150  H10   S    
C79   H47   S    
C154  H92   S    
C70   O47   A    
C148  C152  S    
C137  H77   S    
C138  C142  S    
C174  H154  S    
C53   C57   A    
O42   Zn6   S    
C64   O34   A    
C33   C37   A    
C108  C112  A    
C35   C39   A    
O55   C159  S    
O14   Zn10  S    
C134  C142  S    
C46   O26   A    
O10   Zn9   S    
C126  H70   S    
O24   Zn2   S    
C15   H19   S    
C6    H2    S    
O32   Zn8   S    
O4    Zn2   S    
C88   C90   A    
C94   C103  A    
C140  H80   S    
C70   O48   A    
C138  H82   S    
C149  H9    S    
C32   C60   S    
C164  H124  S    
C171  H143  S    
C137  C141  S    
C85   C89   A    
O45   Zn9   S    
C63   O37   A    
C140  C144  S    
C86   C89   A    
C128  C130  A    
C74   O12   A    
C70   C102  S    
C98   C101  A    
C117  C171  S    
C115  C145  S    
C133  C141  S    
C117  C147  S    
C9    H13   S    
O34   Zn6   S    
C82   C116  S    
C158  H104  S    
C136  C144  S    
C43   C51   A    
C135  C151  S    
C155  H96   S    
C111  C114  A    
C51   H35   S    
O5    Zn9   S    
C99   C102  A    
C7    H3    S    
C22   C26   A    
C87   C90   A    
C170  H141  S    
C105  C119  A    
C72   O10   A    
C77   H45   S    
C39   H31   S    
C40   H32   S    
C134  C150  S    
C55   H43   S    
O51   C155  S    
C2    C18   S    
C149  H73   S    
C14   C18   A    
O59   C167  S    
C91   C104  S    
C93   H53   S    
C161  H113  S    
C173  H150  S    
C153  H91   S    
C159  H108  S    
C38   C42   A    
C109  H61   S    
C176  H159  S    
C48   O28   A    
O39   Zn8   S    
C80   H48   S    
C30   C58   S    
C117  O59   S    
C92   C103  S    
C152  H76   S    
C20   C24   A    
C65   O39   A    
C66   O40   A    
O26   Zn3   S    
C140  H84   S    
C9    C29   A    
C171  H145  S    
C78   C86   A    
O3    Zn2   S    
C81   C141  S    
C11   C31   A    
C163  H120  S    
C12   C32   A    
C134  C174  S    
C166  H129  S    
C156  H98   S    
C139  C143  S    
C121  C131  A    
C67   O42   A    
C175  H156  S    
C61   C89   S    
C136  C176  S    
C26   H26   S    
C36   C40   A    
C133  C149  S    
O43   Zn7   S    
C39   C43   A    
C47   O23   A    
O38   Zn5   S    
C48   O24   A    
O7    Zn11  S    
C154  H93   S    
C6    C138  S    
C115  C169  S    
C172  H148  S    
C16   H20   S    
C35   O55   S    
C81   C115  S    
C100  C102  A    
C119  C132  S    
C49   H33   S    
C3    O3    A    
C109  C113  A    
C110  C113  A    
C79   C92   A    
C152  H12   S    
C1    O1    A    
C151  H11   S    
C2    O18   A    
C7    H87   S    
C23   C27   A    
O23   Zn2   S    
C137  H81   S    
C95   C104  A    
C106  C110  A    
C161  H115  S    
C116  O58   S    
C153  H89   S    
C33   C57   A    
C122  H66   S    
C34   C38   A    
C29   C57   S    
C36   C60   A    
C12   H16   S    
C158  H106  S    
C99   C163  S    
C127  H71   S    
C78   C91   A    
C46   O22   A    
C34   O54   S    
C67   C113  S    
C127  C130  A    
C168  H134  S    
C7    C139  S    
C170  H140  S    
C5    H1    S    
C62   C90   S    
C135  C143  S    
C4    O4    A    
C84   H40   S    
C165  H125  S    
C8    H4    S    
C75   C129  S    
O25   Zn3   S    
C68   C114  S    
O46   Zn10  S    
C68   O44   A    
C162  H116  S    
C97   C101  A    
C52   C56   A    
C62   O32   A    
