data_mof_unit_8540.cif
_audit_creation_date              2012-12-10T17:51:59-0500
_audit_creation_method            fapswitch 2.2
_symmetry_space_group_name_H-M    P1
_symmetry_Int_Tables_number       1
_space_group_crystal_system       triclinic
_cell_length_a                    14.685548
_cell_length_b                    14.542867
_cell_length_c                    19.349897
_cell_angle_alpha                 77.021958
_cell_angle_beta                  102.426843
_cell_angle_gamma                 114.419002
_cell_volume                      3631.73901706

loop_
_atom_site_label
_atom_site_type_symbol
_atom_type_description
_atom_site_fract_x
_atom_site_fract_y
_atom_site_fract_z
_atom_type_partial_charge
C1    C     C_R   0.880778 0.311674 0.510347 0.818531
C2    C     C_R   0.119288 0.688429 0.489230 0.819326
C3    C     C_R   0.814164 0.203328 0.509052 -0.093408
C4    C     C_R   0.185980 0.797503 0.486548 -0.094947
C5    C     C_R   0.776262 0.033902 0.484627 -0.264520
C6    C     C_R   0.222252 0.972335 0.498106 -0.263626
C7    C     C_R   0.847141 0.131126 0.496015 0.255667
C8    C     C_R   0.152342 0.872581 0.493430 0.255557
C9    C     C_R   0.711934 0.175388 0.513007 -0.303322
C10   C     C_R   0.288097 0.824860 0.482191 -0.307555
C11   C     C_R   0.639092 0.079675 0.498421 0.093652
C12   C     C_R   0.359381 0.924942 0.486522 0.093614
C13   C     C_R   0.673307 0.008191 0.485148 0.124270
C14   C     C_R   0.324686 0.998545 0.495444 0.124349
C15   C     C_R   0.533561 0.053441 0.496030 0.075997
C16   C     C_R   0.464304 0.953035 0.484650 0.076255
C17   C     C_R   0.502255 0.884490 0.471324 -0.212699
C18   C     C_R   0.494780 0.124848 0.503055 -0.214695
C19   C     C_R   0.604558 0.911902 0.471495 -0.213885
C20   C     C_R   0.392472 0.097711 0.502480 -0.216690
C21   C     C_R   0.714776 0.668714 0.378275 0.140971
C22   C     C_R   0.283990 0.329371 0.620469 0.142732
C23   C     C_R   0.999441 0.500290 0.632406 0.799685
C24   C     C_R   0.000537 0.499672 0.367599 0.800546
C25   C     C_R   0.796376 0.637262 0.398231 0.038853
C26   C     C_R   0.202921 0.361678 0.601043 0.038440
C27   C     C_R   0.715337 0.510385 0.490309 -0.012713
C28   C     C_R   0.284695 0.489668 0.509745 -0.011410
C29   C     C_R   0.628823 0.535954 0.472827 -0.059552
C30   C     C_R   0.370614 0.463158 0.526582 -0.059662
C31   C     C_R   0.630621 0.617863 0.416303 0.090318
C32   C     C_R   0.368388 0.380582 0.582646 0.086743
C33   C     C_R   0.541502 0.483654 0.509474 0.103916
C34   C     C_R   0.457764 0.515194 0.489730 0.105849
C35   C     C_R   0.464009 0.597791 0.433832 -0.245607
C36   C     C_R   0.534921 0.400520 0.564959 -0.248582
C37   C     C_R   0.547774 0.647113 0.397936 -0.197411
C38   C     C_R   0.450996 0.350933 0.600682 -0.194843
C39   C     C_R   0.072076 0.480986 0.760974 -0.190169
C40   C     C_R   0.927850 0.518856 0.239037 -0.190097
C41   C     C_R   0.071931 0.483226 0.832405 -0.215480
C42   C     C_R   0.927910 0.516441 0.167624 -0.215425
C43   C     C_R   0.998399 0.506337 0.852561 0.032527
C44   C     C_R   0.001337 0.493136 0.147501 0.032602
C45   C     C_R   0.924913 0.529221 0.799203 0.274592
C46   C     C_R   0.074789 0.470221 0.200872 0.274570
C47   C     C_R   0.925159 0.525623 0.727511 -0.255980
C48   C     C_R   0.074628 0.473990 0.272543 -0.256016
C49   C     C_R   0.998621 0.501898 0.707961 -0.064577
C50   C     C_R   0.001283 0.497924 0.292060 -0.064297
C51   C     C_R   0.000679 0.495579 0.070836 0.403971
C52   C     C_R   0.999029 0.503790 0.929241 0.403924
Cu1   Cu    Cu3+1 0.081740 0.475680 0.518680 0.943346
Cu2   Cu    Cu3+1 0.918260 0.524320 0.481320 0.943972
H1    H     H_    0.129668 0.462422 0.747407 0.159634
H2    H     H_    0.870343 0.537572 0.252582 0.159232
H3    H     H_    0.546546 0.708995 0.354983 0.162593
H4    H     H_    0.452006 0.288619 0.643301 0.163275
H5    H     H_    0.278580 0.549377 0.467070 0.130192
H6    H     H_    0.721937 0.451507 0.533557 0.130361
H7    H     H_    0.136591 0.323938 0.627800 0.140833
H8    H     H_    0.862416 0.674726 0.371159 0.141450
H9    H     H_    0.404896 0.626705 0.415844 0.125798
H10   H     H_    0.593686 0.371055 0.582488 0.127821
H11   H     H_    0.128818 0.465163 0.872188 0.165731
H12   H     H_    0.871053 0.534535 0.127826 0.165615
H13   H     H_    0.868634 0.543200 0.687000 0.153545
H14   H     H_    0.131123 0.456377 0.313065 0.153431
H15   H     H_    0.630028 0.857054 0.460601 0.144648
H16   H     H_    0.366363 0.154860 0.508460 0.147928
H17   H     H_    0.310348 0.764981 0.477703 0.157681
H18   H     H_    0.691481 0.231124 0.527035 0.152188
H19   H     H_    0.801793 0.978923 0.473997 0.133842
H20   H     H_    0.196353 0.029201 0.504951 0.134832
H21   H     H_    0.455055 0.809207 0.458842 0.138970
H22   H     H_    0.540908 0.203543 0.507893 0.144067
N1    N     N_R   0.912486 0.481448 0.955446 -0.190196
N2    N     N_R   0.087219 0.517907 0.044633 -0.190187
N3    N     N_R   0.913349 0.477799 0.024849 -0.248338
N4    N     N_R   0.086357 0.521559 0.975230 -0.248334
N5    N     N_R   0.795420 0.560800 0.453240 -0.193669
N6    N     N_R   0.204580 0.439200 0.546760 -0.193928
O1    O     O_R   0.977910 0.338110 0.524620 -0.550168
O2    O     O_R   0.022090 0.661890 0.475380 -0.548243
O3    O     O_R   0.839850 0.379180 0.493080 -0.590054
O4    O     O_R   0.160150 0.620820 0.506920 -0.591469
O5    O     O_R   0.069040 0.479450 0.615630 -0.588752
O6    O     O_R   0.930960 0.520550 0.384370 -0.589201
O7    O     O_R   0.930990 0.520520 0.584090 -0.582894
O8    O     O_R   0.069010 0.479480 0.415910 -0.582223
N7    N     N_2   0.716975 0.752264 0.322142 -0.439834
H23   H     H_    0.716420 0.814764 0.338549 0.243969
C53   C     C_3   0.778299 0.776741 0.266103 -0.700758
H24   H     H_    0.755556 0.828302 0.220636 0.238832
H25   H     H_    0.766921 0.706248 0.246208 0.235634
H26   H     H_    0.859217 0.816746 0.286071 0.208976
N8    N     N_2   0.280985 0.244595 0.675740 -0.438798
H27   H     H_    0.283752 0.183539 0.658798 0.245711
C54   C     C_3   0.216652 0.216621 0.730397 -0.702231
H28   H     H_    0.238015 0.163477 0.775300 0.238734
H29   H     H_    0.136474 0.177117 0.708425 0.209345
H30   H     H_    0.226302 0.285410 0.751758 0.235543
N9    N     N_2   0.851838 0.557783 0.816672 -0.416624
H31   H     H_    0.783876 0.535994 0.783387 0.250538
C55   C     C_3   0.888909 0.663938 0.825540 -0.658104
H32   H     H_    0.909157 0.714268 0.774077 0.213512
H33   H     H_    0.956140 0.682866 0.867246 0.236826
H34   H     H_    0.829232 0.678539 0.842637 0.231882
N10   N     N_2   0.147743 0.441454 0.183438 -0.416591
H35   H     H_    0.215724 0.463210 0.216703 0.250404
C56   C     C_3   0.110512 0.335248 0.174664 -0.658631
H36   H     H_    0.090232 0.285025 0.226156 0.213115
H37   H     H_    0.170106 0.320475 0.157603 0.231954
H38   H     H_    0.043268 0.316341 0.132968 0.236926
N11   N     N_2   0.049812 0.847541 0.499777 -0.407371
H39   H     H_    0.041933 0.873347 0.542790 0.241361
C57   C     C_3   0.992153 0.876724 0.434451 -0.679096
H40   H     H_    0.020299 0.961327 0.420507 0.210539
H41   H     H_    0.911551 0.847402 0.441947 0.222619
H42   H     H_    0.997807 0.843846 0.389737 0.229129
N12   N     N_2   0.950192 0.156814 0.490789 -0.407703
H43   H     H_    0.959678 0.133474 0.447188 0.241000
C58   C     C_3   0.006156 0.125039 0.556097 -0.676971
H44   H     H_    0.977351 0.040257 0.568341 0.211001
H45   H     H_    0.999471 0.155895 0.601511 0.229492
H46   H     H_    0.087159 0.154530 0.549616 0.222051

loop_
_geom_bond_atom_site_label_1
_geom_bond_atom_site_label_2
_ccdc_geom_bond_type
C15   C18   A    
C25   N5    A    
C53   H24   S    
C27   C29   A    
C2    O2    A    
C56   H36   S    
C9    H18   S    
C4    C8    A    
Cu2   O2    S    
N8    H27   S    
C58   H44   S    
C39   C41   A    
Cu1   Cu2   S    
C55   H33   S    
C22   C32   A    
C35   C37   A    
C26   H7    S    
C3    C7    A    
C27   H6    S    
C57   H41   S    
N2    N4    A    
C43   C52   S    
C23   C49   S    
N7    C53   S    
C15   C16   A    
C29   C33   A    
C33   C36   A    
C34   C35   A    
C45   C47   A    
C45   N9    S    
C8    N11   S    
C38   H4    S    
C11   C15   A    
N9    C55   S    
C39   H1    S    
C56   H37   S    
C12   C16   A    
C16   C17   A    
N11   C57   S    
C23   O7    A    
Cu1   O4    S    
C32   C38   A    
C30   C32   A    
C5    C13   A    
C10   H17   S    
C48   C50   A    
C53   H25   S    
C22   N8    S    
C23   O5    A    
C1    O3    A    
C41   C43   A    
C20   H16   S    
C42   C44   A    
C7    N12   S    
C47   H13   S    
N8    C54   S    
C44   C46   A    
C6    H20   S    
N1    N3    A    
C24   C50   S    
C55   H34   S    
C46   C48   A    
C30   C34   A    
C28   N6    A    
C14   C20   A    
C27   N5    A    
Cu2   O7    S    
C47   C49   A    
C57   H42   S    
N7    H23   S    
C5    C7    A    
C13   C19   A    
C58   H46   S    
C6    C8    A    
C40   H2    S    
C31   C37   A    
Cu1   N6    S    
C1    C3    S    
C2    C4    S    
C3    C9    A    
C6    C14   A    
C21   C31   A    
C54   H28   S    
C33   C34   A    
Cu1   O5    S    
C48   H14   S    
C43   C45   A    
N12   H43   S    
C10   C12   A    
C44   C51   S    
C39   C49   A    
C12   C14   A    
C53   H26   S    
C9    C11   A    
C19   H15   S    
C4    C10   A    
C52   N1    A    
N9    H31   S    
C42   H12   S    
C21   N7    S    
C28   H5    S    
C21   C25   A    
C18   H22   S    
C54   H29   S    
C24   O6    A    
C24   O8    A    
Cu2   O3    S    
C41   H11   S    
C1    O1    A    
C55   H32   S    
Cu1   O1    S    
N10   C56   S    
C51   N2    A    
C28   C30   A    
C29   C31   A    
C36   H10   S    
C57   H40   S    
C36   C38   A    
Cu2   O6    S    
C11   C13   A    
C40   C50   A    
C40   C42   A    
C17   C19   A    
C2    O4    A    
C56   H38   S    
C18   C20   A    
C25   H8    S    
C5    H19   S    
C51   N3    A    
N12   C58   S    
C58   H45   S    
C54   H30   S    
C26   N6    A    
C22   C26   A    
C46   N10   S    
N10   H35   S    
Cu1   O8    S    
C17   H21   S    
C35   H9    S    
C52   N4    A    
Cu2   N5    S    
C37   H3    S    
N11   H39   S    
