data_mof_unit_40659.cif
_audit_creation_date              2012-12-10T19:08:04-0500
_audit_creation_method            fapswitch 2.2
_symmetry_space_group_name_H-M    P1
_symmetry_Int_Tables_number       1
_space_group_crystal_system       triclinic
_cell_length_a                    9.075984
_cell_length_b                    10.81228
_cell_length_c                    9.552193
_cell_angle_alpha                 89.943774
_cell_angle_beta                  89.985422
_cell_angle_gamma                 90.118742
_cell_volume                      937.374075166

loop_
_atom_site_label
_atom_site_type_symbol
_atom_type_description
_atom_site_fract_x
_atom_site_fract_y
_atom_site_fract_z
_atom_type_partial_charge
C1    C     C_R   0.504097 0.262365 0.500368 0.781699
C2    C     C_R   0.551653 0.935933 0.377793 -0.198163
C3    C     C_R   0.515333 0.870970 0.500519 -0.025743
C4    C     C_R   0.499943 0.936167 0.625572 0.008445
C5    C     C_3   0.378960 0.930929 0.731625 0.418230
C6    C     C_3   0.386654 0.071326 0.737474 0.218879
C7    C     C_R   0.626352 0.524036 0.073638 0.147284
C8    C     C_R   0.379537 0.462848 0.074321 -0.052406
C9    C     C_R   0.379538 0.462836 0.925712 -0.029630
C10   C     C_R   0.626422 0.524008 0.926457 0.126397
C11   C     C_3   0.718664 0.638401 0.921551 0.431638
C12   C     C_R   0.220694 0.499972 0.499994 0.865483
C13   C     C_3   0.718316 0.638200 0.080579 -0.509988
C14   C     C_R   0.501946 0.737711 0.499929 0.850490
C15   C     C_R   0.779302 0.500094 0.500016 0.838789
C16   C     C_1   0.065546 0.500050 0.500020 -0.172116
C17   C     C_1   0.934433 0.500098 0.500016 -0.182953
C18   C     C_R   0.506561 0.063551 0.627923 -0.111940
C19   C     C_R   0.520518 0.129345 0.502232 -0.084586
C20   C     C_R   0.553447 0.064834 0.378424 -0.167563
Cu1   Cu    Cu3+1 0.499990 0.499980 0.640670 0.994547
Cu2   Cu    Cu3+1 0.500010 0.500020 0.359330 0.954488
H1    H     H_    0.573752 0.113454 0.281084 0.163451
H2    H     H_    0.828779 0.619954 0.126262 0.157924
H3    H     H_    0.658535 0.717682 0.127312 0.225567
H4    H     H_    0.571877 0.887897 0.280350 0.153337
H5    H     H_    0.411141 0.882975 0.829869 0.165442
H6    H     H_    0.285283 0.116794 0.697232 0.145231
H7    H     H_    0.281222 0.433984 0.129239 0.143854
H8    H     H_    0.281292 0.433861 0.870864 0.142920
H9    H     H_    0.828978 0.623441 0.874028 0.086530
N1    N     N_R   0.500920 0.500930 0.147930 -0.169918
N2    N     N_R   0.500930 0.500890 0.852020 -0.165302
O1    O     O_R   0.500000 0.319640 0.618810 -0.598942
O2    O     O_R   0.500020 0.319680 0.381230 -0.585014
O3    O     O_R   0.288380 0.499980 0.618770 -0.579731
O4    O     O_R   0.288400 0.500020 0.381190 -0.587892
O5    O     O_R   0.499980 0.680320 0.618770 -0.507491
O6    O     O_R   0.500000 0.680360 0.381190 -0.596063
O7    O     O_R   0.711600 0.499980 0.618810 -0.590186
O8    O     O_R   0.711620 0.500020 0.381230 -0.580848
F1    F     F_    0.643077 0.738226 0.866912 -0.673810
F2    F     F_    0.247755 0.888835 0.674709 -0.669800
O9    O     O_3   0.420823 0.111908 0.876093 -0.619108
C21   C     C_3   0.567435 0.152203 0.899522 0.066924
H10   H     H_    0.563270 0.221111 0.985637 0.165184
H11   H     H_    0.617385 0.201527 0.809466 0.166023
C22   C     C_3   0.664651 0.044404 0.947100 -0.357698
H12   H     H_    0.608924 0.993253 0.033174 0.235648
H13   H     H_    0.682407 0.979782 0.858663 0.262430
C23   C     C_3   0.814393 0.089942 0.998470 -0.881020
H14   H     H_    0.872745 0.140396 0.913500 0.258914
H15   H     H_    0.882497 0.009642 0.030809 0.277735
H16   H     H_    0.800643 0.152239 0.089966 0.244429

loop_
_geom_bond_atom_site_label_1
_geom_bond_atom_site_label_2
_ccdc_geom_bond_type
C7    C10   A    
Cu1   O1    S    
C14   O5    A    
C19   C20   A    
C20   H1    S    
C5    H5    S    
C23   H16   S    
C4    C18   A    
C22   H13   S    
C2    C3    A    
C5    F2    S    
C11   H9    S    
C2    H4    S    
Cu1   O3    S    
C6    O9    S    
Cu1   Cu2   S    
C9    N2    A    
Cu2   O2    S    
C11   C13   S    
C13   H3    S    
C16   C17   T    
C3    C14   S    
Cu2   N1    S    
C9    H8    S    
C8    H7    S    
C22   H12   S    
C1    O1    A    
C10   N2    A    
C21   H11   S    
C5    C6    S    
C6    C18   S    
C15   O7    A    
C1    C19   S    
Cu2   O8    S    
C12   O3    A    
C10   C11   S    
Cu2   O6    S    
C2    C20   A    
C23   H14   S    
C8    N1    A    
C12   C16   S    
C7    C13   S    
Cu1   N2    S    
O9    C21   S    
C15   O8    A    
C11   F1    S    
C18   C19   A    
C21   C22   S    
C12   O4    A    
C15   C17   S    
C1    O2    A    
C8    C9    A    
C7    N1    A    
C14   O6    A    
C21   H10   S    
Cu2   O4    S    
C22   C23   S    
C6    H6    S    
Cu1   O5    S    
C3    C4    A    
C13   H2    S    
C4    C5    S    
C23   H15   S    
Cu1   O7    S    
