data_mof_unit_50292.cif
_audit_creation_date              2012-12-10T18:15:12-0500
_audit_creation_method            fapswitch 2.2
_symmetry_space_group_name_H-M    P1
_symmetry_Int_Tables_number       1
_space_group_crystal_system       triclinic
_cell_length_a                    12.617539
_cell_length_b                    13.114955
_cell_length_c                    23.305835
_cell_angle_alpha                 90.307252
_cell_angle_beta                  102.712384
_cell_angle_gamma                 83.324938
_cell_volume                      3735.76106527

loop_
_atom_site_label
_atom_site_type_symbol
_atom_type_description
_atom_site_fract_x
_atom_site_fract_y
_atom_site_fract_z
_atom_type_partial_charge
C1    C     C_R   0.440457 0.690021 0.486196 0.921359
C2    C     C_R   0.301971 0.632874 0.006078 -0.158716
C3    C     C_R   0.304916 0.636510 0.946806 -0.153813
C4    C     C_R   0.399525 0.596339 0.928143 0.008372
C5    C     C_R   0.493011 0.553903 0.969697 -0.082991
C6    C     C_R   0.588418 0.512604 0.951318 -0.135835
C7    C     C_R   0.681917 0.471395 0.993754 0.495201
C8    C     C_R   0.679106 0.472988 0.053424 -0.260426
C9    C     C_R   0.402397 0.595951 0.868612 0.532981
C10   C     C_R   0.585721 0.511770 0.890739 0.600107
C11   C     C_R   0.426187 0.477804 0.756395 -0.185800
C12   C     C_R   0.500183 0.502416 0.610468 0.883044
C13   C     C_R   0.428513 0.463591 0.697581 -0.221684
C14   C     C_R   0.498349 0.515455 0.672270 -0.096598
C15   C     C_R   0.562910 0.584343 0.705538 -0.261210
C16   C     C_R   0.558833 0.600565 0.764050 0.448527
C17   C     C_R   0.491754 0.545501 0.789894 0.209628
C18   C     C_R   0.469435 0.615233 0.241274 -0.168927
C19   C     C_R   0.474283 0.604528 0.300929 -0.305528
C20   C     C_R   0.492406 0.506856 0.327277 -0.187064
C21   C     C_R   0.499377 0.418436 0.293506 0.343523
C22   C     C_R   0.486448 0.429136 0.232501 0.438097
C23   C     C_R   0.560165 0.308563 0.506459 0.918713
C24   C     C_R   0.477573 0.527999 0.207170 0.139636
C25   C     C_R   0.730883 0.058194 0.495000 0.526715
C26   C     C_R   0.594798 0.199479 0.503794 -0.136627
C27   C     C_R   0.294747 0.834502 0.455971 -0.351083
C28   C     C_R   0.260529 0.939889 0.445485 0.556077
C29   C     C_R   0.340384 0.006481 0.450528 -0.213983
C30   C     C_R   0.453075 0.968988 0.462110 -0.036249
C31   C     C_R   0.482877 0.863228 0.458013 0.002588
C32   C     C_R   0.536964 0.032983 0.477160 0.029338
C33   C     C_R   0.647090 0.994062 0.478676 -0.004867
C34   C     C_R   0.499051 0.499083 0.389702 0.970252
C35   C     C_R   0.670792 0.893442 0.461589 -0.369025
C36   C     C_R   0.587345 0.828938 0.446495 0.515299
C37   C     C_R   0.514293 0.133579 0.493801 -0.201647
C38   C     C_R   0.703233 0.162047 0.504592 -0.312808
C39   C     C_R   0.405692 0.796522 0.465107 -0.156607
C40   C     C_R   0.083117 0.349621 0.417582 -0.329195
C41   C     C_R   0.802960 0.624957 0.572221 -0.056247
C42   C     C_R   0.910095 0.648539 0.590850 0.463215
C43   C     C_R   0.990867 0.597754 0.563958 -0.356299
C44   C     C_R   0.963828 0.527284 0.518768 -0.012062
C45   C     C_R   0.577906 0.506071 0.130607 0.599484
C46   C     C_R   0.854038 0.504694 0.503584 0.200422
C47   C     C_R   0.042080 0.476117 0.489320 0.028341
C48   C     C_R   0.008852 0.401165 0.447122 0.122765
C49   C     C_R   0.901666 0.377812 0.434650 -0.269404
C50   C     C_R   0.825765 0.428733 0.462583 -0.205663
C51   C     C_R   0.152117 0.496444 0.499307 -0.142675
C52   C     C_R   0.190054 0.372502 0.429398 0.516592
C53   C     C_R   0.391728 0.582474 0.107359 0.483580
C54   C     C_R   0.393910 0.589836 0.047803 -0.003746
C55   C     C_R   0.490205 0.551495 0.029689 -0.021319
C56   C     C_R   0.583322 0.510174 0.071469 -0.097699
H1    H     H_    0.227299 0.663223 0.019002 0.196327
H2    H     H_    0.464479 0.672381 0.326741 0.202315
H3    H     H_    0.765712 0.213533 0.510865 0.172715
H4    H     H_    0.753849 0.867045 0.459481 0.185289
H5    H     H_    0.433160 0.162432 0.498567 0.182958
H6    H     H_    0.235964 0.781350 0.456648 0.181461
H7    H     H_    0.312068 0.087280 0.443406 0.191807
H8    H     H_    0.232345 0.669588 0.915607 0.194144
H9    H     H_    0.876218 0.319865 0.402905 0.153375
H10   H     H_    0.058194 0.292140 0.385357 0.189221
H11   H     H_    0.184370 0.553404 0.529520 0.147425
H12   H     H_    0.739802 0.661075 0.592914 0.162063
H13   H     H_    0.074443 0.610949 0.579715 0.151019
H14   H     H_    0.745720 0.405789 0.451933 0.204752
H15   H     H_    0.752258 0.443891 0.085485 0.199823
H16   H     H_    0.374500 0.435263 0.776317 0.162744
H17   H     H_    0.377404 0.410940 0.672211 0.169210
H18   H     H_    0.614814 0.626998 0.685782 0.188199
H19   H     H_    0.460579 0.691200 0.221559 0.180440
N1    N     N_R   0.482368 0.539553 0.147001 -0.334848
N2    N     N_R   0.493974 0.553238 0.851262 -0.343101
N3    N     N_R   0.222200 0.444670 0.469780 -0.133243
N4    N     N_R   0.776960 0.554790 0.529910 -0.155714
O1    O     O_R   0.366740 0.627150 0.485570 -0.636829
O2    O     O_2   0.299544 0.616200 0.125486 -0.563321
O3    O     O_2   0.314185 0.637007 0.828176 -0.580560
O4    O     O_2   0.672817 0.468300 0.870921 -0.495201
O5    O     O_R   0.544830 0.662520 0.504870 -0.581454
O6    O     O_R   0.410930 0.482340 0.574190 -0.625082
O7    O     O_R   0.589010 0.517710 0.593490 -0.617330
O8    O     O_R   0.455170 0.337480 0.495130 -0.575065
O9    O     O_R   0.633260 0.372850 0.514430 -0.647608
O10   O     O_R   0.410990 0.482290 0.406510 -0.546828
O11   O     O_R   0.589070 0.517660 0.425810 -0.639896
O12   O     O_2   0.667074 0.468419 0.171546 -0.562453
Zn1   Zn    Zn3+2 0.381090 0.476380 0.487110 0.992970
Zn2   Zn    Zn3+2 0.618910 0.523620 0.512890 0.950370
O13   O     O_3   0.511592 0.321791 0.319270 -0.616245
C57   C     C_3   0.622841 0.280827 0.329323 0.106800
H20   H     H_    0.669451 0.316780 0.368674 0.112148
H21   H     H_    0.659973 0.293828 0.291089 0.177482
C58   C     C_3   0.632403 0.165150 0.340483 -0.313693
H22   H     H_    0.595331 0.149970 0.378103 0.244250
H23   H     H_    0.586653 0.128612 0.300995 0.229376
C59   C     C_3   0.751741 0.117527 0.353810 -0.932903
H24   H     H_    0.788954 0.128743 0.315668 0.268089
H25   H     H_    0.756440 0.033980 0.362809 0.271775
H26   H     H_    0.799194 0.152953 0.393113 0.277191
O14   O     O_3   0.492832 0.342372 0.198773 -0.628684
C60   C     C_3   0.386855 0.325475 0.167625 0.052729
H27   H     H_    0.395960 0.284947 0.126696 0.172129
H28   H     H_    0.331369 0.397725 0.153442 0.152498
C61   C     C_3   0.334437 0.257377 0.204076 -0.296668
H29   H     H_    0.390967 0.186284 0.218662 0.240498
H30   H     H_    0.319336 0.298982 0.243683 0.268045
C62   C     C_3   0.225810 0.228260 0.168574 -0.929413
H31   H     H_    0.167575 0.298310 0.154191 0.273046
H32   H     H_    0.189650 0.179659 0.196278 0.280666
H33   H     H_    0.238606 0.184283 0.129305 0.262223
O15   O     O_3   0.838299 0.022324 0.495356 -0.682651
C63   C     C_3   0.897497 0.001075 0.553903 0.031724
H34   H     H_    0.954115 0.930307 0.552856 0.155109
H35   H     H_    0.845678 0.984373 0.585132 0.146610
C64   C     C_3   0.965369 0.088554 0.576735 -0.355438
H36   H     H_    0.006332 0.113042 0.542381 0.235330
H37   H     H_    0.911062 0.155398 0.587306 0.220633
C65   C     C_3   0.052308 0.055758 0.632120 -0.947061
H38   H     H_    0.013258 0.032967 0.667632 0.268300
H39   H     H_    0.099426 0.120898 0.647509 0.274811
H40   H     H_    0.109908 0.990384 0.622722 0.253698
O16   O     O_3   0.151463 0.981623 0.427832 -0.645456
C66   C     C_3   0.080720 0.933044 0.455286 0.081269
H41   H     H_    0.016957 0.993472 0.462984 0.207858
H42   H     H_    0.121914 0.900379 0.499828 0.118375
C67   C     C_3   0.023313 0.853890 0.414502 -0.324238
H43   H     H_    0.946248 0.892156 0.386381 0.221729
H44   H     H_    0.075682 0.821546 0.384655 0.238499
C68   C     C_3   0.997003 0.765744 0.449502 -0.977990
H45   H     H_    0.072865 0.726474 0.477975 0.260273
H46   H     H_    0.958834 0.708547 0.418888 0.266710
H47   H     H_    0.940097 0.794791 0.477566 0.262742
O17   O     O_3   0.600095 0.734891 0.418671 -0.641022
C69   C     C_3   0.686921 0.720737 0.388724 0.107758
H48   H     H_    0.689495 0.641010 0.372424 0.195567
H49   H     H_    0.767791 0.722666 0.418815 0.124854
C70   C     C_3   0.668252 0.793703 0.335004 -0.420501
H50   H     H_    0.583074 0.794759 0.309047 0.233103
H51   H     H_    0.680092 0.873087 0.349241 0.221749
C71   C     C_3   0.746986 0.760434 0.295408 -0.899127
H52   H     H_    0.832979 0.759188 0.320240 0.264784
H53   H     H_    0.732690 0.815473 0.257696 0.270147
H54   H     H_    0.733528 0.682823 0.278014 0.280453
Cl1   Cl    Cl    0.280929 0.307211 0.390717 -0.602993
O18   O     O_3   0.931015 0.713859 0.638531 -0.633255
C72   C     C_3   0.025497 0.764427 0.642244 0.048155
H55   H     H_    0.007588 0.842558 0.658830 0.167751
H56   H     H_    0.045387 0.776819 0.598748 0.113375
C73   C     C_3   0.123021 0.708931 0.686746 -0.293547
H57   H     H_    0.109309 0.720524 0.731954 0.256078
H58   H     H_    0.130826 0.625026 0.679141 0.227286
C74   C     C_3   0.229768 0.749493 0.682617 -0.896605
H59   H     H_    0.246034 0.736594 0.638023 0.242289
H60   H     H_    0.298782 0.708375 0.715274 0.305673
H61   H     H_    0.225295 0.832876 0.691831 0.264078
O19   O     O_3   0.778874 0.436606 0.977664 -0.583769
C75   C     C_3   0.796236 0.328346 0.982814 0.105970
H62   H     H_    0.724363 0.293785 0.956835 0.144564
H63   H     H_    0.811176 0.302998 0.029730 0.126016
C76   C     C_3   0.896842 0.289679 0.958992 -0.281154
H64   H     H_    0.883109 0.314144 0.912076 0.257344
H65   H     H_    0.969100 0.323915 0.984285 0.227259
C77   C     C_3   0.920434 0.172873 0.963737 -0.947304
H66   H     H_    0.936507 0.146821 0.010457 0.268634
H67   H     H_    0.993788 0.147399 0.946041 0.272688
H68   H     H_    0.849928 0.136939 0.937936 0.275895
Cl2   Cl    Cl    0.637122 0.690876 0.803862 -0.562525

loop_
_geom_bond_atom_site_label_1
_geom_bond_atom_site_label_2
_ccdc_geom_bond_type
C55   C56   A    
C29   H7    S    
C76   H64   S    
C11   C13   A    
C41   C42   A    
C57   H20   S    
C67   C68   S    
C66   H41   S    
C8    C56   A    
C68   H47   S    
C62   H32   S    
C71   H52   S    
C2    H1    S    
C7    C8    A    
C53   C54   A    
C1    O5    A    
C7    O19   S    
C74   H59   S    
C49   H9    S    
C12   O6    A    
C45   N1    A    
C18   C24   A    
C5    C6    A    
C28   C29   A    
O7    Zn2   S    
N4    Zn2   S    
C61   H30   S    
C46   N4    A    
C69   C70   S    
C23   C26   S    
C60   H27   S    
C15   C16   A    
C10   O4    S    
O15   C63   S    
C53   O2    S    
C18   C19   A    
C72   C73   S    
C51   H11   S    
O9    Zn2   S    
C10   N2    A    
C77   H68   S    
C19   C20   A    
C45   C56   A    
C27   C39   A    
C16   C17   A    
C45   O12   S    
C72   H55   S    
C18   H19   S    
C44   C47   A    
C31   C36   A    
C73   H58   S    
C64   C65   S    
C9    O3    S    
C20   C34   S    
C77   H67   S    
C74   H60   S    
C40   H10   S    
C21   C22   A    
C70   C71   S    
C52   N3    A    
C62   H31   S    
C71   H53   S    
O6    Zn1   S    
C44   C46   A    
O19   C75   S    
C41   H12   S    
C75   H63   S    
C19   H2    S    
C57   C58   S    
C59   H24   S    
C77   H66   S    
C65   H38   S    
C73   C74   S    
C2    C54   A    
C61   C62   S    
C11   H16   S    
C26   C38   A    
C65   H40   S    
C68   H46   S    
N3    Zn1   S    
C3    H8    S    
C35   H4    S    
C35   C36   A    
O1    Zn1   S    
C43   C44   A    
C34   O11   A    
C41   N4    A    
C29   C30   A    
C27   H6    S    
C25   C38   A    
C75   C76   S    
C25   O15   S    
C16   Cl2   S    
C37   H5    S    
C47   C48   A    
C52   Cl1   S    
C17   N2    S    
C9    N2    A    
C32   C37   A    
O10   Zn1   S    
C28   O16   S    
C73   H57   S    
C6    C7    A    
C48   C49   A    
C13   H17   S    
C49   C50   A    
C59   H26   S    
C58   H23   S    
C23   O9    A    
C70   H51   S    
C63   C64   S    
C53   N1    A    
C42   C43   A    
C3    C4    A    
C22   O14   S    
C66   C67   S    
C71   H54   S    
O8    Zn1   S    
C64   H36   S    
C64   H37   S    
O11   Zn2   S    
C75   H62   S    
C59   H25   S    
C40   C48   A    
C54   C55   A    
C11   C17   A    
C8    H15   S    
O18   C72   S    
C5    C55   A    
C24   N1    S    
C43   H13   S    
C12   C14   S    
C4    C5    A    
C67   H44   S    
C67   H43   S    
C66   H42   S    
C6    C10   A    
C47   C51   A    
C69   H48   S    
C57   H21   S    
C26   C37   A    
C68   H45   S    
C74   H61   S    
C58   C59   S    
O14   C60   S    
C46   C50   A    
C63   H34   S    
C76   C77   S    
C12   O7    A    
C32   C33   A    
C63   H35   S    
C2    C3    A    
C50   H14   S    
C51   N3    A    
C40   C52   A    
C61   H29   S    
C30   C32   A    
C69   H49   S    
C30   C31   A    
C60   H28   S    
C33   C35   A    
C31   C39   A    
C22   C24   A    
O5    Zn2   S    
C72   H56   S    
O13   C57   S    
C42   O18   S    
C34   O10   A    
C65   H39   S    
O17   C69   S    
C1    C39   S    
C38   H3    S    
C15   H18   S    
C20   C21   A    
C76   H65   S    
C58   H22   S    
C21   O13   S    
C27   C28   A    
C70   H50   S    
C1    O1    A    
C14   C15   A    
C23   O8    A    
C4    C9    A    
C13   C14   A    
C36   O17   S    
C62   H33   S    
O16   C66   S    
C25   C33   A    
C60   C61   S    
