data_mof_unit_52743.cif
_audit_creation_date              2013-03-05T15:51:55-0500
_audit_creation_method            fapswitch 2.2
_symmetry_space_group_name_H-M    P1
_symmetry_Int_Tables_number       1
_space_group_crystal_system       triclinic
_cell_length_a                    9.631758
_cell_length_b                    10.834513
_cell_length_c                    17.317452
_cell_angle_alpha                 94.74969
_cell_angle_beta                  84.845662
_cell_angle_gamma                 90.935201
_cell_volume                      1793.60947776

loop_
_atom_site_label
_atom_site_type_symbol
_atom_site_description
_atom_site_fract_x
_atom_site_fract_y
_atom_site_fract_z
_atom_type_partial_charge
O1    O     O_R   0.381190 0.680360 0.500010 -0.540252
O2    O     O_R   0.618760 0.680340 0.500000 -0.578351
C1    C     C_R   0.499889 0.737742 0.506693 0.859860
O3    O     O_R   0.367440 0.500030 0.613600 -0.535415
O4    O     O_R   0.605010 0.500010 0.613590 -0.584919
C2    C     C_R   0.480009 0.491626 0.649398 0.911630
Cu1   Cu    Cu3+1 0.359340 0.500010 0.500010 1.089970
Cu2   Cu    Cu3+1 0.640660 0.499990 0.499990 0.982730
O5    O     O_R   0.381240 0.319660 0.500000 -0.515993
O6    O     O_R   0.618810 0.319640 0.499990 -0.627759
O7    O     O_R   0.394990 0.499990 0.386410 -0.541237
O8    O     O_R   0.632560 0.499970 0.386400 -0.617422
C3    C     C_R   0.499926 0.262558 0.499205 0.790010
C4    C     C_R   0.519325 0.507003 0.350538 0.859177
C5    C     C_R   0.467406 0.474763 0.733469 -0.159240
C6    C     C_R   0.589305 0.450477 0.767958 -0.198924
C7    C     C_R   0.585929 0.439334 0.847025 -0.175699
C8    C     C_R   0.460907 0.454840 0.894439 0.004144
C9    C     C_R   0.335687 0.474227 0.860849 0.280871
C10   C     C_R   0.338456 0.482641 0.780000 0.281770
C11   C     C_R   0.430826 0.545095 0.145425 -0.178311
C12   C     C_R   0.418423 0.554288 0.226593 0.319459
C13   C     C_R   0.658640 0.484962 0.223009 -0.215129
C14   C     C_R   0.670531 0.479904 0.142264 -0.115695
C15   C     C_R   0.555204 0.505376 0.103270 0.089373
C16   C     C_2   0.460413 0.450248 0.979070 -0.121750
C17   C     C_2   0.566698 0.495056 0.018199 -0.179699
C18   C     C_R   0.531913 0.517268 0.266017 -0.128311
H1    H     H_    0.688832 0.440010 0.733730 0.201360
H2    H     H_    0.748299 0.461354 0.251656 0.186176
H3    H     H_    0.662466 0.527370 0.988100 0.182759
H4    H     H_    0.344609 0.573319 0.115026 0.205224
H5    H     H_    0.366809 0.416826 0.010877 0.188693
H6    H     H_    0.682104 0.418423 0.870904 0.185070
H7    H     H_    0.456253 0.866489 0.391431 0.189455
C19   C     C_R   0.555122 0.904938 0.652030 0.341170
C20   C     C_R   0.600064 0.985856 0.712405 -0.121633
H8    H     H_    0.619504 0.951652 0.767430 0.191151
C21   C     C_R   0.612101 0.111653 0.704810 -0.190388
H9    H     H_    0.644328 0.173288 0.752488 0.172571
C22   C     C_R   0.577285 0.159030 0.637336 -0.156515
C23   C     C_R   0.536383 0.080392 0.574014 0.059609
C24   C     C_R   0.530383 0.950070 0.579387 -0.026043
C25   C     C_R   0.500237 0.872686 0.511758 -0.090264
C26   C     C_R   0.474767 0.924760 0.443458 -0.161233
H10   H     H_    0.460083 0.087975 0.385658 0.213477
C27   C     C_R   0.475644 0.051460 0.440255 -0.103117
C28   C     C_R   0.501077 0.129634 0.505406 -0.049566
H11   H     H_    0.857465 0.618485 0.602221 0.174402
C29   C     C_R   0.868356 0.362459 0.381825 -0.131914
H12   H     H_    0.762009 0.333176 0.387235 0.207166
C30   C     C_R   0.942763 0.326290 0.311904 -0.277476
H13   H     H_    0.890712 0.280147 0.264507 0.177151
C31   C     C_R   0.085576 0.338137 0.305581 -0.101203
H14   H     H_    0.142168 0.295048 0.253650 0.187263
C32   C     C_R   0.153460 0.366178 0.373011 0.397021
C33   C     C_R   0.081379 0.433487 0.439374 0.103303
C34   C     C_R   0.931971 0.432945 0.441109 0.191386
N1    N     N_R   0.852190 0.498790 0.499250 -0.205608
C35   C     C_R   0.918568 0.564830 0.556182 -0.021060
H15   H     H_    0.114616 0.617732 0.602377 0.192156
C36   C     C_R   0.066141 0.564387 0.556349 0.048483
N2    N     N_R   0.148060 0.498710 0.499220 -0.209696
H16   H     H_    0.768460 0.452542 0.110164 0.170311
N3    N     N_R   0.519024 0.782172 0.670256 0.073718
O9    O     O_R   0.600776 0.724877 0.711067 -0.383993
O10   O     O_R   0.388406 0.749259 0.671527 -0.359088
H17   H     H_    0.584644 0.257851 0.635249 0.138986
N4    N     N_R   0.293572 0.607043 0.267090 0.120329
O11   O     O_R   0.174357 0.587898 0.238019 -0.355609
O12   O     O_R   0.302446 0.694069 0.322909 -0.359714
N5    N     N_R   0.255440 0.276692 0.381753 0.117218
O13   O     O_R   0.213509 0.181973 0.419606 -0.356922
O14   O     O_R   0.359718 0.261687 0.328645 -0.438576
N6    N     N_R   0.206043 0.488251 0.908617 0.135393
O15   O     O_R   0.193589 0.572762 0.966679 -0.332244
O16   O     O_R   0.097726 0.421673 0.891442 -0.304130
N7    N     N_R   0.210818 0.503242 0.746664 0.155875
O17   O     O_R   0.150399 0.411683 0.708883 -0.341218
O18   O     O_R   0.143448 0.606017 0.765436 -0.284550

loop_
_geom_bond_atom_site_label_1
_geom_bond_atom_site_label_2
_geom_bond_distance
_ccdc_geom_bond_type
C22   C23   1.412625 A    
C9    C10   1.408427 A    
C8    C16   1.470143 S    
N6    O15   1.301241 A    
Cu1   Cu2   2.709577 S    
C21   C22   1.384418 A    
C25   C26   1.394509 A    
Cu1   O7    1.966365 S    
C16   C17   1.340433 D    
C20   H8    1.083146 S    
H11   C35   1.081700 S    
C35   C36   1.421738 A    
C19   C20   1.402244 A    
Cu2   N1    2.036542 S    
O4    C2    1.309181 A    
O7    C4    1.302695 A    
N7    O18   1.300919 A    
C5    C6    1.402352 A    
C32   C33   1.438386 A    
C7    C8    1.399484 A    
C8    C9    1.411267 A    
N4    O12   1.300775 A    
O5    C3    1.307136 A    
C2    C5    1.476245 S    
C31   H14   1.083759 S    
C6    C7    1.381913 A    
N3    O10   1.300805 A    
C29   C30   1.381304 A    
C13   C14   1.389290 A    
C12   N4    1.438445 S    
N1    C35   1.369025 A    
C14   H16   1.083603 S    
C12   C18   1.419734 A    
C11   C12   1.395346 A    
H15   C36   1.081277 S    
O3    Cu1   1.975607 S    
C30   C31   1.374806 A    
C33   N2    1.403373 A    
C22   H17   1.075246 S    
C26   C27   1.378289 A    
C5    C10   1.418254 A    
C11   H4    1.083394 S    
C31   C32   1.398321 A    
C1    C25   1.457377 S    
C17   H3    1.085542 S    
C29   C34   1.407319 A    
C13   H2    1.078189 S    
C14   C15   1.393443 A    
N5    O14   1.302164 A    
C21   H9    1.082581 S    
C19   N3    1.422812 S    
C32   N5    1.417678 S    
C6    H1    1.083274 S    
O1    C1    1.302174 A    
C24   C25   1.431566 A    
C36   N2    1.367177 A    
C3    C28   1.453298 S    
C16   H5    1.086507 S    
C27   C28   1.391034 A    
Cu2   O8    1.975607 S    
C29   H12   1.065706 S    
C23   C28   1.412591 A    
C13   C18   1.405173 A    
N6    O16   1.301116 A    
Cu1   N2    2.036084 S    
O3    C2    1.304428 A    
O8    C4    1.308914 A    
C23   C24   1.422602 A    
H7    C26   1.083118 S    
C30   H13   1.082956 S    
Cu1   O5    1.968761 S    
C11   C15   1.400337 A    
H10   C27   1.078073 S    
O1    Cu1   1.961887 S    
O2    Cu2   1.968761 S    
N5    O13   1.302416 A    
O6    C3    1.293104 A    
O4    Cu2   1.966365 S    
C15   C17   1.462508 S    
C10   N7    1.432574 S    
C9    N6    1.437495 S    
O2    C1    1.303295 A    
C34   N1    1.368614 A    
C20   C21   1.382085 A    
N7    O17   1.301111 A    
C33   C34   1.436602 A    
N4    O11   1.301448 A    
Cu2   O6    1.961887 S    
N3    O9    1.301328 A    
C7    H6    1.082417 S    
C19   C24   1.427572 A    
C4    C18   1.471087 S    
