data_mof_unit_45050.cif
_audit_creation_date              2013-03-05T16:05:41-0500
_audit_creation_method            fapswitch 2.2
_symmetry_space_group_name_H-M    P1
_symmetry_Int_Tables_number       1
_space_group_crystal_system       triclinic
_cell_length_a                    10.638709
_cell_length_b                    14.956049
_cell_length_c                    15.31443
_cell_angle_alpha                 81.673498
_cell_angle_beta                  90.440116
_cell_angle_gamma                 103.170872
_cell_volume                      2346.80666079

loop_
_atom_site_label
_atom_site_type_symbol
_atom_site_description
_atom_site_fract_x
_atom_site_fract_y
_atom_site_fract_z
_atom_type_partial_charge
O1    O     O_R   0.462770 0.383110 0.605620 -0.568372
O2    O     O_R   0.510160 0.531900 0.639510 -0.569162
C1    C     C_R   0.480316 0.441695 0.662803 0.948993
O3    O     O_R   0.661510 0.425600 0.483070 -0.506293
O4    O     O_R   0.708900 0.574390 0.516960 -0.660651
C2    C     C_R   0.741463 0.499276 0.502274 1.020894
Zn1   Zn    Zn3+2 0.468350 0.400660 0.477370 1.098399
Zn2   Zn    Zn3+2 0.531650 0.599340 0.522630 0.997961
O5    O     O_R   0.489840 0.468100 0.360490 -0.524878
O6    O     O_R   0.537230 0.616890 0.394380 -0.639762
O7    O     O_R   0.291100 0.425610 0.483040 -0.599752
O8    O     O_R   0.338490 0.574400 0.516930 -0.561821
C3    C     C_R   0.520527 0.558310 0.337507 0.978454
C4    C     C_R   0.258117 0.499644 0.501285 1.023271
C5    C     C_3   0.896989 0.399012 0.504463 1.191555
C6    C     C_3   0.039507 0.399010 0.513055 -0.633485
H1    H     H_    0.056742 0.360706 0.578246 0.217350
H2    H     H_    0.067219 0.360502 0.462447 0.231585
C7    C     C_3   0.946310 0.563161 0.419670 0.308165
C8    C     C_3   0.940092 0.536946 0.586869 -0.685174
C9    C     C_3   0.878213 0.499327 0.503238 -0.348479
H3    H     H_    0.920154 0.605856 0.592340 0.238232
H4    H     H_    0.896507 0.489284 0.647123 0.240127
C10   C     C_3   0.121395 0.500619 0.502518 -0.302099
C11   C     C_3   0.088410 0.555048 0.413247 0.901546
C12   C     C_3   0.087699 0.546546 0.582678 0.977703
H5    H     H_    0.943555 0.636273 0.424638 0.112854
C13   C     C_R   0.471673 0.405100 0.757427 -0.304925
C14   C     C_R   0.560364 0.591893 0.245435 -0.217306
C15   C     C_R   0.384924 0.285578 0.880273 -0.306436
C16   C     C_R   0.389316 0.318798 0.789904 0.443312
C17   C     C_R   0.543511 0.459313 0.816170 0.537948
C18   C     C_R   0.539530 0.426454 0.906988 0.003831
C19   C     C_R   0.454287 0.340403 0.938916 0.004288
C20   C     C_R   0.605596 0.481990 0.968226 -0.116630
C21   C     C_R   0.555904 0.464830 0.055355 0.025399
C22   C     C_R   0.479704 0.375668 0.087162 -0.038401
C23   C     C_R   0.433000 0.312961 0.029537 -0.187288
C24   C     C_R   0.719980 0.552459 0.947207 0.455572
C25   C     C_R   0.761308 0.618178 0.003851 0.567277
C26   C     C_R   0.693267 0.613153 0.083688 -0.224546
C27   C     C_R   0.587848 0.536001 0.108490 -0.186007
C28   C     C_R   0.730738 0.681230 0.140570 0.651021
C29   C     C_R   0.664228 0.667878 0.222911 -0.415317
C30   C     C_R   0.514228 0.533465 0.184352 0.624397
H6    H     H_    0.371968 0.245945 0.055393 0.175584
H7    H     H_    0.694554 0.714206 0.271005 0.176636
H8    H     H_    0.321682 0.219080 0.904988 0.174902
H9    H     H_    0.457942 0.352555 0.156715 0.216971
N1    N     N_R   0.573860 0.731700 0.552730 -0.148712
N2    N     N_R   0.426060 0.268290 0.447230 -0.218555
C31   C     C_R   0.714553 0.843823 0.626424 0.446342
C32   C     C_R   0.669491 0.752274 0.610293 -0.092941
C33   C     C_R   0.517176 0.796149 0.508793 0.016083
C34   C     C_R   0.566267 0.890752 0.513878 -0.085008
C35   C     C_R   0.665468 0.913756 0.575089 -0.024789
C36   C     C_R   0.519343 0.962799 0.461805 -0.076217
C37   C     C_R   0.558059 0.054565 0.482560 -0.064571
C38   C     C_R   0.672701 0.076757 0.530026 0.540767
C39   C     C_R   0.719626 0.006860 0.580334 -0.280113
C40   C     C_R   0.442451 0.949306 0.386307 0.509180
C41   C     C_R   0.384864 0.019188 0.346877 -0.154714
C42   C     C_R   0.401826 0.103395 0.379728 -0.160479
C43   C     C_R   0.486772 0.121835 0.449588 -0.186620
C44   C     C_R   0.336138 0.169759 0.341795 0.414766
C45   C     C_R   0.347320 0.252822 0.377642 0.426010
C46   C     C_R   0.491112 0.204955 0.486007 0.561724
H10   H     H_    0.804675 0.026692 0.618823 0.219212
H11   H     H_    0.324923 0.006110 0.290459 0.210552
H12   H     H_    0.712439 0.697210 0.641337 0.186705
H13   H     H_    0.435192 0.771216 0.470271 0.239951
F1    F     F_    0.853104 0.367107 0.426504 -0.611015
F2    F     F_    0.148002 0.640945 0.568812 -0.656698
O9    O     O_3   0.171713 0.645337 0.397918 -0.622656
C47   C     C_3   0.184949 0.681528 0.307137 -0.137246
H14   H     H_    0.092149 0.666851 0.272246 0.179719
H15   H     H_    0.258192 0.653554 0.275196 0.201313
H16   H     H_    0.219313 0.757974 0.300154 0.195564
F3    F     F_    0.395575 0.475351 0.199777 -0.644019
F4    F     F_    0.869789 0.685435 0.980350 -0.609049
O10   O     O_3   0.312036 0.267679 0.733113 -0.619660
C48   C     C_3   0.182172 0.270312 0.747251 -0.281421
H17   H     H_    0.123996 0.239725 0.693936 0.197545
H18   H     H_    0.170449 0.342692 0.744624 0.197562
H19   H     H_    0.142839 0.228013 0.810998 0.166666
F5    F     F_    0.604101 0.548503 0.785723 -0.644624
F6    F     F_    0.828360 0.339555 0.574979 -0.624935
O11   O     O_3   0.797931 0.555074 0.874498 -0.535000
C49   C     C_3   0.865717 0.483874 0.892081 -0.261203
H20   H     H_    0.799575 0.414000 0.907205 0.147607
H21   H     H_    0.933741 0.496719 0.946875 0.175013
H22   H     H_    0.923006 0.483258 0.832210 0.187552
O12   O     O_3   0.828571 0.759543 0.111729 -0.543389
C50   C     C_3   0.899255 0.797884 0.181198 -0.246134
H23   H     H_    0.922744 0.743576 0.232212 0.159861
H24   H     H_    0.846351 0.842617 0.210974 0.141942
H25   H     H_    0.992202 0.842815 0.153509 0.199745
O13   O     O_3   0.556120 0.222808 0.562194 -0.498350
C51   C     C_3   0.480745 0.169450 0.635174 -0.147452
H26   H     H_    0.488558 0.096006 0.643083 0.119283
H27   H     H_    0.377068 0.171889 0.630070 0.168927
H28   H     H_    0.518192 0.197537 0.695850 0.208306
O14   O     O_3   0.291616 0.324379 0.339829 -0.524743
C52   C     C_3   0.164529 0.292174 0.311992 -0.058748
H29   H     H_    0.110336 0.346637 0.314755 0.228199
H30   H     H_    0.110818 0.228384 0.354631 0.080786
H31   H     H_    0.165926 0.281598 0.241793 0.215191
O15   O     O_3   0.814796 0.868341 0.683649 -0.638970
C53   C     C_3   0.797655 0.806632 0.764001 -0.170306
H32   H     H_    0.834139 0.743985 0.757243 0.211053
H33   H     H_    0.695303 0.786814 0.788606 0.162289
H34   H     H_    0.855928 0.841863 0.814830 0.217620
O16   O     O_3   0.753050 0.164167 0.514894 -0.504511
C54   C     C_3   0.832583 0.168357 0.440060 -0.152922
H35   H     H_    0.863836 0.102689 0.435891 0.092568
H36   H     H_    0.922535 0.221524 0.443962 0.193172
H37   H     H_    0.782567 0.188246 0.378810 0.184411
O17   O     O_3   0.427785 0.870960 0.345858 -0.640517
C55   C     C_3   0.535502 0.881539 0.289005 -0.350739
H38   H     H_    0.626370 0.886233 0.326342 0.167192
H39   H     H_    0.544196 0.943211 0.237169 0.175121
H40   H     H_    0.521891 0.819388 0.255181 0.206341
F7    F     F_    0.267457 0.154926 0.267978 -0.702300
F8    F     F_    0.881904 0.540761 0.343763 -0.618032
F9    F     F_    0.102866 0.504128 0.346011 -0.641014
O18   O     O_3   0.128168 0.500022 0.662023 -0.681464
C56   C     C_3   0.159417 0.558918 0.727012 -0.204337
H41   H     H_    0.167620 0.515741 0.791177 0.149163
H42   H     H_    0.083658 0.597849 0.734984 0.192081
H43   H     H_    0.254705 0.607771 0.710942 0.223647

loop_
_geom_bond_atom_site_label_1
_geom_bond_atom_site_label_2
_geom_bond_distance
_ccdc_geom_bond_type
C34   C35   1.422551 A    
C42   C44   1.397790 A    
O12   C50   1.412105 S    
C26   C27   1.422463 A    
C21   C27   1.411536 A    
C20   C21   1.405557 A    
C28   C29   1.416716 A    
C52   H30   1.113548 S    
C54   H35   1.116479 S    
Zn1   O7    2.008795 S    
C5    F1    1.387792 S    
N1    C33   1.347710 A    
C3    C14   1.458478 S    
C1    C13   1.468795 S    
C7    C9    1.555425 S    
C22   C23   1.387749 A    
C10   C12   1.571801 S    
C53   H33   1.114630 S    
C15   C16   1.398429 A    
O7    C4    1.302068 A    
C5    C6    1.520905 S    
C12   F2    1.397302 S    
O15   C53   1.413192 S    
C11   O9    1.424799 S    
C12   O18   1.424658 S    
C4    C10   1.458227 S    
C11   F9    1.395263 S    
O17   C55   1.410371 S    
O5    C3    1.309294 A    
C46   O13   1.380074 S    
C18   C20   1.418761 A    
C33   H13   1.074906 S    
C6    H1    1.112628 S    
C25   F4    1.358598 S    
C49   H21   1.113005 S    
C7    H5    1.114020 S    
C29   H7    1.081173 S    
Zn2   O8    2.006747 S    
C38   C39   1.390781 A    
C6    C10   1.556344 S    
C19   C23   1.394020 A    
C26   C28   1.421615 A    
C40   C41   1.391276 A    
C24   O11   1.384177 S    
O3    Zn1   2.006746 S    
C32   H12   1.080627 S    
C52   H29   1.105473 S    
O10   C48   1.410340 S    
C55   H39   1.113398 S    
C37   C43   1.427250 A    
C7    F8    1.388891 S    
N1    C32   1.352411 A    
O9    C47   1.412786 S    
C15   C19   1.396704 A    
C43   C46   1.425799 A    
C13   C17   1.403259 A    
C10   C11   1.566964 S    
O3    C2    1.298878 A    
C53   H34   1.109254 S    
C24   C25   1.398588 A    
C50   H25   1.109174 S    
C37   C38   1.413463 A    
C2    C9    1.454630 S    
C35   C39   1.394082 A    
C41   H11   1.084001 S    
C14   C30   1.383428 A    
O1    C1    1.309446 A    
N2    C45   1.363936 A    
C20   C24   1.420749 A    
C47   H14   1.111534 S    
C56   H42   1.113319 S    
C41   C42   1.396552 A    
C22   H9    1.080889 S    
C51   H26   1.109526 S    
C8    H4    1.113588 S    
C38   O16   1.378223 S    
C17   F5    1.358280 S    
C18   C19   1.417914 A    
C30   F3    1.360078 S    
N2    C46   1.363225 A    
C8    C9    1.554739 S    
C49   H22   1.107182 S    
C50   H24   1.111854 S    
C47   H15   1.111387 S    
C39   H10   1.083617 S    
Zn2   O6    1.943038 S    
C25   C26   1.409504 A    
C51   H27   1.113636 S    
C8    H3    1.113146 S    
O13   C51   1.411672 S    
C48   H18   1.112594 S    
C34   C36   1.427014 A    
C14   C29   1.396959 A    
C56   H41   1.109415 S    
Zn2   N1    2.046677 S    
C31   C32   1.400935 A    
C5    F6    1.388581 S    
O16   C54   1.415340 S    
C55   H40   1.109178 S    
C15   H8    1.083978 S    
Zn1   O5    1.910979 S    
C33   C34   1.405457 A    
C21   C22   1.413517 A    
C40   O17   1.380749 S    
O1    Zn1   1.943038 S    
C45   O14   1.391463 S    
C13   C16   1.409418 A    
O2    Zn2   1.910979 S    
O8    C4    1.295130 A    
O6    C3    1.305932 A    
O4    Zn2   2.008794 S    
C54   H36   1.103526 S    
C55   H38   1.112945 S    
C36   C40   1.422859 A    
C48   H19   1.111366 S    
C16   O10   1.382762 S    
C17   C18   1.403976 A    
O2    C1    1.309694 A    
C56   H43   1.111893 S    
Zn1   N2    2.047041 S    
C44   C45   1.409967 A    
C53   H32   1.110716 S    
C36   C37   1.421641 A    
O4    C2    1.297837 A    
C8    C12   1.544941 S    
O18   C56   1.411513 S    
C28   O12   1.397116 S    
C44   F7    1.359095 S    
C50   H23   1.112760 S    
C7    C11   1.548920 S    
C47   H16   1.107702 S    
C23   H6    1.084153 S    
C54   H37   1.111360 S    
C42   C43   1.412225 A    
C5    C9    1.555496 S    
C51   H28   1.108938 S    
O11   C49   1.410834 S    
C31   O15   1.392954 S    
C6    H2    1.108802 S    
C48   H17   1.109219 S    
O14   C52   1.412661 S    
C49   H20   1.112736 S    
C27   C30   1.397247 A    
C52   H31   1.109753 S    
C31   C35   1.410368 A    
