data_mof_unit_51699.cif
_audit_creation_date              2012-12-11T14:15:16-0500
_audit_creation_method            fapswitch 2.2
_symmetry_space_group_name_H-M    P1
_symmetry_Int_Tables_number       1
_space_group_crystal_system       triclinic
_cell_length_a                    11.148529
_cell_length_b                    12.701632
_cell_length_c                    23.60214
_cell_angle_alpha                 90.38997
_cell_angle_beta                  96.043882
_cell_angle_gamma                 68.654963
_cell_volume                      3093.81906155

loop_
_atom_site_label
_atom_site_type_symbol
_atom_type_description
_atom_site_fract_x
_atom_site_fract_y
_atom_site_fract_z
_atom_type_partial_charge
C1    C     C_R   0.149449 0.616698 0.428718 0.544423
C2    C     C_R   0.604450 0.597946 0.320169 -0.129425
C3    C     C_R   0.722493 0.725889 0.320201 -0.133227
C4    C     C_R   0.692197 0.744921 0.261336 0.039921
C5    C     C_R   0.617720 0.687254 0.232838 0.026600
C6    C     C_R   0.592524 0.696692 0.174743 -0.123175
C7    C     C_R   0.708622 0.824197 0.170049 -0.115342
C8    C     C_R   0.737904 0.815686 0.229910 -0.005879
C9    C     C_1   0.233958 0.162408 0.122847 -0.001170
C10   C     C_2   0.175345 0.233811 0.225831 -0.118404
C11   C     C_2   0.166259 0.161130 0.264643 -0.128673
C12   C     C_R   0.748439 0.605472 0.404988 0.545732
C13   C     C_1   0.138741 0.196609 0.321669 -0.048577
C14   C     C_1   0.207162 0.197542 0.169355 -0.046664
C15   C     C_1   0.119095 0.231070 0.368923 -0.002178
C16   C     C_1   0.166944 0.749709 0.123703 -0.016270
C17   C     C_2   0.147489 0.680886 0.227216 -0.131940
C18   C     C_2   0.228049 0.689551 0.271920 -0.138067
C19   C     C_1   0.213937 0.658462 0.329031 -0.057495
C20   C     C_1   0.156363 0.718010 0.170484 -0.060228
C21   C     C_1   0.193153 0.636318 0.375908 -0.009913
C22   C     C_1   0.628501 0.755897 0.864728 -0.007500
C23   C     C_R   0.101738 0.282359 0.423428 0.544598
C24   C     C_2   0.700703 0.703342 0.761602 -0.125679
C25   C     C_2   0.611517 0.705524 0.718325 -0.127513
C26   C     C_1   0.650190 0.670223 0.662633 -0.052913
C27   C     C_1   0.664196 0.733789 0.818063 -0.047380
C28   C     C_1   0.689520 0.639691 0.617285 -0.009788
C29   C     C_R   0.210169 0.172912 0.851270 0.031731
C30   C     C_R   0.102589 0.226808 0.639845 0.011018
C31   C     C_R   0.982285 0.220088 0.718601 -0.131529
C32   C     C_R   0.986756 0.232170 0.660496 -0.143306
C33   C     C_R   0.215014 0.201933 0.676889 -0.118627
C34   C     C_R   0.146555 0.615372 0.591545 0.545074
C35   C     C_R   0.209521 0.196290 0.734770 0.007359
C36   C     C_R   0.094333 0.199978 0.756676 0.052693
C37   C     C_R   0.095438 0.185120 0.815932 0.247465
C38   C     C_R   0.312799 0.191960 0.828482 -0.163043
C39   C     C_R   0.315143 0.197790 0.770773 -0.156830
C40   C     C_R   0.131368 0.742661 0.853646 0.010634
C41   C     C_R   0.177460 0.631953 0.651276 0.017256
C42   C     C_R   0.315997 0.578934 0.740152 -0.139178
C43   C     C_R   0.297708 0.569739 0.681276 -0.135290
C44   C     C_R   0.075140 0.700999 0.680222 -0.119188
C45   C     C_R   0.749672 0.602161 0.566129 0.544312
C46   C     C_R   0.091579 0.709069 0.738450 0.040775
C47   C     C_R   0.213227 0.648725 0.768796 0.043521
C48   C     C_R   0.231475 0.664035 0.826745 -0.122171
C49   C     C_R   0.007952 0.794390 0.824254 -0.144542
C50   C     C_R   0.988232 0.778359 0.766508 -0.152322
C51   C     C_R   0.265360 0.109934 0.069453 0.547191
C52   C     C_R   0.594155 0.776750 0.082407 0.543450
C53   C     C_R   0.189488 0.788116 0.069927 0.544981
C54   C     C_R   0.242162 0.115089 0.907336 0.560118
C55   C     C_R   0.573832 0.776499 0.918022 0.546522
C56   C     C_R   0.098802 0.278421 0.584781 0.545636
C57   C     C_R   0.164860 0.785862 0.907554 0.539640
C58   C     C_R   0.638636 0.763196 0.142919 0.000820
C59   C     C_R   0.684749 0.648056 0.348717 0.012247
C60   C     C_R   0.570733 0.617776 0.262299 -0.146540
Cr1   Cr    Cr6+3 0.189770 0.415650 0.511620 1.027843
Cr2   Cr    Cr6+3 0.930400 0.667320 0.496770 1.016832
Cr3   Cr    Cr6+3 0.879870 0.417010 0.491650 1.022585
Cr4   Cr    Cr6+3 0.149500 0.973980 0.985330 1.013466
Cr5   Cr    Cr6+3 0.457000 0.976510 0.994660 1.019736
Cr6   Cr    Cr6+3 0.411170 0.724270 0.995270 1.022676
H1    H     H_    0.533111 0.652850 0.154343 0.142402
H2    H     H_    0.072641 0.647379 0.233120 0.138270
H3    H     H_    0.509663 0.732571 0.724662 0.139313
H4    H     H_    0.802574 0.673927 0.755282 0.143945
H5    H     H_    0.398869 0.190809 0.854920 0.147366
H6    H     H_    0.889363 0.233604 0.733161 0.136392
H7    H     H_    0.400143 0.203089 0.754346 0.113946
H8    H     H_    0.897221 0.254382 0.632416 0.137313
H9    H     H_    0.304141 0.199634 0.661322 0.130421
H10   H     H_    0.327044 0.622311 0.849472 0.132782
H11   H     H_    0.738862 0.877449 0.143917 0.119050
H12   H     H_    0.929267 0.852047 0.845093 0.124104
H13   H     H_    0.409841 0.532170 0.763151 0.111927
H14   H     H_    0.894086 0.823793 0.743399 0.104701
H15   H     H_    0.376225 0.514121 0.659356 0.124127
H16   H     H_    0.980179 0.746554 0.657710 0.133680
H17   H     H_    0.512581 0.574728 0.240118 0.114224
H18   H     H_    0.573705 0.538872 0.341942 0.138622
H19   H     H_    0.783744 0.764402 0.343487 0.127379
H20   H     H_    0.182981 0.073844 0.254209 0.130061
H21   H     H_    0.160076 0.320781 0.236468 0.137656
H22   H     H_    0.300849 0.725414 0.266183 0.139862
O1    O     O_R   0.196340 0.303200 0.448500 -0.506995
O2    O     O_R   0.811960 0.658090 0.547150 -0.498559
O3    O     O_R   0.757930 0.506140 0.547110 -0.511473
O4    O     O_R   0.988670 0.321620 0.556040 -0.505571
O5    O     O_3   0.000020 0.499990 0.500010 -0.247359
O6    O     O_R   0.113660 0.883270 0.047820 -0.511371
O7    O     O_R   0.186930 0.068530 0.043990 -0.496065
O8    O     O_R   0.377770 0.089040 0.054220 -0.508203
O9    O     O_R   0.562800 0.872960 0.056970 -0.499842
O10   O     O_R   0.555390 0.700940 0.062700 -0.521442
O11   O     O_R   0.295020 0.731920 0.049950 -0.498319
O12   O     O_R   0.199310 0.519670 0.454880 -0.491631
O13   O     O_R   0.094290 0.884230 0.921550 -0.543192
O14   O     O_R   0.168980 0.069410 0.926940 -0.480467
O15   O     O_R   0.358400 0.089990 0.927950 -0.533791
O16   O     O_R   0.544850 0.873850 0.939920 -0.496436
O17   O     O_R   0.536020 0.701900 0.936430 -0.507500
O18   O     O_R   0.277070 0.732810 0.932890 -0.504406
O19   O     O_3   0.339220 0.891590 0.991750 -0.249130
O20   O     O_R   0.045660 0.691380 0.441680 -0.514273
O21   O     O_R   0.811930 0.659460 0.430950 -0.510026
O22   O     O_R   0.757900 0.507620 0.421760 -0.514375
O23   O     O_R   0.988630 0.322990 0.439840 -0.495176
O24   O     O_R   0.196380 0.301720 0.573850 -0.520451
O25   O     O_R   0.199350 0.518300 0.571080 -0.498213
O26   O     O_R   0.045700 0.689900 0.567030 -0.523624
O27   O     O_3   0.983004 0.198631 0.840208 -0.562411
C61   C     C_3   0.951467 0.100668 0.834055 0.006996
H23   H     H_    0.038158 0.021760 0.841904 0.169536
H24   H     H_    0.904580 0.097002 0.790731 0.104159
C62   C     C_3   0.855107 0.105032 0.876060 -0.327006
H25   H     H_    0.769245 0.184807 0.868861 0.145859
H26   H     H_    0.821677 0.033127 0.870259 0.085749
H27   H     H_    0.900851 0.101614 0.920478 0.178917
C63   C     C_3   0.816470 0.879744 0.260642 -0.261125
C64   C     C_3   0.855285 0.957554 0.222869 -0.301484
C65   C     C_3   0.932974 0.016874 0.258179 -0.440283
H28   H     H_    0.875699 0.068073 0.291205 0.159968
H29   H     H_    0.024732 0.953822 0.279116 0.161439
H30   H     H_    0.956689 0.074133 0.229788 0.153465
H31   H     H_    0.915986 0.907264 0.190573 0.173279
H32   H     H_    0.766855 0.023062 0.200799 0.167868
H33   H     H_    0.758321 0.932671 0.293031 0.146990
H34   H     H_    0.906466 0.816988 0.283165 0.151545

loop_
_geom_bond_atom_site_label_1
_geom_bond_atom_site_label_2
_ccdc_geom_bond_type
C1    C21   S    
C63   H34   S    
C3    H19   S    
C6    C58   A    
C2    H18   S    
C35   C36   A    
C9    C51   S    
C24   C27   S    
Cr6   O19   S    
C4    C8    A    
C12   O22   A    
C24   H4    S    
C7    C8    A    
C53   O11   A    
C34   O25   A    
Cr4   O14   S    
C55   O17   A    
C36   C37   A    
C19   C21   T    
Cr2   O26   S    
C44   H16   S    
C32   H8    S    
C5    C6    A    
C60   H17   S    
Cr1   O5    S    
Cr2   O20   S    
C29   C54   S    
C11   H20   S    
C40   C49   A    
C52   O9    A    
C17   C20   S    
C49   H12   S    
C18   C19   S    
C48   H10   S    
C16   C53   S    
C46   C47   A    
C12   C59   S    
C33   H9    S    
Cr5   O8    S    
C47   C48   A    
C44   C46   A    
C29   C38   A    
C64   H31   S    
C65   H30   S    
C23   O1    A    
C7    C58   A    
C5    C60   A    
C51   O8    A    
C7    H11   S    
Cr5   O19   S    
C15   C23   S    
C57   O18   A    
C42   H13   S    
C41   C43   A    
C34   C41   S    
Cr6   O18   S    
C1    O12   A    
C12   O21   A    
Cr1   O1    S    
C62   H26   S    
Cr4   O13   S    
C10   H21   S    
C28   C45   S    
C54   O15   A    
C63   C64   S    
C24   C25   D    
C10   C14   S    
C2    C59   A    
C25   C26   S    
C30   C56   S    
C55   O16   A    
C18   H22   S    
Cr6   O11   S    
Cr3   O4    S    
C35   C39   A    
C9    C14   T    
C31   C32   A    
C16   C20   T    
C17   C18   D    
C64   H32   S    
C45   O2    A    
C52   C58   S    
C31   H6    S    
C22   C27   T    
C13   C15   T    
Cr1   O25   S    
C65   H28   S    
C43   H15   S    
C41   C44   A    
Cr1   O12   S    
C25   H3    S    
C42   C43   A    
Cr5   O15   S    
Cr6   O17   S    
C29   C37   A    
C3    C4    A    
C23   O23   A    
Cr4   O19   S    
C62   H27   S    
C40   C48   A    
C46   C50   A    
C38   H5    S    
C6    H1    S    
C17   H2    S    
C40   C57   S    
C30   C33   A    
C63   H33   S    
C53   O6    A    
C54   O14   A    
Cr4   O7    S    
C4    C5    A    
C50   H14   S    
C62   H25   S    
C8    C63   S    
C22   C55   S    
C37   O27   S    
C34   O26   A    
C57   O13   A    
Cr3   O5    S    
C26   C28   T    
C61   C62   S    
Cr6   O10   S    
Cr3   O22   S    
Cr4   O6    S    
C30   C32   A    
C11   C13   S    
C38   C39   A    
Cr2   O21   S    
Cr2   O2    S    
C52   O10   A    
C33   C35   A    
C61   H24   S    
C61   H23   S    
C2    C60   A    
C42   C47   A    
C39   H7    S    
Cr3   O23   S    
C45   O3    A    
C10   C11   D    
C1    O20   A    
Cr5   O9    S    
C56   O4    A    
C49   C50   A    
Cr2   O5    S    
Cr3   O3    S    
C65   H29   S    
C31   C36   A    
Cr5   O16   S    
Cr1   O24   S    
C56   O24   A    
O27   C61   S    
C51   O7    A    
C64   C65   S    
C3    C59   A    
