data_mof_unit_43277.cif
_audit_creation_date              2012-12-11T14:46:00-0500
_audit_creation_method            fapswitch 2.2
_symmetry_space_group_name_H-M    P1
_symmetry_Int_Tables_number       1
_space_group_crystal_system       triclinic
_cell_length_a                    10.933151
_cell_length_b                    10.94791
_cell_length_c                    18.809767
_cell_angle_alpha                 90.067734
_cell_angle_beta                  89.770735
_cell_angle_gamma                 119.856351
_cell_volume                      1952.6021826

loop_
_atom_site_label
_atom_site_type_symbol
_atom_type_description
_atom_site_fract_x
_atom_site_fract_y
_atom_site_fract_z
_atom_type_partial_charge
C1    C     C_R   0.872145 0.633476 0.606702 0.546277
C2    C     C_R   0.267887 0.546214 0.798711 -0.112112
C3    C     C_R   0.257270 0.530351 0.725961 0.264706
C4    C     C_R   0.292080 0.648250 0.682091 0.023425
C5    C     C_R   0.855453 0.169860 0.823281 -0.047832
C6    C     C_R   0.053847 0.120394 0.811237 -0.054828
C7    C     C_R   0.127173 0.071450 0.770308 -0.119761
C8    C     C_R   0.099102 0.045943 0.698085 -0.117802
C9    C     C_R   0.003245 0.076666 0.665645 -0.051014
C10   C     C_R   0.927942 0.126066 0.706138 0.049413
C11   C     C_R   0.945774 0.138956 0.781140 0.033064
C12   C     C_R   0.261402 0.626390 0.606464 0.559399
C13   C     C_R   0.730066 0.167508 0.716843 0.022916
C14   C     C_R   0.762099 0.204520 0.788421 0.019232
C15   C     C_R   0.599483 0.145854 0.690639 -0.075914
C16   C     C_R   0.516063 0.183159 0.730890 -0.145529
C17   C     C_R   0.562038 0.244562 0.797235 -0.120555
C18   C     C_R   0.686543 0.259250 0.825178 -0.059905
C19   C     C_R   0.829749 0.155284 0.673516 -0.036611
C20   C     C_R   0.714810 0.567789 0.711062 -0.129842
C21   C     C_R   0.696704 0.575004 0.783672 -0.130719
C22   C     C_R   0.815035 0.647040 0.827625 0.025752
C23   C     C_R   0.858391 0.222071 0.602012 0.539764
C24   C     C_R   0.950837 0.705882 0.798930 -0.128132
C25   C     C_R   0.967850 0.703881 0.726312 -0.119193
C26   C     C_R   0.849641 0.639495 0.681965 0.040166
C27   C     C_R   0.243821 0.536707 0.275247 -0.127577
C28   C     C_R   0.260093 0.553171 0.202651 -0.137908
C29   C     C_R   0.333416 0.688414 0.173591 0.023456
C30   C     C_R   0.377602 0.807277 0.217356 -0.139798
C31   C     C_R   0.358489 0.790387 0.290568 -0.151210
C32   C     C_R   0.297062 0.655091 0.319712 0.031643
C33   C     C_R   0.786055 0.252751 0.275181 -0.127536
C34   C     C_R   0.870178 0.636574 0.395515 0.545165
C35   C     C_R   0.784674 0.236165 0.202545 -0.139354
C36   C     C_R   0.851431 0.167854 0.172541 0.023649
C37   C     C_R   0.931481 0.128598 0.215386 -0.139535
C38   C     C_R   0.934814 0.147615 0.288598 -0.152293
C39   C     C_R   0.857141 0.204476 0.318789 0.031968
C40   C     C_R   0.965361 0.714349 0.276382 -0.127737
C41   C     C_R   0.949625 0.715313 0.203842 -0.137836
C42   C     C_R   0.814480 0.650498 0.174616 0.024223
C43   C     C_R   0.695403 0.572800 0.218133 -0.139691
C44   C     C_R   0.711615 0.569605 0.291254 -0.150842
C45   C     C_R   0.265929 0.630787 0.394810 0.542717
C46   C     C_R   0.846424 0.645366 0.320631 0.031478
C47   C     C_R   0.811000 0.107365 0.895718 0.526237
C48   C     C_R   0.392104 0.700311 0.897803 0.547010
C49   C     C_R   0.797602 0.689621 0.898030 0.543367
C50   C     C_R   0.808966 0.107955 0.102050 0.544345
C51   C     C_R   0.393680 0.704496 0.103137 0.544822
C52   C     C_R   0.797532 0.692827 0.104053 0.545041
C53   C     C_R   0.864779 0.235488 0.393962 0.540234
C54   C     C_R   0.336347 0.780167 0.712838 -0.204189
C55   C     C_R   0.356232 0.796880 0.785916 -0.161255
C56   C     C_R   0.327519 0.680246 0.828491 -0.025239
Cr1   Cr    Cr6+3 0.791660 0.390250 0.499930 1.008939
Cr2   Cr    Cr6+3 0.098520 0.708290 0.500540 1.000207
Cr3   Cr    Cr6+3 0.109770 0.401430 0.499480 1.025783
Cr4   Cr    Cr6+3 0.874790 0.925890 0.000070 1.005771
Cr5   Cr    Cr6+3 0.574120 0.948670 0.999300 1.011200
Cr6   Cr    Cr6+3 0.551420 0.625320 0.000920 1.003845
H1    H     H_    0.357833 0.870032 0.680209 0.120665
H2    H     H_    0.417060 0.166339 0.709916 0.086838
H3    H     H_    0.559513 0.096986 0.639526 0.127111
H4    H     H_    0.499385 0.277290 0.827897 0.097656
H5    H     H_    0.625197 0.509807 0.677134 0.101036
H6    H     H_    0.590753 0.530480 0.804788 0.125917
H7    H     H_    0.043547 0.761409 0.832006 0.127575
H8    H     H_    0.073585 0.753544 0.704702 0.136286
H9    H     H_    0.189004 0.430728 0.296582 0.143446
H10   H     H_    0.223496 0.460256 0.169666 0.129972
H11   H     H_    0.434996 0.912938 0.195737 0.139789
H12   H     H_    0.401451 0.901609 0.808330 0.157167
H13   H     H_    0.394683 0.882095 0.324360 0.121792
H14   H     H_    0.731462 0.304032 0.297175 0.143594
H15   H     H_    0.724075 0.268951 0.170358 0.129965
H16   H     H_    0.983752 0.075243 0.193098 0.139932
H17   H     H_    0.994589 0.115149 0.321590 0.121468
H18   H     H_    0.071270 0.767234 0.297786 0.143707
H19   H     H_    0.042807 0.774033 0.171073 0.130670
H20   H     H_    0.589790 0.522224 0.196409 0.139927
H21   H     H_    0.619644 0.511353 0.324811 0.122031
H22   H     H_    0.242701 0.454664 0.831066 0.136033
H23   H     H_    0.206648 0.053947 0.794710 0.095229
H24   H     H_    0.155590 0.007123 0.666560 0.103450
H25   H     H_    0.085686 0.146643 0.865961 0.123104
H26   H     H_    0.985037 0.057454 0.609156 0.112250
H27   H     H_    0.719021 0.305581 0.877484 0.123504
O1    O     O_R   0.766500 0.250040 0.579790 -0.526320
O2    O     O_R   0.218690 0.701900 0.425960 -0.507189
O3    O     O_R   0.249490 0.516440 0.419420 -0.528498
O4    O     O_R   0.982880 0.281910 0.424890 -0.513877
O5    O     O_3   0.999980 0.499990 0.499980 -0.250424
O6    O     O_R   0.895110 0.806860 0.920430 -0.520416
O7    O     O_R   0.872260 0.046970 0.925000 -0.507602
O8    O     O_R   0.691430 0.085060 0.918550 -0.517862
O9    O     O_R   0.451490 0.822460 0.925250 -0.499715
O10   O     O_R   0.413330 0.603360 0.920440 -0.532230
O11   O     O_R   0.676110 0.626250 0.926750 -0.510235
O12   O     O_R   0.798570 0.516780 0.574780 -0.497572
O13   O     O_R   0.895350 0.809870 0.080950 -0.525524
O14   O     O_R   0.872490 0.049760 0.073800 -0.507867
O15   O     O_R   0.691680 0.088070 0.079070 -0.526370
O16   O     O_R   0.451720 0.825250 0.074050 -0.507027
O17   O     O_R   0.413580 0.606370 0.080960 -0.524480
O18   O     O_R   0.676340 0.629040 0.075550 -0.506738
O19   O     O_3   0.666780 0.833290 0.000090 -0.235907
O20   O     O_R   0.984000 0.732950 0.581090 -0.534083
O21   O     O_R   0.218600 0.700890 0.574760 -0.520903
O22   O     O_R   0.249390 0.515350 0.579940 -0.478099
O23   O     O_R   0.982790 0.280900 0.573700 -0.472409
O24   O     O_R   0.766600 0.251130 0.419260 -0.528072
O25   O     O_R   0.798660 0.517790 0.425980 -0.507717
O26   O     O_R   0.984100 0.734040 0.420570 -0.524475
O27   O     O_3   0.212790 0.398072 0.698290 -0.537589
C57   C     C_3   0.333225 0.385124 0.686352 -0.091115
H28   H     H_    0.374438 0.369782 0.737442 0.095640
H29   H     H_    0.416452 0.477116 0.656868 0.114096
H30   H     H_    0.304372 0.292745 0.651951 0.137004

loop_
_geom_bond_atom_site_label_1
_geom_bond_atom_site_label_2
_ccdc_geom_bond_type
C55   C56   A    
C50   O15   A    
Cr2   O20   S    
C41   C42   A    
C14   C18   A    
C20   H5    S    
C2    H22   S    
C35   C36   A    
C44   H21   S    
C12   O21   A    
C27   H9    S    
C7    C8    A    
C39   C53   S    
C40   C46   A    
C23   O23   A    
C5    C47   S    
C52   O13   A    
C17   H4    S    
C33   C39   A    
C28   C29   A    
C5    C11   A    
C3    O27   S    
C57   H29   S    
C9    H26   S    
C29   C51   S    
C38   C39   A    
Cr6   O19   S    
C38   H17   S    
C15   C16   A    
C15   H3    S    
O27   C57   S    
C32   C45   S    
C45   O3    A    
Cr5   O19   S    
C1    O20   A    
C55   H12   S    
Cr5   O9    S    
C52   O18   A    
C44   C46   A    
C8    C9    A    
Cr3   O22   S    
C47   O7    A    
C40   H18   S    
C34   C46   S    
Cr3   O5    S    
C4    C12   S    
Cr4   O14   S    
Cr5   O16   S    
Cr2   O2    S    
Cr4   O19   S    
Cr3   O3    S    
C50   O14   A    
C21   C22   A    
C28   H10   S    
Cr4   O13   S    
C53   O24   A    
C24   H7    S    
C17   C18   A    
Cr1   O1    S    
C13   C19   A    
C53   O4    A    
Cr5   O15   S    
C24   C25   A    
C57   H30   S    
C6    C11   A    
C30   H11   S    
C16   C17   A    
Cr1   O24   S    
Cr6   O18   S    
C25   C26   A    
C35   H15   S    
C6    H25   S    
C19   C23   S    
C43   C44   A    
C37   C38   A    
C16   H2    S    
C33   H14   S    
C31   H13   S    
C31   C32   A    
C10   C19   A    
C51   O16   A    
C41   H19   S    
Cr3   O23   S    
C23   O1    A    
C49   O6    A    
C5    C14   A    
C6    C7    A    
C22   C49   S    
Cr6   O11   S    
Cr4   O7    S    
C40   C41   A    
Cr1   O5    S    
C13   C15   A    
C21   H6    S    
C1    C26   S    
C22   C24   A    
C42   C43   A    
C3    C4    A    
C1    O12   A    
C36   C50   S    
C9    C10   A    
C48   C56   S    
C48   O10   A    
C54   C55   A    
C36   C37   A    
C4    C54   A    
C27   C32   A    
Cr2   O21   S    
C18   H27   S    
Cr5   O8    S    
Cr1   O25   S    
Cr6   O17   S    
C34   O25   A    
Cr1   O12   S    
C37   H16   S    
C47   O8    A    
C2    C3    A    
C34   O26   A    
C2    C56   A    
C57   H28   S    
C49   O11   A    
C30   C31   A    
Cr2   O26   S    
C7    H23   S    
C20   C26   A    
C51   O17   A    
C33   C35   A    
C8    H24   S    
C48   O9    A    
Cr2   O5    S    
C45   O2    A    
C10   C11   A    
C29   C30   A    
Cr6   O10   S    
Cr4   O6    S    
C20   C21   A    
C54   H1    S    
C27   C28   A    
C43   H20   S    
C25   H8    S    
Cr3   O4    S    
C13   C14   A    
C12   O22   A    
C42   C52   S    
