data_mof_unit_14573.cif
_audit_creation_date              2012-12-10T19:00:10-0500
_audit_creation_method            fapswitch 2.2
_symmetry_space_group_name_H-M    P1
_symmetry_Int_Tables_number       1
_space_group_crystal_system       triclinic
_cell_length_a                    9.632254
_cell_length_b                    10.924158
_cell_length_c                    13.473321
_cell_angle_alpha                 91.804223
_cell_angle_beta                  74.00012
_cell_angle_gamma                 90.33691
_cell_volume                      1362.11963733

loop_
_atom_site_label
_atom_site_type_symbol
_atom_type_description
_atom_site_fract_x
_atom_site_fract_y
_atom_site_fract_z
_atom_type_partial_charge
C1    C     C_R   0.501736 0.737093 0.498868 0.788260
C2    C     C_R   0.429794 0.474654 0.977364 0.075512
C3    C     C_R   0.470318 0.441904 0.870334 -0.084065
C4    C     C_R   0.535898 0.474959 0.032915 0.000937
C5    C     C_R   0.669049 0.413670 0.986556 -0.136180
C6    C     C_R   0.694805 0.358932 0.888025 -0.245095
C7    C     C_R   0.597386 0.372095 0.829838 0.475992
C8    C     C_R   0.514901 0.530740 0.133322 0.081171
C9    C     C_R   0.757213 0.473636 0.132160 0.369421
C10   C     C_R   0.373273 0.466152 0.811185 -0.229835
C11   C     C_R   0.381365 0.936247 0.506765 0.001937
C12   C     C_R   0.422798 0.487393 0.698538 0.847459
C13   C     C_R   0.507061 0.870097 0.497726 -0.089368
C14   C     C_R   0.636473 0.939005 0.489567 0.141539
C15   C     C_R   0.629136 0.067672 0.494286 -0.236281
C16   C     C_R   0.499463 0.130453 0.501825 -0.172153
C17   C     C_R   0.376934 0.059880 0.508992 0.076032
C18   C     C_3   0.218088 0.062988 0.520828 0.350775
C19   C     C_3   0.224128 0.921815 0.518487 -0.505121
C20   C     C_R   0.961826 0.468271 0.412658 0.164227
C21   C     C_R   0.897744 0.552950 0.580279 0.248444
C22   C     C_R   0.045453 0.548684 0.580615 -0.063928
C23   C     C_R   0.498935 0.263053 0.501283 0.828306
C24   C     C_R   0.107626 0.471173 0.412454 0.140746
C25   C     C_3   0.147686 0.360864 0.344434 -0.542101
C26   C     C_3   0.989714 0.354711 0.343604 0.309613
C27   C     C_R   0.576244 0.508511 0.301054 0.830725
C28   C     C_R   0.776108 0.408744 0.038986 0.449697
C29   C     C_R   0.618012 0.509881 0.187330 -0.247131
C30   C     C_R   0.224449 0.475924 0.863367 0.466799
C31   C     C_R   0.182018 0.493191 0.969701 -0.162781
C32   C     C_R   0.282047 0.493732 0.026326 -0.276818
Cu1   Cu    Cu3+1 0.359330 0.500020 0.500010 0.951587
Cu2   Cu    Cu3+1 0.640670 0.499980 0.499990 0.994965
H1    H     H_    0.725176 0.118815 0.494319 0.232860
H2    H     H_    0.192127 0.102906 0.453331 0.064966
H3    H     H_    0.167229 0.879807 0.592795 0.217844
H4    H     H_    0.201929 0.878821 0.448574 0.160002
H5    H     H_    0.077909 0.587175 0.645682 0.187316
H6    H     H_    0.222049 0.382250 0.268071 0.162526
H7    H     H_    0.183680 0.285003 0.383994 0.224275
H8    H     H_    0.975266 0.369785 0.266614 0.165097
H9    H     H_    0.790890 0.304593 0.855135 0.186528
H10   H     H_    0.239679 0.499491 0.108996 0.175455
H11   H     H_    0.070011 0.506621 0.008331 0.238017
N1    N     N_R   0.852320 0.499070 0.499340 -0.169235
N2    N     N_R   0.148230 0.499110 0.499340 -0.191254
O1    O     O_R   0.381190 0.680360 0.500000 -0.581062
O2    O     O_R   0.618780 0.680320 0.499990 -0.604452
O3    O     O_R   0.323230 0.500000 0.650990 -0.566716
O4    O     O_R   0.560820 0.499960 0.650980 -0.547637
O5    O     O_R   0.381220 0.319680 0.500010 -0.588922
O6    O     O_R   0.618810 0.319640 0.500000 -0.516005
O7    O     O_R   0.439180 0.500040 0.349020 -0.577033
O8    O     O_R   0.676770 0.500000 0.349010 -0.552482
O9    O     O_3   0.874174 0.492875 0.171010 -0.591187
C33   C     C_3   0.900490 0.620154 0.176789 -0.375300
H12   H     H_    0.814554 0.667906 0.237635 0.178243
H13   H     H_    0.911990 0.663719 0.101313 0.157489
H14   H     H_    0.003491 0.633620 0.197416 0.171376
O10   O     O_3   0.142058 0.112686 0.618528 -0.577060
C34   C     C_3   0.993869 0.118891 0.624151 -0.330005
H15   H     H_    0.950969 0.028248 0.607244 0.165194
H16   H     H_    0.973799 0.188745 0.571422 0.219831
H17   H     H_    0.932917 0.146721 0.704045 0.180724
C35   C     C_3   0.798967 0.622662 0.669814 -0.787376
H18   H     H_    0.711567 0.669885 0.648175 0.255512
H19   H     H_    0.755614 0.560684 0.734357 0.245918
H20   H     H_    0.858887 0.696478 0.698844 0.175305
O11   O     O_3   0.919859 0.249501 0.390792 -0.553682
C36   C     C_3   0.958839 0.146839 0.321540 -0.400291
H21   H     H_    0.021032 0.081439 0.353760 0.169713
H22   H     H_    0.025897 0.167286 0.242073 0.149112
H23   H     H_    0.859510 0.100919 0.313308 0.194229
O12   O     O_3   0.901153 0.342315 0.998387 -0.580007
C37   C     C_3   0.886282 0.228303 0.046506 -0.381628
H24   H     H_    0.796902 0.174043 0.029489 0.157322
H25   H     H_    0.868754 0.239536 0.131443 0.184039
H26   H     H_    0.987715 0.175433 0.015198 0.183247
C38   C     C_3   0.409640 0.635470 0.173862 -0.833468
H27   H     H_    0.459463 0.706354 0.214075 0.216186
H28   H     H_    0.382263 0.682999 0.110127 0.228720
H29   H     H_    0.310250 0.603142 0.230180 0.233475
O13   O     O_3   0.117913 0.471799 0.812383 -0.584813
C39   C     C_3   0.104672 0.349974 0.777215 -0.172033
H30   H     H_    0.079134 0.284897 0.841112 0.185387
H31   H     H_    0.203817 0.316181 0.719479 0.184032
H32   H     H_    0.016518 0.347569 0.739054 0.179852
O14   O     O_3   0.620710 0.304233 0.738420 -0.562451
C40   C     C_3   0.550410 0.190504 0.760665 -0.353196
H33   H     H_    0.431618 0.201480 0.775774 0.164175
H34   H     H_    0.576013 0.145511 0.826663 0.149742
H35   H     H_    0.588903 0.127596 0.692960 0.200181
C41   C     C_3   0.783372 0.881621 0.474966 -0.857569
H36   H     H_    0.810825 0.820012 0.405155 0.236939
H37   H     H_    0.870048 0.950861 0.464107 0.206854
H38   H     H_    0.785860 0.831652 0.544502 0.243889

loop_
_geom_bond_atom_site_label_1
_geom_bond_atom_site_label_2
_ccdc_geom_bond_type
C35   H19   S    
C21   C35   S    
C27   C29   S    
C37   H26   S    
C4    C8    A    
C33   H12   S    
C27   O7    A    
C39   H30   S    
Cu1   O5    S    
C11   C19   S    
Cu2   O4    S    
C8    C29   A    
C37   H25   S    
C3    C7    A    
C25   H6    S    
C30   C31   A    
C27   O8    A    
C33   H13   S    
C35   H20   S    
C15   C16   A    
C7    O14   S    
O9    C33   S    
C2    C32   A    
C18   C19   S    
C34   H16   S    
C19   H3    S    
O13   C39   S    
C20   C24   A    
C16   C17   A    
O11   C36   S    
Cu2   N1    S    
C9    C29   A    
C22   N2    A    
Cu2   O8    S    
C21   C22   A    
O10   C34   S    
C38   H29   S    
C15   H1    S    
C23   O6    A    
C39   H31   S    
C37   H24   S    
C38   H28   S    
C25   H7    S    
C36   H22   S    
C4    C5    A    
C33   H14   S    
C41   H38   S    
C25   C26   S    
C23   O5    A    
C2    C4    A    
O12   C37   S    
C34   H15   S    
C19   H4    S    
C5    C28   A    
C10   C30   A    
C40   H34   S    
C31   C32   A    
C17   C18   S    
C32   H10   S    
C1    O1    A    
C9    O9    S    
C24   C25   S    
C41   H37   S    
C10   C12   S    
C16   C23   S    
C6    H9    S    
C26   O11   S    
C1    C13   S    
C12   O4    A    
C26   H8    S    
C40   H35   S    
C21   N1    A    
C39   H32   S    
Cu1   O7    S    
C11   C17   A    
Cu2   O2    S    
C34   H17   S    
C24   N2    A    
C38   H27   S    
C36   H23   S    
C12   O3    A    
C18   O10   S    
C6    C7    A    
C2    C3    A    
Cu1   O3    S    
C36   H21   S    
C3    C10   A    
C11   C13   A    
C18   H2    S    
C40   H33   S    
C5    C6    A    
C20   C26   S    
Cu1   N2    S    
C22   H5    S    
Cu1   Cu2   S    
C35   H18   S    
C30   O13   S    
C41   H36   S    
Cu2   O6    S    
C31   H11   S    
C8    C38   S    
Cu1   O1    S    
C14   C15   A    
O14   C40   S    
C13   C14   A    
C28   O12   S    
C1    O2    A    
C14   C41   S    
C20   N1    A    
C9    C28   A    
