data_mof_unit_16131.cif
_audit_creation_date              2013-03-05T16:09:56-0500
_audit_creation_method            fapswitch 2.2
_symmetry_space_group_name_H-M    P1
_symmetry_Int_Tables_number       1
_space_group_crystal_system       triclinic
_cell_length_a                    10.636686
_cell_length_b                    9.834416
_cell_length_c                    10.713039
_cell_angle_alpha                 92.056171
_cell_angle_beta                  90.33861
_cell_angle_gamma                 90.491837
_cell_volume                      1119.85933253

loop_
_atom_site_label
_atom_site_type_symbol
_atom_site_description
_atom_site_fract_x
_atom_site_fract_y
_atom_site_fract_z
_atom_type_partial_charge
O1    O     O_R   0.316770 0.614620 0.499990 -0.615812
O2    O     O_R   0.683230 0.614620 0.500010 -0.610338
O3    O     O_R   0.316800 0.385290 0.500000 -0.626174
O4    O     O_R   0.683200 0.385290 0.500000 -0.610717
C1    C     C_R   0.260331 0.499696 0.502784 0.922044
C2    C     C_R   0.739848 0.500547 0.502364 0.914808
O5    O     O_R   0.500010 0.614690 0.316770 -0.625912
O6    O     O_R   0.499990 0.614690 0.683230 -0.646327
O7    O     O_R   0.500040 0.385360 0.316770 -0.610525
O8    O     O_R   0.499960 0.385360 0.683230 -0.609381
C3    C     C_R   0.512493 0.497996 0.260910 0.861454
C4    C     C_R   0.496018 0.503626 0.740990 0.902616
Zn1   Zn    Zn3+2 0.500000 0.653120 0.500000 0.951277
Zn2   Zn    Zn3+2 0.500000 0.346880 0.500000 0.995479
H1    H     H_    0.448613 0.292345 0.105248 0.190605
H2    H     H_    0.429577 0.302600 0.882535 0.216469
C5    C     C_R   0.644067 0.715298 0.133664 -0.289088
C6    C     C_R   0.540212 0.763960 0.902057 -0.335868
H3    H     H_    0.686744 0.696594 0.223362 0.203941
H4    H     H_    0.493986 0.791126 0.817330 0.211617
C7    C     C_R   0.655004 0.845645 0.086725 0.264690
C8    C     C_R   0.597904 0.871402 0.971273 0.243013
C9    C     C_R   0.536432 0.629781 0.946231 0.068974
C10   C     C_R   0.572939 0.612194 0.069809 0.044832
C11   C     C_R   0.530191 0.494670 0.128732 -0.093022
C12   C     C_R   0.494762 0.511928 0.875501 -0.114281
C13   C     C_R   0.480554 0.383487 0.060586 -0.134494
C14   C     C_R   0.466402 0.390946 0.934207 -0.158777
C15   C     C_R   0.063555 0.440058 0.406314 -0.223558
C16   C     C_R   0.934806 0.441158 0.405728 -0.204116
H5    H     H_    0.113073 0.394715 0.327222 0.158200
H6    H     H_    0.883662 0.396394 0.326346 0.176559
C17   C     C_R   0.872341 0.501558 0.506682 -0.078185
C18   C     C_R   0.128165 0.499620 0.507740 -0.075333
C19   C     C_R   0.935725 0.558362 0.611724 0.147818
C20   C     C_R   0.066999 0.558036 0.612280 0.148692
C21   C     C_R   0.572034 0.075964 0.583476 0.042216
C22   C     C_R   0.428554 0.068047 0.415780 -0.021302
H7    H     H_    0.629733 0.133647 0.650260 0.175263
H8    H     H_    0.371456 0.119511 0.348521 0.130858
C23   C     C_R   0.571199 0.932208 0.583994 -0.042264
C24   C     C_R   0.428738 0.924067 0.415631 -0.046536
H9    H     H_    0.626685 0.881265 0.652074 0.134584
H10   H     H_    0.371751 0.866355 0.348246 0.141415
N1    N     N_R   0.500000 0.857200 0.500000 -0.100421
N2    N     N_R   0.500000 0.142810 0.500000 -0.099168
N3    N     N_R   0.713586 0.952314 0.162494 0.230286
O9    O     O_R   0.805343 0.924194 0.237956 -0.399240
O10   O     O_R   0.663354 0.072464 0.171219 -0.356158
N4    N     N_R   0.600364 0.004558 0.920935 0.209632
O11   O     O_R   0.501357 0.050056 0.864749 -0.461096
O12   O     O_R   0.705030 0.073810 0.917924 -0.371882
N5    N     N_2   0.866241 0.609949 0.716087 -0.318945
H11   H     H_    0.890800 0.569992 0.800346 0.225015
C25   C     C_3   0.852427 0.756041 0.722767 -0.696803
H12   H     H_    0.939183 0.805916 0.759502 0.242411
H13   H     H_    0.775299 0.782787 0.787700 0.238543
H14   H     H_    0.830608 0.795493 0.629276 0.253964
N6    N     N_2   0.137733 0.608639 0.718137 -0.330495
H15   H     H_    0.103224 0.584305 0.804286 0.223536
C26   C     C_3   0.185954 0.746784 0.712775 -0.697071
H16   H     H_    0.151959 0.809546 0.793762 0.222258
H17   H     H_    0.157490 0.795886 0.625074 0.248687
H18   H     H_    0.289816 0.745551 0.718470 0.261531

loop_
_geom_bond_atom_site_label_1
_geom_bond_atom_site_label_2
_geom_bond_distance
_ccdc_geom_bond_type
H2    C14   1.082496 S    
C26   H18   1.106268 S    
N4    O12   1.301267 A    
O7    Zn2   2.012386 S    
C22   C24   1.415916 A    
O6    Zn1   2.012274 S    
C19   N5    1.424480 S    
C23   H9    1.075857 S    
C12   C14   1.397103 A    
C19   C20   1.396320 A    
C2    C17   1.409708 S    
C8    N4    1.434074 S    
O6    C4    1.275034 A    
C20   N6    1.429259 S    
C1    C18   1.407109 S    
C25   H12   1.105025 S    
N5    C25   1.444744 S    
N4    O11   1.300571 A    
N6    H15   1.030598 S    
C15   H5    1.084625 S    
O4    Zn2   1.981729 S    
O2    C2    1.278793 A    
N5    H11   1.030478 S    
C22   H8    1.081892 S    
O7    C3    1.283998 A    
C15   C16   1.369579 A    
O3    Zn2   1.988097 S    
C24   H10   1.081760 S    
O1    C1    1.276581 A    
O8    C4    1.298803 A    
O4    C2    1.278485 A    
C17   C19   1.404429 A    
C7    C8    1.406789 A    
O5    C3    1.283374 A    
C18   C20   1.405867 A    
C25   H13   1.106091 S    
C21   C23   1.413915 A    
C26   H16   1.110677 S    
C21   H7    1.081691 S    
C7    N3    1.438518 S    
C22   N2    1.366336 A    
C5    C10   1.414009 A    
C11   C13   1.391234 A    
C3    C11   1.428842 S    
C9    C10   1.394601 A    
C6    C9    1.418086 A    
C16   H6    1.084673 S    
O3    C1    1.279437 A    
O5    Zn1   1.985644 S    
O1    Zn1   1.982203 S    
C10   C11   1.409877 A    
Zn1   N1    2.007008 S    
C6    H4    1.073033 S    
N3    O10   1.301503 A    
O8    Zn2   1.985721 S    
N6    C26   1.451233 S    
C13   C14   1.366022 A    
C9    C12   1.427637 A    
O2    Zn1   1.988584 S    
C25   H14   1.110962 S    
C23   N1    1.364591 A    
C16   C17   1.390374 A    
C5    H3    1.082709 S    
C21   N2    1.364446 A    
C6    C8    1.403613 A    
H1    C13   1.084086 S    
C15   C18   1.390922 A    
C26   H17   1.113235 S    
C5    C7    1.397870 A    
N3    O9    1.301509 A    
C4    C12   1.440552 S    
Zn2   N2    2.006910 S    
C24   N1    1.366396 A    
