data_mof_unit_66658.cif
_audit_creation_date              2012-12-11T15:52:27-0500
_audit_creation_method            fapswitch 2.2
_symmetry_space_group_name_H-M    P1
_symmetry_Int_Tables_number       1
_space_group_crystal_system       triclinic
_cell_length_a                    11.36994
_cell_length_b                    11.271095
_cell_length_c                    18.673834
_cell_angle_alpha                 90.319542
_cell_angle_beta                  90.45082
_cell_angle_gamma                 120.363032
_cell_volume                      2064.6572717

loop_
_atom_site_label
_atom_site_type_symbol
_atom_type_description
_atom_site_fract_x
_atom_site_fract_y
_atom_site_fract_z
_atom_type_partial_charge
C1    C     C_R   0.541294 0.425561 0.140003 0.539251
C2    C     C_3   0.830474 0.595216 0.498048 0.153742
C3    C     C_3   0.791050 0.135073 0.487119 0.160572
C4    C     C_3   0.241699 0.254891 0.450962 0.176084
C5    C     C_R   0.515444 0.455707 0.351508 0.530192
C6    C     C_R   0.577757 0.121627 0.361037 0.561791
C7    C     C_R   0.880862 0.456254 0.360903 0.546328
C8    C     C_R   0.448646 0.521953 0.643404 0.558617
C9    C     C_R   0.066180 0.544427 0.646244 0.537945
C10   C     C_R   0.481023 0.939733 0.647566 0.516041
C11   C     C_R   0.511891 0.016665 0.918058 0.003404
C12   C     C_R   0.574354 0.117344 0.140457 0.543275
C13   C     C_R   0.985191 0.494779 0.917681 0.002433
C14   C     C_R   0.504248 0.489994 0.918345 0.005144
C15   C     C_R   0.917797 0.468246 0.064040 0.007083
C16   C     C_R   0.552548 0.085954 0.064476 0.005719
C17   C     C_R   0.529695 0.448715 0.064645 0.008571
C18   C     C_R   0.407974 0.013125 0.959084 0.015762
C19   C     C_R   0.990488 0.395389 0.959627 0.013622
C20   C     C_R   0.604866 0.594801 0.960916 0.013360
C21   C     C_R   0.958378 0.383284 0.031384 0.013226
C22   C     C_R   0.428100 0.047172 0.030952 0.011818
C23   C     C_R   0.884029 0.457392 0.139731 0.539821
C24   C     C_R   0.617760 0.574230 0.032602 0.012578
C25   C     C_R   0.662045 0.105940 0.021849 -0.166569
C26   C     C_R   0.895982 0.556335 0.020244 -0.166423
C27   C     C_R   0.439066 0.338526 0.020566 -0.166449
C28   C     C_R   0.925695 0.566763 0.947287 -0.158135
C29   C     C_R   0.642999 0.075531 0.948746 -0.160050
C30   C     C_R   0.429794 0.357705 0.947515 -0.156277
C31   C     C_3   0.262987 0.902335 0.970064 -0.100201
C32   C     C_3   0.100644 0.361613 0.971708 -0.097438
C33   C     C_3   0.642193 0.741182 0.973395 -0.100861
C34   C     C_R   0.456703 0.520060 0.852350 0.527203
C35   C     C_3   0.064182 0.346942 0.051240 -0.118826
C36   C     C_3   0.284229 0.942437 0.049529 -0.120513
C37   C     C_3   0.660938 0.719864 0.052659 -0.119543
C38   C     C_R   0.505828 0.019555 0.582010 -0.014118
C39   C     C_R   0.020445 0.509738 0.573701 0.053964
C40   C     C_R   0.472401 0.500505 0.569500 0.062075
C41   C     C_R   0.934468 0.475842 0.432100 0.031541
C42   C     C_R   0.554116 0.084906 0.436075 0.042415
C43   C     C_R   0.473239 0.479460 0.420144 0.010804
C44   C     C_R   0.638388 0.107042 0.557405 0.022570
C45   C     C_R   0.062415 0.542718 0.851818 0.529486
C46   C     C_R   0.890625 0.483577 0.557581 0.057462
C47   C     C_R   0.384171 0.373553 0.534149 -0.000849
C48   C     C_R   0.853399 0.477774 0.486214 -0.050145
C49   C     C_R   0.662244 0.142639 0.485802 -0.031698
C50   C     C_R   0.389224 0.364297 0.461253 -0.008962
C51   C     C_R   0.421723 0.996076 0.460098 -0.015533
C52   C     C_R   0.071660 0.519461 0.445906 0.039107
C53   C     C_R   0.536715 0.605951 0.452413 -0.085905
C54   C     C_R   0.116495 0.541241 0.518095 -0.024719
C55   C     C_R   0.395886 0.984674 0.533668 -0.032127
C56   C     C_R   0.481044 0.937849 0.851859 0.535400
C57   C     C_R   0.556587 0.616219 0.526680 -0.024912
C58   C     C_3   0.161692 0.933280 0.933070 -0.408355
C59   C     C_3   0.068052 0.226375 0.935856 -0.414210
C60   C     C_3   0.775067 0.842849 0.937483 -0.414013
C61   C     C_3   0.179998 0.454420 0.098413 -0.420269
C62   C     C_3   0.269979 0.827099 0.097957 -0.406859
C63   C     C_3   0.562659 0.736268 0.101435 -0.410158
C64   C     C_3   0.321237 0.886302 0.409676 -0.406625
C65   C     C_3   0.167533 0.555781 0.383052 -0.350621
C66   C     C_3   0.567319 0.726140 0.408836 -0.395621
C67   C     C_3   0.767649 0.104441 0.567164 0.175874
C68   C     C_3   0.266241 0.609377 0.534151 -0.394447
C69   C     C_3   0.251154 0.922945 0.557913 -0.324003
C70   C     C_3   0.654752 0.753763 0.557601 -0.352588
C71   C     C_3   0.855486 0.172143 0.683938 0.005215
C72   C     C_3   0.777249 0.218652 0.730343 -0.333226
C73   C     C_3   0.742452 0.526459 0.688390 -0.009354
C74   C     C_3   0.624896 0.407270 0.727316 -0.357484
C75   C     C_3   0.147546 0.144476 0.636523 0.007788
C76   C     C_3   0.025115 0.003425 0.652432 -0.397410
C77   C     C_3   0.914449 0.786047 0.422346 -0.011969
C78   C     C_3   0.844106 0.581453 0.577299 0.154555
C79   C     C_3   0.037708 0.869613 0.375870 -0.364511
C80   C     C_3   0.861785 0.057787 0.387179 0.019270
C81   C     C_3   0.796952 0.963670 0.319262 -0.352766
C82   C     C_3   0.183902 0.270825 0.331509 -0.021562
C83   C     C_3   0.078490 0.230109 0.271849 -0.447204
C84   C     C_3   0.229709 0.273105 0.531336 0.175487
Cr1   Cr    Cr6+3 0.769160 0.541570 0.250690 0.953839
Cr2   Cr    Cr6+3 0.458430 0.227590 0.250690 0.943994
Cr3   Cr    Cr6+3 0.772410 0.230840 0.250690 0.925538
Cr4   Cr    Cr6+3 0.541570 0.769160 0.749310 0.944753
Cr5   Cr    Cr6+3 0.227590 0.458430 0.749310 0.945034
Cr6   Cr    Cr6+3 0.230840 0.772410 0.749310 0.953210
H1    H     H_    0.759866 0.135919 0.045916 0.137205
H2    H     H_    0.018165 0.240555 0.072185 0.140879
H3    H     H_    0.225639 0.990788 0.068794 0.141428
H4    H     H_    0.768392 0.777895 0.072426 0.141721
H5    H     H_    0.759114 0.006103 0.579715 0.126763
H6    H     H_    0.920080 0.681914 0.602097 0.141894
H7    H     H_    0.164826 0.318803 0.542571 0.153150
H8    H     H_    0.730473 0.569316 0.477055 0.134936
H9    H     H_    0.886446 0.234066 0.477830 0.140025
H10   H     H_    0.235112 0.155717 0.438869 0.134843
H11   H     H_    0.197134 0.044166 0.935973 0.111502
H12   H     H_    0.864245 0.623438 0.043290 0.134594
H13   H     H_    0.148489 0.901789 0.875917 0.179339
H14   H     H_    0.062832 0.876271 0.960398 0.117282
H15   H     H_    0.957092 0.153788 0.934180 0.113668
H16   H     H_    0.105401 0.244194 0.880105 0.171818
H17   H     H_    0.118006 0.180202 0.966699 0.117763
H18   H     H_    0.846708 0.803860 0.937152 0.114814
H19   H     H_    0.755722 0.860410 0.881383 0.174191
H20   H     H_    0.821949 0.941005 0.967831 0.117491
H21   H     H_    0.222166 0.557490 0.074686 0.122175
H22   H     H_    0.143359 0.457099 0.152837 0.165416
H23   H     H_    0.369846 0.239790 0.043285 0.133850
H24   H     H_    0.261783 0.428558 0.102832 0.156801
H25   H     H_    0.342819 0.794074 0.082230 0.123733
H26   H     H_    0.289405 0.861923 0.154663 0.173808
H27   H     H_    0.164536 0.738435 0.093535 0.155772
H28   H     H_    0.456092 0.666787 0.083804 0.123870
H29   H     H_    0.575213 0.713026 0.157632 0.167757
H30   H     H_    0.585050 0.843990 0.099494 0.159520
H31   H     H_    0.229608 0.807304 0.437111 0.161131
H32   H     H_    0.287392 0.928628 0.367095 0.158558
H33   H     H_    0.371300 0.835147 0.383569 0.127721
H34   H     H_    0.914308 0.640651 0.915846 0.132159
H35   H     H_    0.273905 0.588503 0.397570 0.124003
H36   H     H_    0.131112 0.467840 0.346526 0.187149
H37   H     H_    0.166481 0.637277 0.350799 0.130316
H38   H     H_    0.533451 0.791224 0.436036 0.178307
H39   H     H_    0.676951 0.779800 0.404508 0.171278
H40   H     H_    0.518263 0.696845 0.354880 0.112127
H41   H     H_    0.300438 0.545028 0.509329 0.135767
H42   H     H_    0.322516 0.711670 0.509675 0.123576
H43   H     H_    0.294000 0.623294 0.591575 0.164422
H44   H     H_    0.187907 0.938798 0.518538 0.192757
H45   H     H_    0.727456 0.084749 0.918167 0.129509
H46   H     H_    0.204846 0.811719 0.566454 0.173884
H47   H     H_    0.250209 0.975853 0.607410 0.189150
H48   H     H_    0.731795 0.820053 0.519396 0.141963
H49   H     H_    0.592825 0.799959 0.570670 0.169968
H50   H     H_    0.715330 0.748579 0.602907 0.163280
H51   H     H_    0.959360 0.222464 0.707163 0.144495
H52   H     H_    0.814539 0.060356 0.690819 0.128078
H53   H     H_    0.832193 0.332161 0.732640 0.146927
H54   H     H_    0.673014 0.178308 0.708919 0.156562
H55   H     H_    0.770787 0.180503 0.785682 0.103287
H56   H     H_    0.354442 0.272318 0.915609 0.134952
H57   H     H_    0.752642 0.625076 0.707046 0.140206
H58   H     H_    0.837296 0.527723 0.704323 0.138201
H59   H     H_    0.544774 0.431193 0.740265 0.174589
H60   H     H_    0.578607 0.312540 0.693691 0.169514
H61   H     H_    0.661500 0.388170 0.778896 0.085491
H62   H     H_    0.117429 0.221861 0.647038 0.170667
H63   H     H_    0.232004 0.163828 0.673949 0.156909
H64   H     H_    0.051689 0.921704 0.650884 0.142590
H65   H     H_    0.987399 0.003995 0.706986 0.055507
H66   H     H_    0.942885 0.977616 0.612482 0.158402
H67   H     H_    0.244688 0.797351 0.958139 0.163438
H68   H     H_    0.891837 0.857755 0.450221 0.156703
H69   H     H_    0.829049 0.715540 0.386937 0.179107
H70   H     H_    0.069744 0.802945 0.349734 0.190197
H71   H     H_    0.022038 0.926512 0.332862 0.070574
H72   H     H_    0.119485 0.946377 0.409993 0.128610
H73   H     H_    0.954299 0.056719 0.403719 0.174434
H74   H     H_    0.894867 0.163656 0.371218 0.205062
H75   H     H_    0.685169 0.906375 0.318140 0.195821
H76   H     H_    0.819133 0.024166 0.269750 0.140043
H77   H     H_    0.825798 0.885193 0.311758 0.071234
H78   H     H_    0.204256 0.448367 0.959233 0.164176
H79   H     H_    0.210541 0.188801 0.324768 0.177417
H80   H     H_    0.259947 0.376615 0.315066 0.189795
H81   H     H_    0.007985 0.267483 0.278392 0.201008
H82   H     H_    0.132379 0.275152 0.221054 0.117879
H83   H     H_    0.029360 0.118732 0.261050 0.093052
H84   H     H_    0.556726 0.759883 0.961696 0.162250
O1    O     O_R   0.911480 0.572650 0.170990 -0.526760
O2    O     O_R   0.528970 0.640340 0.824320 -0.506834
O3    O     O_R   0.111370 0.471030 0.824320 -0.513047
O4    O     O_R   0.359660 0.888630 0.824320 -0.502860
O5    O     O_R   0.909980 0.572450 0.331530 -0.516017
O6    O     O_R   0.427550 0.337530 0.331530 -0.566171
O7    O     O_R   0.662470 0.090020 0.331530 -0.521722
O8    O     O_R   0.572450 0.909980 0.668470 -0.562551
O9    O     O_R   0.337530 0.427550 0.668470 -0.568375
O10   O     O_R   0.090020 0.662470 0.668470 -0.575437
O11   O     O_R   0.638950 0.528780 0.324500 -0.528682
O12   O     O_R   0.427350 0.338830 0.170990 -0.540344
O13   O     O_R   0.471220 0.110170 0.324500 -0.513570
O14   O     O_R   0.889830 0.361050 0.324500 -0.559340
O15   O     O_R   0.528780 0.638950 0.675500 -0.516389
O16   O     O_R   0.110170 0.471220 0.675500 -0.505681
O17   O     O_R   0.361050 0.889830 0.675500 -0.514538
O18   O     O_3   0.666667 0.333333 0.250560 -0.320696
O19   O     O_3   0.333333 0.666667 0.749440 -0.251901
O20   O     O_3   0.862133 0.214650 0.611608 -0.589134
O21   O     O_3   0.718520 0.511344 0.613325 -0.587651
O22   O     O_3   0.190336 0.146927 0.565541 -0.603725
O23   O     O_R   0.661170 0.088520 0.170990 -0.540201
O24   O     O_3   0.946903 0.717772 0.474432 -0.602105
O25   O     O_3   0.772126 0.018763 0.446267 -0.618910
O26   O     O_3   0.155297 0.282369 0.405040 -0.625744
O27   O     O_R   0.572650 0.911480 0.829010 -0.543768
O28   O     O_R   0.338830 0.427350 0.829010 -0.549270
O29   O     O_R   0.088520 0.661170 0.829010 -0.543421
O30   O     O_R   0.640340 0.528970 0.175680 -0.515254
O31   O     O_R   0.471030 0.111370 0.175680 -0.509397
O32   O     O_R   0.888630 0.359660 0.175680 -0.522181

loop_
_geom_bond_atom_site_label_1
_geom_bond_atom_site_label_2
_ccdc_geom_bond_type
C44   C49   A    
C40   C47   A    
C82   H80   S    
C11   C18   A    
C70   H50   S    
C69   H44   S    
C72   H53   S    
C69   H47   S    
C73   C74   S    
C5    O11   A    
Cr6   O4    S    
C3    C49   S    
Cr3   O32   S    
C56   O4    A    
C1    O12   A    
Cr1   O18   S    
C62   H26   S    
Cr1   O5    S    
C59   H15   S    
C73   H57   S    
C84   H7    S    
Cr5   O9    S    
C31   C58   S    
C68   H43   S    
C19   C21   A    
C14   C30   A    
C39   C54   A    
C54   C68   S    
C72   H55   S    
C9    C39   S    
Cr2   O13   S    
C62   H25   S    
C68   H42   S    
C80   H74   S    
C62   H27   S    
C60   H19   S    
Cr1   O30   S    
C36   H3    S    
C43   C53   A    
C38   C55   A    
C12   C16   S    
C78   H6    S    
C83   H81   S    
C3    O25   S    
Cr5   O16   S    
C74   H59   S    
Cr5   O3    S    
C57   C70   S    
C67   O20   S    
C77   O24   S    
C8    O15   A    
C41   C52   A    
C60   H18   S    
C45   O3    A    
C77   H68   S    
C71   H51   S    
C66   H39   S    
C75   O22   S    
C15   C23   S    
Cr5   O28   S    
C5    C43   S    
C82   H79   S    
C70   H49   S    
C2    O24   S    
C27   C30   A    
C67   H5    S    
C84   O22   S    
C12   O23   A    
C79   H71   S    
C36   C62   S    
C19   C32   S    
Cr2   O31   S    
C37   C63   S    
C52   C54   A    
C30   H56   S    
C47   C50   A    
Cr6   O17   S    
C77   C79   S    
C25   C29   A    
Cr4   O15   S    
C46   C48   A    
C25   H1    S    
C17   C24   A    
C13   C19   A    
C73   H58   S    
C17   C27   A    
C32   C35   S    
C20   C24   A    
C7    O14   A    
C60   H20   S    
C35   C61   S    
C79   H70   S    
C46   C78   S    
C63   H28   S    
C53   C57   A    
C15   C26   A    
C56   O27   A    
C6    O7    A    
C2    C48   S    
C80   O25   S    
C6    O13   A    
C76   H66   S    
C33   C37   S    
C18   C31   S    
C4    C50   S    
C65   H35   S    
C68   H41   S    
C75   C76   S    
C5    O6    A    
C38   C44   A    
C2    C78   S    
C14   C20   A    
C63   H29   S    
C75   H63   S    
Cr4   O8    S    
C4    C84   S    
C15   C21   A    
C75   H62   S    
C81   H76   S    
Cr5   O19   S    
C83   H82   S    
Cr2   O6    S    
C24   C37   S    
C81   H77   S    
C7    O5    A    
C13   C28   A    
C58   H11   S    
C55   C69   S    
C47   C84   S    
C33   H84   S    
C2    H8    S    
C31   H67   S    
C77   H69   S    
C39   C46   A    
C20   C33   S    
C27   H23   S    
C8    O9    A    
C29   H45   S    
Cr6   O10   S    
C70   H48   S    
C69   H46   S    
C73   O21   S    
C23   O32   A    
C10   O8    A    
C74   H61   S    
C58   H14   S    
Cr3   O23   S    
C79   H72   S    
C71   H52   S    
C9    O16   A    
C61   H21   S    
C65   H37   S    
Cr6   O29   S    
Cr4   O27   S    
C16   C25   A    
C72   H54   S    
C16   C22   A    
C40   C57   A    
Cr1   O11   S    
C18   C22   A    
Cr2   O18   S    
Cr4   O19   S    
C3    C67   S    
C51   C64   S    
C80   C81   S    
C71   O20   S    
C14   C34   S    
Cr3   O7    S    
C80   H73   S    
C28   H34   S    
C43   C50   A    
Cr2   O12   S    
Cr3   O14   S    
C21   C35   S    
C33   C60   S    
C64   H33   S    
C22   C36   S    
C42   C51   A    
C76   H65   S    
C26   C28   A    
C10   O17   A    
Cr4   O2    S    
C10   C38   S    
C12   O31   A    
C35   H2    S    
C4    H10   S    
C71   C72   S    
C9    O10   A    
C53   C66   S    
C65   H36   S    
C13   C45   S    
C63   H30   S    
C1    O30   A    
C59   H16   S    
Cr6   O19   S    
C34   O28   A    
C64   H32   S    
C76   H64   S    
C45   O29   A    
Cr1   O1    S    
C41   C48   A    
C66   H38   S    
C37   H4    S    
C51   C55   A    
C78   O21   S    
C7    C41   S    
C83   H83   S    
C59   H17   S    
C34   O2    A    
C82   O26   S    
C52   C65   S    
C42   C49   A    
C3    H9    S    
C4    O26   S    
C23   O1    A    
C1    C17   S    
C11   C29   A    
C82   C83   S    
C6    C42   S    
C61   H24   S    
C32   H78   S    
C81   H75   S    
C31   C36   S    
C74   H60   S    
C44   C67   S    
C58   H13   S    
C8    C40   S    
C32   C59   S    
C61   H22   S    
C26   H12   S    
C11   C56   S    
C64   H31   S    
Cr3   O18   S    
C66   H40   S    
