data_mof_unit_23667.cif
_audit_creation_date              2013-03-05T16:11:18-0500
_audit_creation_method            fapswitch 2.2
_symmetry_space_group_name_H-M    P1
_symmetry_Int_Tables_number       1
_space_group_crystal_system       triclinic
_cell_length_a                    15.847801
_cell_length_b                    10.765267
_cell_length_c                    9.426267
_cell_angle_alpha                 90.068794
_cell_angle_beta                  89.980136
_cell_angle_gamma                 89.660353
_cell_volume                      1608.14639263

loop_
_atom_site_label
_atom_site_type_symbol
_atom_site_description
_atom_site_fract_x
_atom_site_fract_y
_atom_site_fract_z
_atom_type_partial_charge
O1    O     O_R   0.500050 0.317570 0.620260 -0.560208
O2    O     O_R   0.499980 0.317810 0.379740 -0.598620
C1    C     C_R   0.502630 0.260061 0.499547 0.793313
O3    O     O_R   0.379110 0.499870 0.620240 -0.542081
O4    O     O_R   0.379040 0.500110 0.379720 -0.601251
C2    C     C_R   0.339821 0.500406 0.500015 0.851757
Cu1   Cu    Cu3+1 0.500040 0.499860 0.642410 0.953793
Cu2   Cu    Cu3+1 0.499960 0.500140 0.357590 0.897568
O5    O     O_R   0.500020 0.682190 0.620260 -0.593815
O6    O     O_R   0.499950 0.682430 0.379740 -0.603765
O7    O     O_R   0.620960 0.499890 0.620280 -0.590894
O8    O     O_R   0.620890 0.500130 0.379760 -0.586535
C3    C     C_R   0.497850 0.740210 0.500166 0.757933
C4    C     C_R   0.660222 0.501183 0.499941 0.837958
C5    C     C_3   0.972388 0.431091 0.400220 -0.168715
C6    C     C_3   0.028276 0.545875 0.371728 -0.159805
H1    H     H_    0.052780 0.575049 0.266605 0.126553
H2    H     H_    0.948199 0.365933 0.318570 0.126934
H3    H     H_    0.947160 0.720033 0.447584 0.126802
C7    C     C_1   0.250078 0.503619 0.500107 -0.167845
C8    C     C_1   0.750011 0.505413 0.499655 -0.180216
C9    C     C_3   0.028397 0.395194 0.528494 -0.157297
C10   C     C_3   0.082782 0.509876 0.500031 0.199123
C11   C     C_3   0.972026 0.474692 0.627896 -0.160706
C12   C     C_3   0.917446 0.510584 0.499618 0.190849
C13   C     C_3   0.027977 0.589529 0.599470 -0.154371
C14   C     C_3   0.971796 0.625502 0.471144 -0.161900
C15   C     C_1   0.174489 0.506951 0.500165 -0.075904
C16   C     C_1   0.825641 0.508711 0.499485 -0.079989
H4    H     H_    0.052303 0.654541 0.681152 0.123943
H5    H     H_    0.947558 0.445310 0.732963 0.122219
H6    H     H_    0.053083 0.300696 0.552111 0.133707
C17   C     C_3   0.572647 0.068460 0.599978 -0.130639
H7    H     H_    0.553764 0.096919 0.709118 0.139435
C18   C     C_3   0.570179 0.924679 0.598267 -0.405915
H8    H     H_    0.630958 0.883951 0.560945 0.156110
H9    H     H_    0.562077 0.889566 0.708187 0.151341
H10   H     H_    0.402517 0.116745 0.659261 0.230215
C19   C     C_3   0.415195 0.078079 0.552124 -0.409021
C20   C     C_3   0.513508 0.070464 0.345603 -0.379866
C21   C     C_3   0.502762 0.122362 0.498548 0.083361
H11   H     H_    0.459404 0.101218 0.278571 0.185418
H12   H     H_    0.570617 0.107803 0.293228 0.162234
C22   C     C_3   0.497958 0.878403 0.501125 0.108618
C23   C     C_3   0.410636 0.933836 0.549431 -0.153329
C24   C     C_3   0.515631 0.927865 0.348361 -0.411616
H13   H     H_    0.577748 0.893394 0.309458 0.163058
H14   H     H_    0.467221 0.892730 0.273095 0.159334
H15   H     H_    0.364452 0.116877 0.483089 0.155115
H16   H     H_    0.365387 0.910328 0.463025 0.119462
C25   C     C_3   0.523129 0.624856 0.084525 -0.208737
H17   H     H_    0.586441 0.653689 0.122917 0.153142
H18   H     H_    0.477303 0.695529 0.123610 0.150463
C26   C     C_3   0.521415 0.627036 0.917017 -0.301692
H19   H     H_    0.474003 0.695763 0.881216 0.175629
H20   H     H_    0.583249 0.659675 0.875841 0.162163
H21   H     H_    0.627592 0.428555 0.125222 0.146932
H22   H     H_    0.630742 0.449182 0.882875 0.135230
C27   C     C_3   0.563573 0.410350 0.082293 -0.194037
C28   C     C_3   0.417838 0.467930 0.085423 -0.214024
N1    N     N_3   0.501840 0.500250 0.143650 -0.137871
H23   H     H_    0.397490 0.377150 0.129654 0.188288
H24   H     H_    0.370057 0.537016 0.122057 0.117773
N2    N     N_3   0.501160 0.503300 0.856280 -0.169167
C29   C     C_3   0.566807 0.417840 0.915270 -0.186576
C30   C     C_3   0.417299 0.466417 0.918212 0.359197
H25   H     H_    0.369625 0.536694 0.884305 0.084442
H26   H     H_    0.547235 0.314179 0.114785 0.163939
H27   H     H_    0.560513 0.324094 0.869348 0.183205
C31   C     C_R   0.373802 0.880816 0.686496 0.126261
C32   C     C_R   0.401230 0.919531 0.821867 -0.109139
C33   C     C_R   0.361974 0.875397 0.944619 -0.151080
C34   C     C_R   0.296317 0.790022 0.934501 -0.158838
C35   C     C_R   0.268901 0.749975 0.801477 -0.123100
C36   C     C_R   0.306859 0.795592 0.678389 -0.126978
H28   H     H_    0.451924 0.985193 0.833749 0.142596
H29   H     H_    0.383102 0.906586 0.047742 0.126212
H30   H     H_    0.266771 0.754796 0.029729 0.123538
H31   H     H_    0.217925 0.683838 0.793579 0.133086
H32   H     H_    0.283671 0.764534 0.576431 0.093933
N3    N     N_R   0.388465 0.344526 0.866691 0.130281
O9    O     O_R   0.424330 0.242440 0.910366 -0.456601
O10   O     O_R   0.315211 0.336349 0.805163 -0.386083
C37   C     C_R   0.662308 0.116807 0.576376 0.114130
C38   C     C_R   0.711090 0.082177 0.457258 -0.149958
C39   C     C_R   0.794811 0.120417 0.444211 -0.160049
C40   C     C_R   0.831729 0.191824 0.550534 -0.104275
C41   C     C_R   0.784830 0.226402 0.669484 -0.128107
C42   C     C_R   0.700961 0.188920 0.682625 -0.150573
H33   H     H_    0.686680 0.020982 0.376940 0.120288
H34   H     H_    0.831711 0.092205 0.352920 0.121850
H35   H     H_    0.897033 0.218710 0.541662 0.127564
H36   H     H_    0.813774 0.281080 0.752502 0.117684
H37   H     H_    0.667306 0.213208 0.778205 0.097207

loop_
_geom_bond_atom_site_label_1
_geom_bond_atom_site_label_2
_geom_bond_distance
_ccdc_geom_bond_type
C5    H2    1.110605 S    
C40   C41   1.394038 A    
C34   C35   1.395794 A    
C18   H8    1.112735 S    
C25   N1    1.493611 S    
N3    O9    1.301593 A    
Cu1   Cu2   2.684794 S    
C19   C21   1.554382 S    
C38   C39   1.396934 A    
C20   C24   1.535545 S    
C13   C14   1.550383 S    
C9    H6    1.110578 S    
C28   H24   1.112793 S    
C4    C8    1.423952 S    
C18   H9    1.111020 S    
C11   C13   1.549185 S    
C39   H34   1.082432 S    
H10   C19   1.109685 S    
O7    C4    1.293729 A    
C5    C12   1.535256 S    
C5    C6    1.548265 S    
C28   H23   1.112433 S    
C10   C13   1.535225 S    
C42   H37   1.077966 S    
O5    C3    1.293941 A    
C26   H19   1.104562 S    
C5    C9    1.548242 S    
C6    H1    1.110534 S    
C34   H30   1.082332 S    
C31   C32   1.411447 A    
H3    C14   1.110519 S    
C36   H32   1.082325 S    
Cu2   N1    2.016867 S    
C19   C23   1.555104 S    
C6    C14   1.550024 S    
C20   H11   1.114240 S    
C30   H25   1.113244 S    
C28   C30   1.576270 S    
C40   H35   1.079528 S    
O3    Cu1   1.927908 S    
N3    O10   1.301306 A    
C22   C24   1.561691 S    
C24   H14   1.112725 S    
C20   H12   1.108576 S    
C12   C16   1.455177 S    
C26   H20   1.112892 S    
C27   N1    1.488394 S    
C35   C36   1.397721 A    
C25   H17   1.112517 S    
C37   C38   1.411518 A    
O3    C2    1.293250 A    
C41   H36   1.082407 S    
C39   C40   1.393398 A    
C7    C15   1.198244 T    
C8    C16   1.199306 T    
C28   N1    1.483256 S    
O1    C1    1.295258 A    
N2    C30   1.506986 S    
Cu1   O7    1.927565 S    
C33   H29   1.081912 S    
C27   H26   1.112027 S    
H22   C29   1.112572 S    
Cu2   O8    1.927908 S    
C17   H7    1.113445 S    
C10   C15   1.453513 S    
C11   C12   1.535413 S    
C18   C22   1.550172 S    
C20   C21   1.554477 S    
C19   H15   1.114275 S    
O8    C4    1.293285 A    
C13   H4    1.110587 S    
C6    C10   1.535217 S    
C35   H31   1.082509 S    
C9    C11   1.548187 S    
C37   C42   1.408962 A    
C32   H28   1.079004 S    
C22   C23   1.570873 S    
Cu1   O5    1.974153 S    
C24   H13   1.111924 S    
C1    C21   1.482368 S    
C23   C31   1.530035 S    
O1    Cu1   1.973225 S    
O2    Cu2   1.974151 S    
C33   C34   1.395598 A    
O6    C3    1.294090 A    
O4    Cu2   1.927567 S    
C38   H33   1.076508 S    
C12   C14   1.535463 S    
C2    C7    1.422439 S    
C25   C26   1.579425 S    
C17   C21   1.572234 S    
N2    C29   1.492723 S    
O2    C1    1.290372 A    
C11   H5    1.110501 S    
C32   C33   1.398556 A    
C27   C29   1.577393 S    
C30   N3    1.473845 S    
O4    C2    1.292899 A    
C26   N2    1.486116 S    
C23   H16   1.115223 S    
C29   H27   1.102719 S    
C17   C18   1.548631 S    
C17   C37   1.532398 S    
Cu1   N2    2.016379 S    
H21   C27   1.110826 S    
C41   C42   1.396826 A    
Cu2   O6    1.973227 S    
C31   C36   1.408725 A    
C9    C10   1.533717 S    
C25   H18   1.111117 S    
C3    C22   1.487709 S    
