data_mof_unit_60574.cif
_audit_creation_date              2012-12-10T18:56:40-0500
_audit_creation_method            fapswitch 2.2
_symmetry_space_group_name_H-M    P1
_symmetry_Int_Tables_number       1
_space_group_crystal_system       triclinic
_cell_length_a                    30.412023
_cell_length_b                    30.409227
_cell_length_c                    60.033466
_cell_angle_alpha                 89.997281
_cell_angle_beta                  89.994824
_cell_angle_gamma                 89.996957
_cell_volume                      55519.3158501

loop_
_atom_site_label
_atom_site_type_symbol
_atom_type_description
_atom_site_fract_x
_atom_site_fract_y
_atom_site_fract_z
_atom_type_partial_charge
C1    C     C_R   0.500002 1.000000 0.689429 0.521820
C2    C     C_R   0.493859 0.039278 0.153055 -0.170153
C3    C     C_R   0.499995 0.000003 0.476309 0.040330
C4    C     C_R   0.499998 0.000002 0.023691 0.040314
C5    C     C_R   0.499998 0.999997 0.976309 0.040326
C6    C     C_R   0.000005 0.500003 0.023691 0.040319
C7    C     C_R   0.999995 0.500003 0.976309 0.040330
C8    C     C_R   0.920600 0.492611 0.524065 -0.103843
C9    C     C_R   0.079396 0.492592 0.475936 -0.103860
C10   C     C_R   0.507405 0.920597 0.524062 -0.103857
C11   C     C_R   0.507390 0.079408 0.475936 -0.103836
C12   C     C_R   0.079397 0.507396 0.524057 -0.103867
C13   C     C_R   0.960723 0.506148 0.846945 -0.169944
C14   C     C_R   0.920600 0.507402 0.475942 -0.103834
C15   C     C_R   0.492607 0.079409 0.524060 -0.103844
C16   C     C_R   0.492598 0.920598 0.475942 -0.103861
C17   C     C_R   0.420598 0.992627 0.024065 -0.103830
C18   C     C_R   0.579394 0.992575 0.975936 -0.103868
C19   C     C_R   0.007410 0.420598 0.024062 -0.103867
C20   C     C_R   0.007385 0.579409 0.975936 -0.103826
C21   C     C_R   0.579398 0.007379 0.024057 -0.103875
C22   C     C_R   0.420601 0.007418 0.975942 -0.103822
C23   C     C_R   0.992602 0.579409 0.024060 -0.103834
C24   C     C_R   0.960738 0.493850 0.153056 -0.170068
C25   C     C_R   0.992602 0.420598 0.975942 -0.103873
C26   C     C_R   0.584276 0.915723 0.750000 0.512375
C27   C     C_R   0.415724 0.084276 0.250000 0.511819
C28   C     C_R   0.084269 0.584270 0.749995 0.513089
C29   C     C_R   0.915726 0.415724 0.250003 0.511656
C30   C     C_R   0.415725 0.084276 0.750000 0.512414
C31   C     C_R   0.584275 0.915724 0.249999 0.511304
C32   C     C_R   0.915723 0.415723 0.750000 0.512611
C33   C     C_R   0.084276 0.584276 0.250000 0.511661
C34   C     C_R   0.415723 0.915724 0.250000 0.512635
C35   C     C_R   0.493847 0.960724 0.846946 -0.169974
C36   C     C_R   0.584276 0.084276 0.750000 0.511699
C37   C     C_R   0.915725 0.584276 0.250001 0.512614
C38   C     C_R   0.084275 0.415724 0.749999 0.511291
C39   C     C_R   0.584271 0.084273 0.249995 0.513077
C40   C     C_R   0.415735 0.915732 0.750003 0.512583
C41   C     C_R   0.084276 0.415723 0.250000 0.512579
C42   C     C_R   0.915724 0.584276 0.750000 0.511804
C43   C     C_R   0.345034 0.884930 0.735831 -0.127288
C44   C     C_R   0.655038 0.115022 0.264096 -0.127202
C45   C     C_R   0.115193 0.345157 0.735709 -0.114196
C46   C     C_R   0.506141 0.960729 0.153055 -0.170137
C47   C     C_R   0.884819 0.654856 0.264282 -0.112874
C48   C     C_R   0.654840 0.115193 0.735707 -0.114068
C49   C     C_R   0.345146 0.884820 0.264283 -0.112875
C50   C     C_R   0.884807 0.654841 0.735707 -0.113982
C51   C     C_R   0.115180 0.345145 0.264284 -0.112915
C52   C     C_R   0.654836 0.884809 0.264288 -0.114720
C53   C     C_R   0.345150 0.115178 0.735721 -0.113425
C54   C     C_R   0.884707 0.345294 0.264404 -0.114116
C55   C     C_R   0.115338 0.654638 0.735527 -0.112017
C56   C     C_R   0.345162 0.115192 0.264292 -0.114009
C57   C     C_R   0.039263 0.493852 0.846944 -0.169863
C58   C     C_R   0.654852 0.884822 0.735718 -0.112962
C59   C     C_R   0.115193 0.654839 0.264292 -0.114069
C60   C     C_R   0.884820 0.345146 0.735717 -0.112892
C61   C     C_R   0.845294 0.384660 0.235639 -0.113932
C62   C     C_R   0.154774 0.615265 0.764277 -0.127345
C63   C     C_R   0.615193 0.845158 0.235708 -0.114148
C64   C     C_R   0.384820 0.154857 0.764282 -0.112962
C65   C     C_R   0.154840 0.615193 0.235707 -0.114039
C66   C     C_R   0.845146 0.384820 0.764283 -0.112921
C67   C     C_R   0.384808 0.154841 0.235707 -0.113945
C68   C     C_R   0.039276 0.506149 0.153054 -0.170034
C69   C     C_R   0.615177 0.845142 0.764282 -0.113520
C70   C     C_R   0.154836 0.384809 0.764288 -0.114757
C71   C     C_R   0.845152 0.615180 0.235720 -0.112820
C72   C     C_R   0.384974 0.845034 0.764211 -0.127721
C73   C     C_R   0.615086 0.154914 0.235715 -0.112020
C74   C     C_R   0.845161 0.615191 0.764292 -0.114057
C75   C     C_R   0.154852 0.384821 0.235717 -0.112872
C76   C     C_R   0.615193 0.154839 0.764292 -0.114098
C77   C     C_R   0.384820 0.845147 0.235717 -0.112845
C78   C     C_R   0.312351 0.852503 0.735711 0.066768
C79   C     C_R   0.006148 0.539269 0.346944 -0.169983
C80   C     C_R   0.687758 0.147381 0.264179 0.071360
C81   C     C_R   0.147675 0.312422 0.735482 0.079585
C82   C     C_R   0.852337 0.687592 0.264509 0.079954
C83   C     C_R   0.687574 0.147674 0.735481 0.079675
C84   C     C_R   0.312412 0.852339 0.264509 0.079959
C85   C     C_R   0.852325 0.687576 0.735480 0.079687
C86   C     C_R   0.147662 0.312410 0.264510 0.079926
C87   C     C_R   0.687571 0.852328 0.264514 0.079443
C88   C     C_R   0.312414 0.147659 0.735495 0.079744
C89   C     C_R   0.852234 0.312555 0.264645 0.079459
C90   C     C_R   0.993855 0.539277 0.653055 -0.170165
C91   C     C_R   0.147883 0.687335 0.735246 0.075638
C92   C     C_R   0.312427 0.147674 0.264518 0.079705
C93   C     C_R   0.687587 0.852340 0.735491 0.079876
C94   C     C_R   0.147674 0.687574 0.264519 0.079682
C95   C     C_R   0.852339 0.312412 0.735491 0.079937
C96   C     C_R   0.812577 0.352163 0.235421 0.079535
C97   C     C_R   0.187485 0.647629 0.764366 0.071211
C98   C     C_R   0.647676 0.812423 0.235481 0.079607
C99   C     C_R   0.352338 0.187592 0.764508 0.079885
C100  C     C_R   0.187574 0.647674 0.235481 0.079688
C101  C     C_R   0.460723 0.006149 0.346945 -0.169928
C102  C     C_R   0.812412 0.352339 0.764509 0.079936
C103  C     C_R   0.352326 0.187577 0.235480 0.079730
C104  C     C_R   0.647659 0.812407 0.764509 0.079719
C105  C     C_R   0.187571 0.352328 0.764515 0.079402
C106  C     C_R   0.812417 0.647662 0.235493 0.079950
C107  C     C_R   0.352571 0.812330 0.764353 0.067233
C108  C     C_R   0.647620 0.187628 0.235444 0.076074
C109  C     C_R   0.812426 0.647672 0.764518 0.079683
C110  C     C_R   0.187587 0.352339 0.235491 0.079945
C111  C     C_R   0.647674 0.187574 0.764519 0.079669
C112  C     C_R   0.499998 1.000000 0.310570 0.522102
C113  C     C_R   0.460738 0.993853 0.653056 -0.170104
C114  C     C_R   0.352339 0.812412 0.235491 0.079961
C115  C     C_R   0.315893 0.815836 0.750038 0.116880
C116  C     C_R   0.684264 0.184015 0.249837 0.105073
C117  C     C_R   0.184135 0.315863 0.749999 0.093285
C118  C     C_R   0.815865 0.684139 0.250001 0.093330
C119  C     C_R   0.684136 0.184136 0.750000 0.093305
C120  C     C_R   0.315863 0.815863 0.250000 0.093333
C121  C     C_R   0.815864 0.684136 0.749999 0.093313
C122  C     C_R   0.184137 0.315862 0.250001 0.093335
C123  C     C_R   0.684135 0.815864 0.249998 0.093305
C124  C     C_R   0.993852 0.460723 0.346946 -0.169941
C125  C     C_R   0.315864 0.184137 0.750002 0.093321
C126  C     C_R   0.815899 0.315840 0.250039 0.093133
C127  C     C_R   0.184261 0.683994 0.749831 0.104692
C128  C     C_R   0.315865 0.184136 0.249999 0.093335
C129  C     C_R   0.684135 0.815861 0.750000 0.093324
C130  C     C_R   0.184136 0.684136 0.250000 0.093314
C131  C     C_R   0.815863 0.315863 0.750000 0.093322
C132  C     C_R   0.381466 0.881452 0.750014 -0.000159
C133  C     C_R   0.618583 0.118537 0.249948 -0.002907
C134  C     C_R   0.118572 0.381425 0.749999 -0.006138
C135  C     C_R   0.006146 0.460730 0.653055 -0.170153
C136  C     C_R   0.881428 0.618576 0.250001 -0.005839
C137  C     C_R   0.618575 0.118574 0.750000 -0.006054
C138  C     C_R   0.381425 0.881425 0.250000 -0.005860
C139  C     C_R   0.881426 0.618575 0.749999 -0.006008
C140  C     C_R   0.118574 0.381424 0.250001 -0.005863
C141  C     C_R   0.618573 0.881425 0.249998 -0.006119
C142  C     C_R   0.381427 0.118575 0.750001 -0.005917
C143  C     C_R   0.881436 0.381422 0.250014 -0.005957
C144  C     C_R   0.118578 0.618526 0.749945 -0.002794
C145  C     C_R   0.381426 0.118575 0.249999 -0.005987
C146  C     C_R   0.539262 0.993850 0.346944 -0.169849
C147  C     C_R   0.618573 0.881424 0.750000 -0.005943
C148  C     C_R   0.118575 0.618574 0.250000 -0.006030
C149  C     C_R   0.881425 0.381425 0.750000 -0.005876
C150  C     C_R   0.218576 0.718363 0.749948 0.370608
C151  C     C_R   0.781580 0.281473 0.250041 0.350911
C152  C     C_R   0.281521 0.218480 0.750001 0.349734
C153  C     C_R   0.718478 0.781523 0.249998 0.349548
C154  C     C_R   0.781520 0.281520 0.750000 0.349645
C155  C     C_R   0.218478 0.718478 0.250000 0.349522
C156  C     C_R   0.718478 0.781519 0.750000 0.349677
C157  C     C_R   0.539276 0.006147 0.653054 -0.170090
C158  C     C_R   0.281523 0.218478 0.249999 0.349538
C159  C     C_R   0.781522 0.718481 0.250001 0.349689
C160  C     C_R   0.218477 0.281522 0.749999 0.349614
C161  C     C_R   0.718583 0.218379 0.249954 0.367838
C162  C     C_R   0.281577 0.781469 0.750038 0.386435
C163  C     C_R   0.218479 0.281520 0.250001 0.349632
C164  C     C_R   0.781522 0.718477 0.749999 0.349603
C165  C     C_R   0.281520 0.781520 0.250000 0.349630
C166  C     C_R   0.718478 0.218478 0.750000 0.349539
C167  C     C_R   0.461548 0.007439 0.917139 0.461494
C168  C     C_R   0.499999 0.999994 0.882125 0.268759
C169  C     C_R   0.538451 0.007432 0.082860 0.461446
C170  C     C_R   0.992554 0.461547 0.917139 0.461436
C171  C     C_R   0.992574 0.538457 0.082862 0.461473
C172  C     C_R   0.538448 0.992546 0.917137 0.461454
C173  C     C_R   0.461545 0.992581 0.082864 0.461497
C174  C     C_R   0.007419 0.538458 0.917136 0.461507
C175  C     C_R   0.007451 0.461547 0.082862 0.461466
C176  C     C_R   0.961547 0.507432 0.417139 0.461484
C177  C     C_R   0.038451 0.507440 0.582860 0.461456
C178  C     C_R   0.492552 0.961547 0.417139 0.461447
C179  C     C_R   0.499999 0.000006 0.117875 0.268772
C180  C     C_R   0.492577 0.038458 0.582862 0.461468
C181  C     C_R   0.038450 0.492553 0.417137 0.461462
C182  C     C_R   0.961547 0.492575 0.582864 0.461488
C183  C     C_R   0.507421 0.038457 0.417136 0.461497
C184  C     C_R   0.507449 0.961547 0.582862 0.461474
C185  C     C_R   0.506505 0.039859 0.870272 0.030484
C186  C     C_R   0.493507 0.039872 0.129728 0.030431
C187  C     C_R   0.960128 0.506500 0.870272 0.030511
C188  C     C_R   0.960149 0.493499 0.129729 0.030457
C189  C     C_R   0.493494 0.960131 0.870273 0.030459
C190  C     C_R   0.999989 0.500001 0.882125 0.268753
C191  C     C_R   0.506492 0.960138 0.129728 0.030425
C192  C     C_R   0.039852 0.493501 0.870271 0.030520
C193  C     C_R   0.039870 0.506501 0.129727 0.030450
C194  C     C_R   0.006499 0.539860 0.370272 0.030486
C195  C     C_R   0.993503 0.539871 0.629728 0.030429
C196  C     C_R   0.460128 0.006501 0.370272 0.030503
C197  C     C_R   0.460148 0.993501 0.629729 0.030449
C198  C     C_R   0.993500 0.460130 0.370273 0.030465
C199  C     C_R   0.006498 0.460139 0.629728 0.030433
C200  C     C_R   0.539852 0.993499 0.370271 0.030521
C201  C     C_R   0.000011 0.500001 0.117875 0.268767
C202  C     C_R   0.539871 0.006499 0.629727 0.030447
C203  C     C_2   0.486132 0.917024 0.881373 0.269953
C204  C     C_2   0.513839 0.917029 0.118628 0.269686
C205  C     C_2   0.082956 0.486146 0.881371 0.269924
C206  C     C_2   0.082975 0.513859 0.118627 0.269774
C207  C     C_2   0.513867 0.082964 0.881370 0.269726
C208  C     C_2   0.486159 0.082982 0.118628 0.269660
C209  C     C_2   0.917022 0.513856 0.881372 0.269800
C210  C     C_2   0.917046 0.486141 0.118630 0.269682
C211  C     C_2   0.986143 0.417022 0.381373 0.269932
C212  C     C_R   0.999999 0.499994 0.382125 0.268756
C213  C     C_2   0.013851 0.417031 0.618628 0.269643
C214  C     C_2   0.582955 0.986141 0.381371 0.269906
C215  C     C_2   0.582976 0.013855 0.618627 0.269717
C216  C     C_2   0.013856 0.582966 0.381371 0.269780
C217  C     C_2   0.986149 0.582981 0.618628 0.269683
C218  C     C_2   0.417023 0.013859 0.381372 0.269842
C219  C     C_2   0.417046 0.986146 0.618630 0.269694
C220  C     C_2   0.375715 0.006945 0.941933 0.301649
C221  C     C_2   0.624284 0.006889 0.058065 0.301326
C222  C     C_2   0.993079 0.375707 0.941932 0.301479
C223  C     C_R   0.000000 0.500001 0.689429 0.521663
C224  C     C_R   1.000000 0.500006 0.617875 0.268771
C225  C     C_2   0.993086 0.624299 0.058070 0.301516
C226  C     C_2   0.624281 0.993039 0.941923 0.301480
C227  C     C_2   0.375712 0.993125 0.058078 0.301512
C228  C     C_2   0.006893 0.624299 0.941924 0.301766
C229  C     C_2   0.006940 0.375707 0.058073 0.301418
C230  C     C_2   0.875714 0.506920 0.441934 0.301638
C231  C     C_2   0.124284 0.506915 0.558065 0.301357
C232  C     C_2   0.493072 0.875707 0.441932 0.301519
C233  C     C_2   0.493094 0.124299 0.558070 0.301469
C234  C     C_2   0.124283 0.493065 0.441923 0.301525
C235  C     C_R   0.499989 0.000001 0.382125 0.268752
C236  C     C_2   0.875714 0.493100 0.558078 0.301471
C237  C     C_2   0.506900 0.124299 0.441924 0.301731
C238  C     C_2   0.506933 0.875706 0.558073 0.301423
C239  C     C_R   0.500011 0.000001 0.617875 0.268770
C240  C     C_R   0.499998 0.999995 0.952534 -0.030228
C241  C     C_R   0.499998 0.000005 0.047466 -0.030248
C242  C     C_R   0.999991 0.500003 0.952534 -0.030222
C243  C     C_R   0.000009 0.500003 0.047466 -0.030240
C244  C     C_R   0.999998 0.499995 0.452534 -0.030224
C245  C     C_R   0.999999 0.500005 0.547466 -0.030250
C246  C     C_R   0.499990 0.000003 0.452534 -0.030220
C247  C     C_R   0.000000 0.499999 0.310571 0.521944
C248  C     C_R   0.500009 0.000003 0.547466 -0.030245
C249  C     C_R   0.459780 0.004446 0.940649 0.012381
C250  C     C_R   0.540218 0.004436 0.059350 0.012403
C251  C     C_R   0.995551 0.459780 0.940649 0.012391
C252  C     C_R   0.995567 0.540225 0.059352 0.012376
C253  C     C_R   0.540216 0.995541 0.940646 0.012388
C254  C     C_R   0.459778 0.995576 0.059354 0.012373
C255  C     C_R   0.004426 0.540226 0.940646 0.012362
C256  C     C_R   0.004455 0.459780 0.059353 0.012390
C257  C     C_R   0.959780 0.504438 0.440649 0.012378
C258  C     C_R   0.000002 0.500000 0.189429 0.521811
C259  C     C_R   0.040218 0.504444 0.559350 0.012402
C260  C     C_R   0.495549 0.959780 0.440649 0.012391
C261  C     C_R   0.495570 0.040225 0.559352 0.012376
C262  C     C_R   0.040217 0.495549 0.440646 0.012389
C263  C     C_R   0.959780 0.495568 0.559354 0.012374
C264  C     C_R   0.504428 0.040225 0.440646 0.012363
C265  C     C_R   0.504452 0.959780 0.559353 0.012394
C266  C     C_R   0.419747 0.007365 0.952700 0.014662
C267  C     C_R   0.580252 0.007330 0.047299 0.014746
C268  C     C_R   0.992649 0.419743 0.952700 0.014692
C269  C     C_R   0.999998 0.500000 0.810570 0.522087
C270  C     C_R   0.992657 0.580263 0.047302 0.014692
C271  C     C_R   0.580249 0.992624 0.952694 0.014687
C272  C     C_R   0.419743 0.992680 0.047307 0.014683
C273  C     C_R   0.007330 0.580264 0.952694 0.014621
C274  C     C_R   0.007364 0.419743 0.047304 0.014712
C275  C     C_R   0.919746 0.507349 0.452700 0.014654
C276  C     C_R   0.080252 0.507347 0.547299 0.014743
C277  C     C_R   0.492644 0.919743 0.452700 0.014683
C278  C     C_R   0.492661 0.080263 0.547302 0.014697
C279  C     C_R   0.080251 0.492640 0.452694 0.014682
C280  C     C_R   0.500000 0.000001 0.189429 0.521678
C281  C     C_R   0.919745 0.492665 0.547307 0.014693
C282  C     C_R   0.507335 0.080263 0.452694 0.014625
C283  C     C_R   0.507359 0.919742 0.547304 0.014720
C284  C     C_R   0.500000 0.999997 0.835168 0.014997
C285  C     C_R   0.500000 0.000003 0.164831 0.014921
C286  C     C_R   0.999994 0.500000 0.835168 0.015076
C287  C     C_R   0.000005 0.500000 0.164832 0.014992
C288  C     C_R   0.000000 0.499997 0.335168 0.015031
C289  C     C_R   0.000000 0.500003 0.664831 0.014915
C290  C     C_R   0.499994 1.000000 0.335168 0.015083
C291  C     C_R   0.500000 0.999999 0.810571 0.521954
C292  C     C_R   0.500005 1.000000 0.664832 0.014956
C293  C     C_R   0.959785 0.498163 0.511851 0.002318
C294  C     C_R   0.040211 0.498153 0.488149 0.002319
C295  C     C_R   0.501845 0.959787 0.511850 0.002313
C296  C     C_R   0.501838 0.040219 0.488149 0.002332
C297  C     C_R   0.040211 0.501841 0.511847 0.002307
C298  C     C_R   0.959786 0.501844 0.488152 0.002328
C299  C     C_R   0.498160 0.040220 0.511849 0.002317
C300  C     C_R   0.498156 0.959787 0.488152 0.002317
C301  C     C_R   0.459785 0.998170 0.011851 0.002322
C302  C     C_R   0.506153 0.039268 0.846944 -0.170038
C303  C     C_R   0.540210 0.998145 0.988149 0.002316
C304  C     C_R   0.001848 0.459787 0.011850 0.002314
C305  C     C_R   0.001836 0.540220 0.988149 0.002336
C306  C     C_R   0.540211 0.001832 0.011847 0.002303
C307  C     C_R   0.459786 0.001852 0.988152 0.002328
C308  C     C_R   0.998157 0.540220 0.011848 0.002321
C309  C     C_R   0.998158 0.459787 0.988152 0.002314
C310  C     C_R   0.999998 0.500003 0.523691 0.040314
C311  C     C_R   0.999998 0.499997 0.476309 0.040328
C312  C     C_R   0.500005 0.000003 0.523691 0.040316
H1    H     H_    0.341862 0.912753 0.724670 0.142169
H2    H     H_    0.342419 0.087346 0.724545 0.140986
H3    H     H_    0.210459 0.642690 0.795839 0.242564
H4    H     H_    0.614422 0.777217 0.211586 0.233576
H5    H     H_    0.669098 0.779976 0.208286 0.241686
H6    H     H_    0.385616 0.222821 0.788386 0.234306
H7    H     H_    0.330944 0.220063 0.791702 0.242707
H8    H     H_    0.222776 0.614414 0.211582 0.233594
H9    H     H_    0.220019 0.669095 0.208285 0.241855
H10   H     H_    0.777188 0.385622 0.788392 0.234352
H11   H     H_    0.779944 0.330944 0.791704 0.242795
H12   H     H_    0.385582 0.222781 0.211581 0.233619
H13   H     H_    0.912428 0.342689 0.275657 0.140346
H14   H     H_    0.330907 0.220023 0.208284 0.241808
H15   H     H_    0.614376 0.777178 0.788389 0.233649
H16   H     H_    0.669048 0.779935 0.791703 0.243008
H17   H     H_    0.222769 0.385591 0.788409 0.232744
H18   H     H_    0.220015 0.330911 0.791710 0.242046
H19   H     H_    0.777200 0.614377 0.211613 0.234510
H20   H     H_    0.779954 0.669055 0.208299 0.242704
H21   H     H_    0.386139 0.760027 0.776201 0.245888
H22   H     H_    0.358195 0.788811 0.795693 0.240395
H23   H     H_    0.614109 0.223043 0.211721 0.235232
H24   H     H_    0.087591 0.657270 0.724293 0.141452
H25   H     H_    0.668747 0.220292 0.208258 0.240719
H26   H     H_    0.777225 0.614410 0.788417 0.233427
H27   H     H_    0.779978 0.669091 0.791713 0.241914
H28   H     H_    0.222809 0.385624 0.211608 0.234486
H29   H     H_    0.220056 0.330946 0.208296 0.242746
H30   H     H_    0.614414 0.222775 0.788418 0.233454
H31   H     H_    0.669089 0.220012 0.791715 0.241871
H32   H     H_    0.385622 0.777189 0.211608 0.234487
H33   H     H_    0.330950 0.779951 0.208296 0.242788
H34   H     H_    0.482263 0.887610 0.871311 0.104594
H35   H     H_    0.342442 0.087372 0.275479 0.140312
H36   H     H_    0.517702 0.887613 0.128690 0.104512
H37   H     H_    0.112369 0.482279 0.871308 0.104497
H38   H     H_    0.112386 0.517728 0.128688 0.104552
H39   H     H_    0.517736 0.112380 0.871308 0.104484
H40   H     H_    0.482296 0.112397 0.128690 0.104488
H41   H     H_    0.887611 0.517723 0.871311 0.104509
H42   H     H_    0.887633 0.482273 0.128693 0.104493
H43   H     H_    0.982276 0.387607 0.371311 0.104660
H44   H     H_    0.017717 0.387615 0.628690 0.104462
H45   H     H_    0.612368 0.982273 0.371308 0.104502
H46   H     H_    0.657585 0.912654 0.724540 0.141510
H47   H     H_    0.612387 0.017722 0.628688 0.104506
H48   H     H_    0.017723 0.612382 0.371308 0.104530
H49   H     H_    0.982283 0.612396 0.628690 0.104489
H50   H     H_    0.387611 0.017727 0.371310 0.104559
H51   H     H_    0.387632 0.982279 0.628693 0.104421
H52   H     H_    0.369673 0.986982 0.927294 0.167181
H53   H     H_    0.630318 0.986925 0.072706 0.166885
H54   H     H_    0.013039 0.369668 0.927291 0.166989
H55   H     H_    0.013050 0.630336 0.072709 0.167000
H56   H     H_    0.630325 0.013001 0.927282 0.166994
H57   H     H_    0.087375 0.657561 0.275479 0.140287
H58   H     H_    0.369680 0.013091 0.072718 0.166980
H59   H     H_    0.986929 0.630336 0.927285 0.167069
H60   H     H_    0.986981 0.369666 0.072715 0.166919
H61   H     H_    0.869676 0.486957 0.427294 0.167138
H62   H     H_    0.130322 0.486952 0.572706 0.166866
H63   H     H_    0.513032 0.869666 0.427291 0.167009
H64   H     H_    0.513058 0.130335 0.572708 0.166980
H65   H     H_    0.130322 0.513027 0.427282 0.167014
H66   H     H_    0.869677 0.513065 0.572718 0.166960
H67   H     H_    0.486936 0.130336 0.427285 0.167087
H68   H     H_    0.912649 0.342414 0.724538 0.141516
H69   H     H_    0.486973 0.869667 0.572715 0.166956
H70   H     H_    0.842665 0.412369 0.224376 0.140281
H71   H     H_    0.157717 0.587671 0.775599 0.143368
H72   H     H_    0.587376 0.842435 0.224523 0.140304
H73   H     H_    0.658192 0.087217 0.275271 0.143395
H74   H     H_    0.412649 0.157591 0.775458 0.141483
H75   H     H_    0.157562 0.587375 0.224521 0.140322
H76   H     H_    0.842413 0.412649 0.775461 0.141483
H77   H     H_    0.412626 0.157563 0.224520 0.140342
H78   H     H_    0.587347 0.842408 0.775460 0.140921
H79   H     H_    0.157556 0.412630 0.775473 0.139713
H80   H     H_    0.842422 0.587349 0.224542 0.141586
H81   H     H_    0.412809 0.841885 0.775363 0.142107
H82   H     H_    0.587132 0.157757 0.224627 0.141425
H83   H     H_    0.842441 0.587371 0.775478 0.140279
H84   H     H_    0.087375 0.342434 0.724524 0.140272
H85   H     H_    0.157583 0.412652 0.224538 0.141546
H86   H     H_    0.587375 0.157561 0.775479 0.140264
H87   H     H_    0.412649 0.842414 0.224538 0.141548
H88   H     H_    0.488909 0.930280 0.837890 0.126612
H89   H     H_    0.511070 0.930282 0.162110 0.126581
H90   H     H_    0.069707 0.488918 0.837889 0.126584
H91   H     H_    0.069717 0.511085 0.162109 0.126623
H92   H     H_    0.511091 0.069713 0.837889 0.126583
H93   H     H_    0.488930 0.069724 0.162110 0.126583
H94   H     H_    0.930281 0.511082 0.837890 0.126608
H95   H     H_    0.912647 0.657589 0.275460 0.141519
H96   H     H_    0.930294 0.488914 0.162112 0.126581
H97   H     H_    0.988917 0.430279 0.337890 0.126656
H98   H     H_    0.011079 0.430283 0.662110 0.126559
H99   H     H_    0.569707 0.988914 0.337889 0.126602
H100  H     H_    0.569718 0.011081 0.662109 0.126598
H101  H     H_    0.011083 0.569715 0.337888 0.126610
H102  H     H_    0.988922 0.569723 0.662111 0.126569
H103  H     H_    0.430281 0.011084 0.337890 0.126629
H104  H     H_    0.430294 0.988918 0.662112 0.126536
H105  H     H_    0.889478 0.487996 0.515860 0.161565
H106  H     H_    0.657562 0.087375 0.724521 0.140299
H107  H     H_    0.110517 0.487971 0.484142 0.161532
H108  H     H_    0.512023 0.889474 0.515855 0.161541
H109  H     H_    0.512007 0.110533 0.484142 0.161551
H110  H     H_    0.110518 0.512011 0.515848 0.161541
H111  H     H_    0.889479 0.512023 0.484150 0.161547
H112  H     H_    0.487988 0.110533 0.515853 0.161556
H113  H     H_    0.487981 0.889474 0.484150 0.161536
H114  H     H_    0.389476 0.988018 0.015860 0.161578
H115  H     H_    0.610514 0.987949 0.984142 0.161530
H116  H     H_    0.012029 0.389474 0.015855 0.161535
H117  H     H_    0.342413 0.912649 0.275461 0.141517
H118  H     H_    0.012000 0.610534 0.984142 0.161560
H119  H     H_    0.610519 0.011988 0.015848 0.161533
H120  H     H_    0.389481 0.012045 0.984150 0.161554
H121  H     H_    0.987981 0.610533 0.015853 0.161558
H122  H     H_    0.987988 0.389474 0.984150 0.161526
H123  H     H_    0.260026 0.886029 0.723863 0.247382
H124  H     H_    0.288812 0.858076 0.704375 0.238943
H125  H     H_    0.740056 0.113812 0.276030 0.245717
H126  H     H_    0.711342 0.141859 0.295511 0.241686
H127  H     H_    0.114420 0.277215 0.711588 0.233467
H128  H     H_    0.912626 0.657564 0.724520 0.140350
H129  H     H_    0.169095 0.279973 0.708287 0.241650
H130  H     H_    0.885614 0.722818 0.288388 0.234367
H131  H     H_    0.830941 0.720060 0.291702 0.242834
H132  H     H_    0.722776 0.114414 0.711582 0.233540
H133  H     H_    0.720020 0.169095 0.708285 0.241830
H134  H     H_    0.277188 0.885622 0.288392 0.234425
H135  H     H_    0.279944 0.830944 0.291704 0.242819
H136  H     H_    0.885582 0.722781 0.711581 0.233567
H137  H     H_    0.830907 0.720023 0.708284 0.241754
H138  H     H_    0.114382 0.277184 0.288394 0.234395
H139  H     H_    0.087351 0.342412 0.275463 0.141521
H140  H     H_    0.169054 0.279942 0.291705 0.242863
H141  H     H_    0.722769 0.885591 0.288410 0.232809
H142  H     H_    0.720015 0.830910 0.291710 0.242101
H143  H     H_    0.277194 0.114371 0.711617 0.233763
H144  H     H_    0.279947 0.169048 0.708301 0.242847
H145  H     H_    0.885299 0.277597 0.288704 0.233190
H146  H     H_    0.830597 0.280385 0.291882 0.244743
H147  H     H_    0.114810 0.722295 0.711194 0.235000
H148  H     H_    0.169504 0.719439 0.707990 0.242807
H149  H     H_    0.277227 0.114413 0.288418 0.233536
H150  H     H_    0.657555 0.912629 0.275473 0.139718
H151  H     H_    0.279981 0.169093 0.291715 0.241951
H152  H     H_    0.722812 0.885626 0.711610 0.234426
H153  H     H_    0.720058 0.830949 0.708297 0.242619
H154  H     H_    0.114414 0.722775 0.288418 0.233509
H155  H     H_    0.169089 0.720012 0.291715 0.241898
H156  H     H_    0.885622 0.277189 0.711608 0.234414
H157  H     H_    0.830951 0.279951 0.708296 0.242763
H158  H     H_    0.777582 0.385183 0.211360 0.233715
H159  H     H_    0.780410 0.330474 0.208198 0.241141
H160  H     H_    0.239551 0.614286 0.776636 0.244945
N1    N     N_R   0.292608 0.738345 0.751671 -0.181083
N2    N     N_R   0.292589 0.261659 0.751077 -0.179736
N3    N     N_R   0.738418 0.292503 0.248761 -0.178587
N4    N     N_R   0.261698 0.707382 0.751626 -0.182725
N5    N     N_R   0.292592 0.261657 0.248920 -0.179250
N6    N     N_R   0.707409 0.738340 0.751078 -0.180029
N7    N     N_R   0.261653 0.707403 0.248913 -0.179337
N8    N     N_R   0.738345 0.292595 0.751087 -0.179510
N9    N     N_R   0.792662 0.238315 0.251297 -0.180334
N10   N     N_R   0.207540 0.761486 0.748338 -0.176950
N11   N     N_R   0.761651 0.792598 0.251076 -0.180035
N12   N     N_R   0.707506 0.261542 0.248717 -0.176718
N13   N     N_R   0.238347 0.207405 0.748924 -0.179747
N14   N     N_R   0.207408 0.761657 0.251087 -0.179495
N15   N     N_R   0.792590 0.238341 0.748913 -0.179364
N16   N     N_R   0.238349 0.207403 0.251080 -0.179541
N17   N     N_R   0.761652 0.792594 0.748921 -0.179254
N18   N     N_R   0.207408 0.238343 0.748923 -0.179550
N19   N     N_R   0.792591 0.761660 0.251077 -0.179703
N20   N     N_R   0.238450 0.792446 0.748379 -0.179437
N21   N     N_R   0.761747 0.207354 0.251257 -0.182726
N22   N     N_R   0.792591 0.761656 0.748920 -0.179339
N23   N     N_R   0.261650 0.292597 0.751076 -0.180124
N24   N     N_R   0.207410 0.238342 0.251080 -0.179497
N25   N     N_R   0.761652 0.207403 0.748913 -0.179421
N26   N     N_R   0.238345 0.792595 0.251087 -0.179419
N27   N     N_R   0.499998 0.999993 0.906107 -0.325721
N28   N     N_R   0.499998 0.000007 0.093893 -0.325683
N29   N     N_R   0.999986 0.500003 0.906107 -0.325749
N30   N     N_R   0.000013 0.500002 0.093893 -0.325701
N31   N     N_R   0.999999 0.499993 0.406107 -0.325731
N32   N     N_R   0.999999 0.500007 0.593893 -0.325683
N33   N     N_R   0.499986 0.000002 0.406107 -0.325750
N34   N     N_R   0.738349 0.707406 0.248923 -0.179217
N35   N     N_R   0.500013 0.000002 0.593893 -0.325691
N36   N     N_3   0.276169 0.856381 0.720550 -0.593630
N37   N     N_3   0.723960 0.143491 0.279329 -0.589525
N38   N     N_3   0.144293 0.276168 0.720194 -0.581209
N39   N     N_3   0.855732 0.723857 0.279789 -0.580792
N40   N     N_3   0.723823 0.144289 0.720190 -0.581018
N41   N     N_3   0.276149 0.855738 0.279792 -0.580612
N42   N     N_3   0.855708 0.723828 0.720189 -0.580996
N43   N     N_3   0.144265 0.276145 0.279793 -0.580678
N44   N     N_3   0.723819 0.855714 0.279803 -0.581850
N45   N     N_R   0.707408 0.261657 0.751087 -0.179579
N46   N     N_3   0.276153 0.144257 0.720216 -0.581319
N47   N     N_3   0.855497 0.276460 0.280038 -0.580265
N48   N     N_3   0.144631 0.723412 0.719844 -0.581628
N49   N     N_3   0.276178 0.144288 0.279810 -0.581047
N50   N     N_3   0.723851 0.855740 0.720210 -0.580609
N51   N     N_3   0.144288 0.723822 0.279810 -0.581062
N52   N     N_3   0.855739 0.276150 0.720208 -0.580612
N53   N     N_3   0.776474 0.355385 0.220036 -0.581219
N54   N     N_3   0.223390 0.644023 0.779713 -0.587776
N55   N     N_3   0.644295 0.776171 0.220193 -0.580952
N56   N     N_R   0.292590 0.738341 0.248913 -0.179274
N57   N     N_3   0.355734 0.223859 0.779787 -0.580911
N58   N     N_3   0.223823 0.644289 0.220190 -0.580923
N59   N     N_3   0.776149 0.355739 0.779792 -0.580728
N60   N     N_3   0.355708 0.223828 0.220189 -0.580860
N61   N     N_3   0.644260 0.776140 0.779790 -0.581515
N62   N     N_3   0.223819 0.355714 0.779803 -0.581988
N63   N     N_3   0.776158 0.644262 0.220212 -0.580485
N64   N     N_3   0.356488 0.776156 0.779521 -0.590462
N65   N     N_3   0.644079 0.224009 0.220243 -0.581987
N66   N     N_3   0.776176 0.644286 0.779808 -0.581303
N67   N     N_R   0.738348 0.707402 0.751078 -0.179846
N68   N     N_3   0.223849 0.355739 0.220209 -0.580490
N69   N     N_3   0.644288 0.223822 0.779810 -0.581155
N70   N     N_3   0.355739 0.776150 0.220208 -0.580498
N71   N     N_R   0.261653 0.292595 0.248920 -0.179222
N72   N     N_R   0.707409 0.738344 0.248921 -0.179247
O1    O     O_3   0.500000 0.000000 0.750000 -0.433857
O2    O     O_R   0.463590 0.000000 0.299840 -0.542646
O3    O     O_2   0.527947 0.845178 0.550229 -0.463344
O4    O     O_R   0.000000 0.536410 0.700160 -0.542882
O5    O     O_R   0.000000 0.463590 0.299840 -0.542659
O6    O     O_R   0.963590 0.500000 0.200160 -0.542724
O7    O     O_R   0.036410 0.500000 0.799840 -0.542478
O8    O     O_R   0.500000 0.963590 0.200160 -0.542722
O9    O     O_R   0.500000 0.036410 0.799840 -0.542669
O10   O     O_R   0.036410 0.500000 0.200160 -0.542709
O11   O     O_R   0.963590 0.500000 0.799840 -0.542652
O12   O     O_R   0.500000 0.036410 0.200160 -0.542852
O13   O     O_3   0.500000 0.000000 0.250000 -0.433963
O14   O     O_R   0.500000 0.963590 0.799840 -0.542599
O15   O     O_R   0.587440 0.948860 0.737000 -0.542342
O16   O     O_R   0.412560 0.051140 0.263000 -0.543463
O17   O     O_R   0.051140 0.587440 0.737000 -0.542746
O18   O     O_R   0.948860 0.412560 0.263000 -0.543539
O19   O     O_R   0.412560 0.051140 0.737000 -0.542741
O20   O     O_R   0.587440 0.948860 0.263000 -0.544035
O21   O     O_R   0.948860 0.412560 0.737000 -0.542335
O22   O     O_R   0.051140 0.587440 0.263000 -0.543520
O23   O     O_R   0.412560 0.948860 0.263000 -0.542399
O24   O     O_3   0.000000 0.500000 0.750000 -0.433945
O25   O     O_R   0.587440 0.051140 0.737000 -0.543442
O26   O     O_R   0.948860 0.587440 0.263000 -0.542413
O27   O     O_R   0.051140 0.412560 0.737000 -0.543518
O28   O     O_R   0.587440 0.051140 0.263000 -0.542442
O29   O     O_R   0.412560 0.948860 0.737000 -0.543901
O30   O     O_R   0.051140 0.412560 0.263000 -0.542415
O31   O     O_R   0.948860 0.587440 0.737000 -0.543342
O32   O     O_R   0.087440 0.448860 0.237000 -0.542390
O33   O     O_R   0.912560 0.551140 0.763000 -0.543482
O34   O     O_R   0.551140 0.087440 0.237000 -0.542742
O35   O     O_3   0.000000 0.500000 0.250000 -0.434049
O36   O     O_R   0.448860 0.912560 0.763000 -0.543951
O37   O     O_R   0.912560 0.551140 0.237000 -0.542335
O38   O     O_R   0.087440 0.448860 0.763000 -0.544014
O39   O     O_R   0.448860 0.912560 0.237000 -0.542319
O40   O     O_R   0.551140 0.087440 0.763000 -0.543475
O41   O     O_R   0.912560 0.448860 0.763000 -0.542416
O42   O     O_R   0.087440 0.551140 0.237000 -0.543487
O43   O     O_R   0.448860 0.087440 0.763000 -0.542363
O44   O     O_R   0.551140 0.912560 0.237000 -0.543500
O45   O     O_R   0.087440 0.551140 0.763000 -0.542471
O46   O     O_R   0.463590 1.000000 0.700160 -0.542666
O47   O     O_R   0.912560 0.448860 0.237000 -0.543465
O48   O     O_R   0.551140 0.912560 0.763000 -0.542822
O49   O     O_R   0.448860 0.087440 0.237000 -0.543370
O50   O     O_2   0.425691 0.018498 0.905194 -0.492144
O51   O     O_2   0.574314 0.018473 0.094804 -0.492511
O52   O     O_2   0.981507 0.425684 0.905195 -0.492244
O53   O     O_2   0.981524 0.574320 0.094808 -0.492220
O54   O     O_2   0.574306 0.981487 0.905189 -0.492222
O55   O     O_2   0.425683 0.981542 0.094813 -0.492169
O56   O     O_2   0.018463 0.574321 0.905188 -0.491777
O57   O     O_R   0.536410 0.000000 0.299840 -0.542446
O58   O     O_2   0.018504 0.425685 0.094809 -0.492274
O59   O     O_2   0.925688 0.518484 0.405194 -0.492090
O60   O     O_2   0.074311 0.518487 0.594804 -0.492462
O61   O     O_2   0.481503 0.925685 0.405195 -0.492200
O62   O     O_2   0.481529 0.074321 0.594808 -0.492267
O63   O     O_2   0.074309 0.481501 0.405189 -0.492175
O64   O     O_2   0.925687 0.481529 0.594813 -0.492215
O65   O     O_2   0.518467 0.074320 0.405188 -0.491829
O66   O     O_2   0.518499 0.925683 0.594809 -0.492333
O67   O     O_2   0.484064 0.913408 0.901588 -0.475134
O68   O     O_R   0.000000 0.463590 0.700160 -0.542729
O69   O     O_2   0.515900 0.913414 0.098412 -0.475304
O70   O     O_2   0.086569 0.484083 0.901586 -0.475224
O71   O     O_2   0.086592 0.515924 0.098411 -0.475255
O72   O     O_2   0.515934 0.086578 0.901586 -0.475347
O73   O     O_2   0.484098 0.086600 0.098413 -0.475332
O74   O     O_2   0.913405 0.515920 0.901588 -0.475312
O75   O     O_2   0.913433 0.484078 0.098415 -0.475352
O76   O     O_2   0.984078 0.413405 0.401589 -0.475172
O77   O     O_2   0.015915 0.413417 0.598413 -0.475344
O78   O     O_2   0.586568 0.984078 0.401586 -0.475244
O79   O     O_R   0.000000 0.536410 0.299840 -0.542660
O80   O     O_2   0.586593 0.015918 0.598411 -0.475297
O81   O     O_2   0.015920 0.586581 0.401586 -0.475305
O82   O     O_2   0.984085 0.586598 0.598413 -0.475312
O83   O     O_2   0.413405 0.015924 0.401588 -0.475270
O84   O     O_2   0.413432 0.984083 0.598415 -0.475320
O85   O     O_2   0.345193 0.027969 0.949778 -0.463135
O86   O     O_2   0.654815 0.027895 0.050219 -0.463472
O87   O     O_2   0.972068 0.345178 0.949779 -0.463269
O88   O     O_2   0.972072 0.654828 0.050227 -0.463230
O89   O     O_2   0.654801 0.972015 0.949766 -0.463237
O90   O     O_R   0.536410 1.000000 0.700160 -0.542720
O91   O     O_2   0.345180 0.972120 0.050236 -0.463143
O92   O     O_2   0.027903 0.654830 0.949766 -0.462774
O93   O     O_2   0.027956 0.345180 0.050229 -0.463306
O94   O     O_2   0.845187 0.527937 0.449778 -0.463102
O95   O     O_2   0.154810 0.527928 0.550219 -0.463390
O96   O     O_2   0.472059 0.845180 0.449779 -0.463198
O97   O     O_2   0.472082 0.154830 0.550227 -0.463281
O98   O     O_2   0.154808 0.472047 0.449766 -0.463188
O99   O     O_2   0.845186 0.472088 0.550237 -0.463217
O100  O     O_2   0.527911 0.154828 0.449765 -0.462863
Zn1   Zn    Zn3+2 0.500000 0.948070 0.768800 0.946600
Zn2   Zn    Zn3+2 0.000000 0.551930 0.731200 0.947283
Zn3   Zn    Zn3+2 0.551930 0.000000 0.268800 0.946862
Zn4   Zn    Zn3+2 0.448070 0.000000 0.731200 0.946576
Zn5   Zn    Zn3+2 0.000000 0.551930 0.268800 0.947565
Zn6   Zn    Zn3+2 0.000000 0.448070 0.731200 0.947206
Zn7   Zn    Zn3+2 0.448070 0.000000 0.268800 0.947770
Zn8   Zn    Zn3+2 0.551930 0.000000 0.731200 0.947407
Zn9   Zn    Zn3+2 0.500000 0.051930 0.231200 0.947298
Zn10  Zn    Zn3+2 0.051930 0.500000 0.768800 0.946824
Zn11  Zn    Zn3+2 0.948070 0.500000 0.231200 0.947537
Zn12  Zn    Zn3+2 0.500000 0.051930 0.768800 0.947479
Zn13  Zn    Zn3+2 0.500000 0.948070 0.231200 0.947267
Zn14  Zn    Zn3+2 0.948070 0.500000 0.768800 0.947709
Zn15  Zn    Zn3+2 0.051930 0.500000 0.231200 0.947496
Zn16  Zn    Zn3+2 0.000000 0.448070 0.268800 0.947555

loop_
_geom_bond_atom_site_label_1
_geom_bond_atom_site_label_2
_ccdc_geom_bond_type
C20   C305  A    
O57   Zn3   S    
C47   C136  A    
C258  O6    A    
C78   C115  A    
C291  O14   A    
O35   Zn11  S    
H146  N47   S    
C189  C203  S    
N1    N4    A    
C248  C312  A    
O79   Zn5   S    
H15   N61   S    
C79   C194  A    
C91   C127  A    
O8    Zn13  S    
C206  H38   S    
C172  O54   S    
C242  C251  A    
C64   H74   S    
C250  C267  A    
C63   C98   A    
C167  N27   A    
C75   C140  A    
H141  N44   S    
C127  C150  S    
C164  N22   A    
C70   H79   S    
C230  C275  S    
C100  C130  A    
C176  C257  A    
C8    C293  A    
C238  H69   S    
C207  O72   D    
C81   C117  A    
C193  C201  A    
C35   C284  A    
C60   H68   S    
C83   C119  A    
C185  C207  S    
C280  C285  S    
C18   C271  A    
C188  C210  S    
C208  O73   D    
C261  C278  A    
C80   C116  A    
C104  N61   S    
C220  O85   D    
C85   C121  A    
C68   C193  A    
C28   C144  S    
C222  O87   D    
C155  N14   A    
C51   C140  A    
C203  O67   D    
C54   C143  A    
C24   C287  A    
C15   C299  A    
H33   N70   S    
C106  C118  A    
O13   Zn9   S    
C109  N66   S    
C157  C202  A    
H134  N41   S    
C256  C274  A    
C23   C308  A    
H153  N50   S    
C258  O10   A    
O10   Zn15  S    
O25   Zn8   S    
C101  C290  A    
C280  O8    A    
C72   C132  A    
C29   O18   A    
C15   C278  A    
O1    Zn12  S    
C229  C274  S    
C257  C275  A    
O13   Zn3   S    
C241  C250  A    
O42   Zn15  S    
H25   N65   S    
C77   C138  A    
C101  H103  S    
C66   C149  A    
C227  O91   D    
C36   O25   A    
C204  O69   D    
C55   C144  A    
C73   C108  A    
C106  N63   S    
C203  H34   S    
H8    N58   S    
C206  O71   D    
C108  N65   S    
C167  O50   S    
H19   N63   S    
C230  O94   D    
N17   N22   A    
C233  H64   S    
C150  N10   A    
C160  N23   A    
H28   N68   S    
C22   C266  A    
H12   N60   S    
O7    Zn10  S    
C27   C145  S    
C232  H63   S    
C259  C276  A    
C94   N51   S    
C210  H42   S    
C135  H98   S    
H125  N37   S    
C52   H150  S    
C293  C310  A    
C216  H48   S    
C13   H94   S    
C8    H105  S    
O35   Zn15  S    
C62   H71   S    
C69   C147  A    
C110  N68   S    
C82   C118  A    
H131  N39   S    
C219  H51   S    
H129  N38   S    
C265  C283  A    
O40   Zn12  S    
C58   C147  A    
C56   H35   S    
C45   C81   A    
C146  H99   S    
C62   C144  A    
N6    N67   A    
C70   C105  A    
C3    C296  A    
C129  C156  S    
O24   Zn2   S    
N8    N45   A    
C196  C235  A    
H17   N62   S    
H23   N65   S    
N11   N19   A    
C174  O56   S    
C63   H72   S    
C186  C208  S    
C161  N12   A    
C162  N20   A    
C237  O100  D    
O11   Zn14  S    
C57   H90   S    
O14   Zn1   S    
C135  C199  A    
C260  C277  A    
C197  C239  A    
C109  C121  A    
C230  H61   S    
H124  N36   S    
C2    H93   S    
C262  C279  A    
C34   C138  S    
C38   C134  S    
H4    N55   S    
C146  C200  A    
H126  N37   S    
C297  C310  A    
O43   Zn12  S    
C122  C163  S    
C239  N35   S    
C38   O27   A    
O22   Zn5   S    
C60   C95   A    
C179  C191  A    
H156  N52   S    
C71   C106  A    
C70   C134  A    
C19   C304  A    
C199  C224  A    
C11   C282  A    
C223  O4    A    
C36   O40   A    
O29   Zn4   S    
C4    C306  A    
O48   Zn1   S    
C183  N33   A    
C23   C270  A    
C12   C297  A    
C13   C187  A    
C5    C240  A    
O6    Zn11  S    
H127  N38   S    
C31   O20   A    
C111  N69   S    
C61   C96   A    
C67   C103  A    
C175  C256  A    
C179  C186  A    
C76   C137  A    
H157  N52   S    
C205  O70   D    
C94   C130  A    
C68   H91   S    
C198  C211  S    
C49   C84   A    
C47   H95   S    
C301  C307  A    
C90   C289  A    
C68   C287  A    
O2    Zn7   S    
C269  O11   A    
C112  O2    A    
C7    C242  A    
C111  C119  A    
C53   C142  A    
C217  H49   S    
N13   N18   A    
N5    N71   A    
C223  O68   A    
C41   C140  S    
C10   H108  S    
C201  N30   S    
C214  O78   D    
C20   C273  A    
H7    N57   S    
C64   C99   A    
O47   Zn11  S    
C294  C311  A    
C187  C209  S    
O12   Zn9   S    
O15   Zn8   S    
C67   C145  A    
C200  C214  S    
C3    C246  A    
C98   N55   S    
C198  C212  A    
C36   C137  S    
C247  O5    A    
C101  C196  A    
C17   C272  A    
C227  H58   S    
C34   O23   A    
O5    Zn16  S    
C242  C255  A    
C95   N52   S    
C54   H13   S    
C159  N19   A    
C41   O30   A    
C225  H55   S    
C86   N43   S    
O38   Zn10  S    
C90   C195  A    
C116  C161  S    
C80   N37   S    
C71   C136  A    
C150  N4    A    
H147  N48   S    
C248  C265  A    
C14   H111  S    
C194  C212  A    
C220  H52   S    
C26   O48   A    
C258  C287  S    
H6    N57   S    
C76   H86   S    
C31   C141  S    
H140  N43   S    
H21   N64   S    
C98   C123  A    
C88   C125  A    
C221  C267  S    
C62   C97   A    
C78   N36   S    
O19   Zn4   S    
C13   C286  A    
H144  N46   S    
C295  C312  A    
C135  C289  A    
C238  O3    D    
C18   C303  A    
C209  O74   D    
C99   N57   S    
C96   C126  A    
H159  N53   S    
C237  C282  S    
C5    C303  A    
C6    C304  A    
C26   O15   A    
C2    C285  A    
C25   C309  A    
O32   Zn15  S    
C12   H110  S    
C202  C215  S    
C39   O34   A    
C168  N27   S    
C226  H56   S    
C73   H82   S    
C245  C263  A    
C195  C217  S    
C246  C264  A    
C234  O98   D    
H18   N62   S    
C75   C110  A    
C233  O97   D    
H20   N63   S    
H151  N49   S    
C199  C213  S    
C222  H54   S    
C131  C154  S    
C172  N27   A    
H149  N49   S    
C247  C288  S    
C152  N2    A    
C170  N29   A    
C207  H39   S    
C89   N47   S    
C81   N38   S    
C39   C133  S    
C16   C300  A    
C52   C141  A    
C48   C83   A    
O41   Zn14  S    
C14   C298  A    
C33   C148  S    
C178  C260  A    
O90   Zn8   S    
N7    N56   A    
H27   N66   S    
C87   C123  A    
C30   O43   A    
C247  O79   A    
C31   O44   A    
C76   C111  A    
C182  C263  A    
C251  C268  A    
C21   C306  A    
C180  N35   A    
C231  C276  S    
H133  N40   S    
C66   H76   S    
H135  N41   S    
H11   N59   S    
O35   Zn5   S    
C231  H62   S    
C151  N3    A    
C171  N30   A    
C46   H89   S    
C299  C312  A    
C240  C249  A    
C244  C262  A    
C7    C305  A    
N16   N24   A    
O20   Zn3   S    
C25   H122  S    
C114  N70   S    
C93   N50   S    
C41   O32   A    
C96   N53   S    
C90   H102  S    
C229  O93   D    
C180  O62   S    
H154  N51   S    
N9    N21   A    
C32   O21   A    
C182  O64   S    
C173  N28   A    
C200  C235  A    
C59   H57   S    
C153  N72   A    
C77   H87   S    
H148  N48   S    
C43   C78   A    
C233  C278  S    
C92   N49   S    
C205  H37   S    
C72   H81   S    
N15   N25   A    
C58   C93   A    
C182  N32   A    
C190  N29   S    
C194  C216  S    
C195  C224  A    
C15   H112  S    
C19   C274  A    
C235  N33   S    
C183  C264  A    
C29   C143  S    
C124  C198  A    
O13   Zn7   S    
N10   N20   A    
C152  N13   A    
C192  C205  S    
C211  O76   D    
C264  C282  A    
C187  C190  A    
C55   C91   A    
C238  C283  S    
C50   C85   A    
C61   C143  A    
C50   H128  S    
C159  N34   A    
C221  H53   S    
H29   N68   S    
C86   C122  A    
C53   H2    S    
C181  N31   A    
C243  C252  A    
C59   C94   A    
N3    N12   A    
C74   H83   S    
C46   C191  A    
C37   O26   A    
O16   Zn7   S    
C181  O63   S    
O24   Zn10  S    
C42   C139  S    
C170  O52   S    
C35   C189  A    
C51   H139  S    
C210  O75   D    
C117  C160  S    
C95   C131  A    
C157  C292  A    
C105  C117  A    
C118  C159  S    
C74   C109  A    
C93   C129  A    
C51   C86   A    
H160  N54   S    
C120  C165  S    
C303  C306  A    
C89   C126  A    
C175  N30   A    
C113  H104  S    
C154  N8    A    
C304  C309  A    
C291  O9    A    
C175  O58   S    
C172  C253  A    
C269  O7    A    
H14   N60   S    
C221  O86   D    
O21   Zn6   S    
O31   Zn2   S    
C27   O49   A    
C102  C131  A    
C294  C297  A    
C32   O41   A    
C11   H109  S    
C166  N25   A    
C50   C139  A    
C171  C252  A    
C243  C256  A    
C185  C302  A    
H158  N53   S    
C22   C307  A    
C169  C250  A    
C177  C259  A    
C178  O61   S    
C16   C277  A    
C165  N56   A    
C298  C311  A    
C208  H40   S    
C28   O17   A    
C155  N7    A    
C44   C80   A    
C228  C273  S    
C84   C120  A    
C163  N24   A    
C225  O88   D    
C49   H117  S    
H137  N42   S    
C63   C141  A    
C37   C136  S    
C156  N17   A    
C211  H43   S    
C65   C148  A    
C28   O45   A    
C57   C192  A    
C124  C288  A    
O17   Zn2   S    
C17   C301  A    
O44   Zn13  S    
O23   Zn7   S    
C97   N54   S    
C48   H106  S    
C191  C204  S    
C77   C114  A    
C25   C268  A    
C218  H50   S    
C156  N6    A    
C248  C261  A    
C123  C153  S    
C166  N45   A    
C33   O22   A    
O36   Zn1   S    
C302  H92   S    
C190  C192  A    
C234  C279  S    
C75   H85   S    
C245  C310  A    
C46   C285  A    
C16   H113  S    
C244  C257  A    
H31   N69   S    
C65   C100  A    
H136  N42   S    
C263  C281  A    
C226  O89   D    
C196  C218  S    
C295  C300  A    
C165  N26   A    
C85   N42   S    
O37   Zn11  S    
O9    Zn12  S    
C56   C145  A    
C30   C142  S    
C35   H88   S    
C24   C188  A    
C108  C116  A    
C162  N1    A    
H22   N64   S    
H130  N39   S    
C160  N18   A    
C110  C122  A    
C269  C286  S    
O1    Zn4   S    
C252  C270  A    
C64   C142  A    
C253  C271  A    
H152  N50   S    
C179  N28   S    
C254  C272  A    
C173  O55   S    
C213  O77   D    
O24   Zn14  S    
C26   C147  S    
C245  C259  A    
C3    C300  A    
C246  C260  A    
C40   O29   A    
C33   O42   A    
C84   N41   S    
C19   H116  S    
C174  N29   A    
O35   Zn16  S    
N34   N72   A    
C17   H114  S    
C9    C279  A    
C169  N28   A    
C197  C219  S    
C34   O39   A    
C114  C120  A    
C164  N67   A    
C100  N58   S    
C225  C270  S    
C176  O59   S    
C27   O16   A    
C232  C277  S    
C112  O57   A    
C38   O38   A    
C105  N62   S    
C37   O37   A    
C112  C290  S    
C66   C102  A    
C97   C127  A    
C220  C266  S    
C12   C276  A    
H143  N46   S    
H142  N44   S    
C128  C158  S    
C99   C125  A    
C213  H44   S    
C113  C292  A    
C284  C302  A    
C45   C134  A    
C209  H41   S    
C48   C137  A    
C255  C273  A    
O1    Zn1   S    
O13   Zn13  S    
H123  N36   S    
C234  H65   S    
C43   C132  A    
C151  N9    A    
H138  N43   S    
C158  N5    A    
C184  C265  A    
C212  N31   S    
C280  O12   A    
C180  C261  A    
C82   N39   S    
C107  N64   S    
O1    Zn8   S    
C171  O53   S    
C226  C271  S    
C188  C201  A    
C293  C298  A    
C222  C268  S    
H16   N61   S    
C47   C82   A    
C229  H60   S    
C193  C206  S    
C30   O19   A    
C65   H75   S    
C1    O90   A    
C214  H45   S    
C14   C275  A    
C153  N11   A    
C32   C149  S    
C284  C291  S    
C228  O92   D    
C87   N44   S    
C42   O33   A    
C130  C155  S    
C215  O80   D    
C176  N31   A    
C173  C254  A    
C232  O96   D    
C83   N40   S    
C4    C301  A    
C59   C148  A    
C183  O65   S    
O49   Zn9   S    
C40   C132  S    
C1    O46   A    
O30   Zn16  S    
C49   C138  A    
C181  C262  A    
C55   H24   S    
O34   Zn9   S    
N2    N23   A    
C157  H100  S    
C92   C128  A    
C9    C294  A    
C296  C299  A    
C11   C296  A    
O45   Zn10  S    
H10   N59   S    
C23   H121  S    
C231  O95   D    
C43   H1    S    
C177  O60   S    
H132  N40   S    
C54   C89   A    
O28   Zn3   S    
C202  C239  A    
C217  O82   D    
C5    C307  A    
C236  O99   D    
O27   Zn6   S    
C6    C308  A    
C121  C164  S    
C91   N48   S    
C1    C292  S    
C169  O51   S    
C249  C266  A    
C2    C186  A    
C79   H101  S    
C69   H78   S    
N14   N26   A    
C125  C152  S    
H32   N70   S    
C154  N15   A    
O24   Zn6   S    
C126  C151  S    
C227  C272  S    
C22   H120  S    
C29   O47   A    
C72   C107  A    
C305  C308  A    
H155  N51   S    
C88   N46   S    
C18   H115  S    
C103  C128  A    
C228  H59   S    
C119  C166  S    
C107  C115  A    
O68   Zn6   S    
C7    C309  A    
C178  N33   A    
O26   Zn5   S    
O39   Zn13  S    
C73   C133  A    
C103  N60   S    
C223  C289  S    
H30   N69   S    
C6    C243  A    
C177  N32   A    
H26   N66   S    
C244  C311  A    
C4    C241  A    
C71   H80   S    
C69   C104  A    
O18   Zn16  S    
C79   C288  A    
C9    H107  S    
C168  C185  A    
C24   H96   S    
C67   H77   S    
H9    N58   S    
C224  N32   S    
C52   C87   A    
C20   H118  S    
C236  C281  S    
H145  N47   S    
C21   H119  S    
O4    Zn2   S    
C57   C286  A    
C61   H70   S    
C58   H46   S    
C102  N59   S    
C74   C139  A    
C167  C249  A    
C184  O66   S    
C168  C189  A    
C115  C162  S    
O33   Zn14  S    
C124  H97   S    
C8    C281  A    
C146  C290  A    
C10   C283  A    
C204  H36   S    
C215  H47   S    
C39   O28   A    
C44   C133  A    
C170  C251  A    
C53   C88   A    
C60   C149  A    
C104  C129  A    
H3    N54   S    
C163  N71   A    
C21   C267  A    
C184  N35   A    
C240  C253  A    
C174  C255  A    
C56   C92   A    
C161  N21   A    
C219  O84   D    
C40   O36   A    
C158  N16   A    
C216  O81   D    
C113  C197  A    
C241  C254  A    
C44   H73   S    
C218  O83   D    
O46   Zn4   S    
C42   O31   A    
H5    N55   S    
C45   H84   S    
C237  H67   S    
C236  H66   S    
C10   C295  A    
