data_mof_unit_33381.cif
_audit_creation_date              2012-12-10T20:34:53-0500
_audit_creation_method            fapswitch 2.2
_symmetry_space_group_name_H-M    P1
_symmetry_Int_Tables_number       1
_space_group_crystal_system       triclinic
_cell_length_a                    10.645791
_cell_length_b                    10.68989
_cell_length_c                    9.888816
_cell_angle_alpha                 89.453538
_cell_angle_beta                  90.574857
_cell_angle_gamma                 90.602624
_cell_volume                      1125.2014013

loop_
_atom_site_label
_atom_site_type_symbol
_atom_type_description
_atom_site_fract_x
_atom_site_fract_y
_atom_site_fract_z
_atom_type_partial_charge
C1    C     C_R   0.504421 0.259936 0.500431 0.912990
C2    C     C_3   0.878883 0.500076 0.500783 0.056521
C3    C     C_3   0.927313 0.513563 0.353121 -0.513261
C4    C     C_3   0.927097 0.374450 0.562302 0.202963
C5    C     C_R   0.534871 0.062277 0.621910 0.058528
C6    C     C_R   0.526006 0.128643 0.500428 -0.057396
C7    C     C_R   0.542669 0.066206 0.377568 -0.216629
C8    C     C_R   0.542686 0.936756 0.376807 -0.232597
C9    C     C_R   0.525800 0.871243 0.498855 -0.049704
C10   C     C_R   0.533757 0.934567 0.620938 0.075515
C11   C     C_3   0.455122 0.924738 0.745117 0.252385
C12   C     C_R   0.257976 0.501054 0.499301 1.009923
C13   C     C_3   0.456297 0.066563 0.746110 -0.520449
C14   C     C_R   0.394461 0.466456 0.070393 0.193797
C15   C     C_R   0.598904 0.546919 0.073463 -0.156440
C16   C     C_R   0.598046 0.550655 0.930132 0.461567
C17   C     C_R   0.394244 0.466915 0.928184 0.140818
C18   C     C_3   0.325515 0.345262 0.923107 -0.486862
C19   C     C_3   0.326950 0.343879 0.076647 -0.472887
C20   C     C_R   0.504574 0.739894 0.499417 0.932661
C21   C     C_R   0.742295 0.500374 0.500329 0.882871
C22   C     C_3   0.074228 0.612662 0.584505 0.234228
C23   C     C_3   0.929317 0.612744 0.583735 -0.461661
C24   C     C_3   0.069818 0.513160 0.351479 -0.436863
C25   C     C_3   0.072711 0.376845 0.564436 0.138915
C26   C     C_3   0.121776 0.501105 0.498455 -0.057753
H1    H     H_    0.891355 0.435010 0.289837 0.199839
H2    H     H_    0.546440 0.889159 0.280725 0.168819
H3    H     H_    0.504530 0.879397 0.832165 0.086972
H4    H     H_    0.362600 0.108523 0.726331 0.240712
H5    H     H_    0.510025 0.104888 0.833562 0.163316
H6    H     H_    0.678844 0.584278 0.128761 0.170801
H7    H     H_    0.105851 0.598672 0.691249 0.153808
H8    H     H_    0.383128 0.271177 0.879239 0.212497
H9    H     H_    0.892367 0.701673 0.540296 0.166499
H10   H     H_    0.105194 0.374850 0.671742 0.161078
N1    N     N_R   0.499150 0.499140 0.142800 -0.144747
N2    N     N_R   0.499150 0.499180 0.857150 -0.161723
O1    O     O_R   0.500020 0.316790 0.614690 -0.608927
O2    O     O_R   0.500000 0.316760 0.385350 -0.628973
O3    O     O_R   0.314800 0.500000 0.614670 -0.629700
O4    O     O_R   0.314790 0.499960 0.385330 -0.619008
O5    O     O_R   0.500000 0.683240 0.614650 -0.629517
O6    O     O_R   0.499980 0.683210 0.385310 -0.635595
O7    O     O_R   0.685210 0.500040 0.614670 -0.567099
O8    O     O_R   0.685200 0.500000 0.385330 -0.656908
Zn1   Zn    Zn3+2 0.500010 0.500020 0.653130 0.986519
Zn2   Zn    Zn3+2 0.499990 0.499980 0.346870 0.939956
O9    O     O_3   0.124960 0.728508 0.541311 -0.711219
H11   H     H_    0.084483 0.752299 0.454235 0.344217
H12   H     H_    0.891023 0.296587 0.497657 0.096510
H13   H     H_    0.101667 0.434658 0.288157 0.190271
H14   H     H_    0.546347 0.116036 0.281760 0.165416
O10   O     O_3   0.335241 0.875231 0.717287 -0.675124
H15   H     H_    0.291302 0.871985 0.805249 0.337999
O11   O     O_3   0.697243 0.609358 0.867834 -0.769302
H16   H     H_    0.663468 0.650039 0.785451 0.355047
H17   H     H_    0.229766 0.354772 0.878848 0.203238
H18   H     H_    0.231789 0.351885 0.120250 0.195921
H19   H     H_    0.385531 0.268214 0.121347 0.211727
H20   H     H_    0.895772 0.606681 0.689786 0.237920
H21   H     H_    0.105224 0.599960 0.301316 0.201968
H22   H     H_    0.893386 0.602454 0.306494 0.206044
O12   O     O_3   0.123055 0.269921 0.503531 -0.774882
H23   H     H_    0.084086 0.260100 0.412767 0.335038
O13   O     O_3   0.882004 0.356687 0.694470 -0.751108
H24   H     H_    0.894887 0.267189 0.717949 0.340521

loop_
_geom_bond_atom_site_label_1
_geom_bond_atom_site_label_2
_ccdc_geom_bond_type
C24   H13   S    
C2    C4    S    
C16   O11   S    
C12   O3    A    
C3    H22   S    
C19   H19   S    
C18   H8    S    
C9    C10   A    
O10   H15   S    
C9    C20   S    
C5    C13   S    
C23   H20   S    
O12   H23   S    
C2    C21   S    
C3    H1    S    
C17   C18   S    
O3    Zn1   S    
C15   H6    S    
O6    Zn2   S    
O4    Zn2   S    
N1    Zn2   S    
C4    O13   S    
C11   C13   S    
C14   C17   A    
N2    Zn1   S    
C6    C7    A    
C11   O10   S    
C24   H21   S    
C22   O9    S    
C20   O6    A    
C3    C24   S    
C24   C26   S    
C2    C3    S    
C23   H9    S    
C17   N2    A    
O7    Zn1   S    
C5    C6    A    
C8    H2    S    
O8    Zn2   S    
C21   O7    A    
C7    C8    A    
C10   C11   S    
C7    H14   S    
C4    H12   S    
C1    C6    S    
C21   O8    A    
C4    C25   S    
C13   H4    S    
C5    C10   A    
C20   O5    A    
O13   H24   S    
O11   H16   S    
C11   H3    S    
C8    C9    A    
O1    Zn1   S    
C18   C19   S    
C22   C26   S    
C12   C26   S    
C2    C23   S    
O9    H11   S    
C22   H7    S    
C1    O1    A    
O2    Zn2   S    
C15   N1    A    
C12   O4    A    
C25   H10   S    
C1    O2    A    
C19   H18   S    
C25   C26   S    
C22   C23   S    
O5    Zn1   S    
C14   C19   S    
C13   H5    S    
C15   C16   A    
C16   N2    A    
C18   H17   S    
C14   N1    A    
C25   O12   S    
