data_mof_unit_46701.cif
_audit_creation_date              2012-12-10T17:18:14-0500
_audit_creation_method            fapswitch 2.2
_symmetry_space_group_name_H-M    P1
_symmetry_Int_Tables_number       1
_space_group_crystal_system       triclinic
_cell_length_a                    10.162088
_cell_length_b                    10.793134
_cell_length_c                    14.999851
_cell_angle_alpha                 90.432805
_cell_angle_beta                  81.072677
_cell_angle_gamma                 95.85791
_cell_volume                      1616.72089957

loop_
_atom_site_label
_atom_site_type_symbol
_atom_type_description
_atom_site_fract_x
_atom_site_fract_y
_atom_site_fract_z
_atom_type_partial_charge
C1    C     C_R   0.556377 0.732723 0.491178 0.944859
C2    C     C_2   0.070144 0.482405 0.498899 0.415521
C3    C     C_R   0.500167 0.499942 0.673227 0.885624
C4    C     C_R   0.499832 0.500057 0.326772 0.878690
C5    C     C_R   0.378033 0.490384 0.197847 -0.207931
C6    C     C_R   0.621966 0.509652 0.802163 -0.207680
C7    C     C_R   0.499722 0.500593 0.230905 -0.092610
C8    C     C_R   0.500277 0.499430 0.769102 -0.095724
C9    C     C_R   0.621645 0.511387 0.172550 -0.227503
C10   C     C_R   0.378354 0.488654 0.827461 -0.227311
C11   C     C_R   0.623422 0.511865 0.079933 0.009306
C12   C     C_R   0.443582 0.267234 0.503336 0.942879
C13   C     C_R   0.376576 0.488194 0.920079 0.009608
C14   C     C_R   0.500217 0.500327 0.046380 -0.002799
C15   C     C_R   0.499782 0.499736 0.953631 -0.002749
C16   C     C_R   0.377334 0.489748 0.105708 0.061274
C17   C     C_R   0.622665 0.510310 0.894304 0.061534
C18   C     C_R   0.745696 0.524681 0.020495 0.509480
C19   C     C_R   0.254301 0.475388 0.979519 0.509589
C20   C     C_3   0.924126 0.656649 0.046264 -0.263092
C21   C     C_3   0.075807 0.343446 0.953819 -0.263036
C22   C     C_3   0.064925 0.272517 0.509665 -0.314299
C23   C     C_R   0.744367 0.521543 0.927654 -0.329975
C24   C     C_3   0.934795 0.727454 0.490149 -0.313373
C25   C     C_R   0.255633 0.478527 0.072360 -0.330113
C26   C     C_2   0.588234 0.865091 0.477170 -0.383962
C27   C     C_2   0.411518 0.134610 0.496656 -0.376062
C28   C     C_2   0.487792 0.933280 0.470519 -0.147775
C29   C     C_2   0.511383 0.066015 0.467603 -0.145245
C30   C     C_2   0.929855 0.517606 0.501093 0.416764
H1    H     H_    0.283820 0.481542 0.243725 0.175906
H2    H     H_    0.690884 0.906880 0.473762 0.138220
H3    H     H_    0.125592 0.625203 0.575198 0.152613
H4    H     H_    0.874409 0.374846 0.424744 0.150825
H5    H     H_    0.016681 0.663732 0.077446 0.194891
H6    H     H_    0.855875 0.720650 0.083414 0.132875
H7    H     H_    0.953159 0.686658 0.974514 0.178470
H8    H     H_    0.144023 0.279379 0.916709 0.132657
H9    H     H_    0.983254 0.336366 0.922636 0.195008
H10   H     H_    0.046755 0.313513 0.025585 0.178285
H11   H     H_    0.954097 0.253801 0.521958 0.124060
H12   H     H_    0.716180 0.518485 0.756286 0.175931
H13   H     H_    0.101925 0.282784 0.575711 0.175424
H14   H     H_    0.105100 0.189446 0.475957 0.184798
H15   H     H_    0.898573 0.716612 0.423862 0.174734
H16   H     H_    0.045565 0.746867 0.478395 0.121847
H17   H     H_    0.893574 0.810345 0.523458 0.184616
H18   H     H_    0.715098 0.520616 0.199515 0.200454
H19   H     H_    0.284899 0.479420 0.800497 0.200465
H20   H     H_    0.838525 0.528008 0.881840 0.177573
H21   H     H_    0.161476 0.472070 0.118176 0.177394
H22   H     H_    0.614032 0.107091 0.447756 0.185347
H23   H     H_    0.384783 0.892074 0.474032 0.184635
H24   H     H_    0.309272 0.092930 0.516664 0.135986
N1    N     N_2   0.842700 0.448880 0.462930 -0.231538
N2    N     N_2   0.157300 0.551120 0.537070 -0.231904
O1    O     O_R   0.431060 0.692470 0.507460 -0.623935
O2    O     O_3   0.133757 0.468043 0.946820 -0.601131
O3    O     O_3   0.108855 0.377346 0.452827 -0.591383
O4    O     O_3   0.891148 0.622703 0.547117 -0.591232
O5    O     O_R   0.568940 0.307530 0.492540 -0.625064
O6    O     O_R   0.651120 0.659650 0.483670 -0.576854
O7    O     O_R   0.348880 0.340350 0.516330 -0.577360
O8    O     O_R   0.389960 0.516440 0.644050 -0.628749
O9    O     O_R   0.610040 0.483560 0.355950 -0.632149
O10   O     O_R   0.610030 0.483620 0.620260 -0.585281
O11   O     O_R   0.389970 0.516380 0.379740 -0.588582
O12   O     O_3   0.866241 0.532033 0.053193 -0.601320
Zn1   Zn    Zn3+2 0.353060 0.521920 0.515880 0.969955
Zn2   Zn    Zn3+2 0.646940 0.478080 0.484120 0.969624

loop_
_geom_bond_atom_site_label_1
_geom_bond_atom_site_label_2
_ccdc_geom_bond_type
O5    Zn2   S    
C4    O11   A    
C28   H23   S    
C25   H21   S    
C11   C18   A    
C26   H2    S    
C10   H19   S    
C20   H7    S    
C1    O1    A    
C22   H11   S    
C27   C29   D    
O8    Zn1   S    
C30   N1    D    
C20   H6    S    
C26   C28   D    
C22   H13   S    
C21   H9    S    
C2    C30   S    
C24   O4    S    
C24   H16   S    
C1    O6    A    
H3    N2    S    
C14   C15   A    
C27   H24   S    
C5    C16   A    
C21   O2    S    
C22   O3    S    
O10   Zn2   S    
C3    O8    A    
C12   O5    A    
C9    C11   A    
C17   C23   A    
C21   H10   S    
C23   H20   S    
C2    N2    D    
C4    C7    S    
C24   H15   S    
C8    C10   A    
C28   C29   S    
C10   C13   A    
C3    C8    S    
C5    C7    A    
C13   C15   A    
C19   O2    S    
O1    Zn1   S    
C4    O9    A    
C19   C25   A    
C11   C14   A    
C14   C16   A    
C1    C26   S    
C3    O10   A    
C13   C19   A    
C12   C27   S    
C18   O12   S    
C18   C23   A    
N1    Zn2   S    
H4    N1    S    
O6    Zn2   S    
C9    H18   S    
C7    C9    A    
N2    Zn1   S    
C6    H12   S    
C16   C25   A    
C15   C17   A    
C6    C17   A    
C2    O3    S    
C20   H5    S    
C6    C8    A    
O11   Zn1   S    
O9    Zn2   S    
C12   O7    A    
C24   H17   S    
C20   O12   S    
C22   H14   S    
C21   H8    S    
O7    Zn1   S    
C5    H1    S    
C29   H22   S    
C30   O4    S    
