data_mof_unit_25147.cif
_audit_creation_date              2013-03-05T16:15:21-0500
_audit_creation_method            fapswitch 2.2
_symmetry_space_group_name_H-M    P1
_symmetry_Int_Tables_number       1
_space_group_crystal_system       triclinic
_cell_length_a                    27.813381
_cell_length_b                    10.609771
_cell_length_c                    9.409773
_cell_angle_alpha                 90.212358
_cell_angle_beta                  90.290367
_cell_angle_gamma                 89.989752
_cell_volume                      2776.70905381

loop_
_atom_site_label
_atom_site_type_symbol
_atom_site_description
_atom_site_fract_x
_atom_site_fract_y
_atom_site_fract_z
_atom_type_partial_charge
O1    O     O_R   0.500020 0.316850 0.620870 -0.584463
O2    O     O_R   0.499980 0.683150 0.379130 -0.584459
O3    O     O_R   0.500000 0.316860 0.379090 -0.585339
O4    O     O_R   0.500000 0.683140 0.620910 -0.585377
C1    C     C_R   0.500016 0.259392 0.499645 0.787644
C2    C     C_R   0.499983 0.740608 0.500355 0.787715
O5    O     O_R   0.430270 0.500020 0.620880 -0.583742
O6    O     O_R   0.569730 0.499980 0.379120 -0.583633
O7    O     O_R   0.430250 0.500030 0.379090 -0.586167
O8    O     O_R   0.569750 0.499970 0.620910 -0.586212
C3    C     C_R   0.407506 0.500017 0.499698 0.793949
C4    C     C_R   0.592499 0.500007 0.500300 0.794315
Cu1   Cu    Cu3+1 0.500010 0.499990 0.643150 0.932947
Cu2   Cu    Cu3+1 0.499990 0.500010 0.356850 0.933040
C5    C     C_R   0.178276 0.388708 0.525300 0.556029
C6    C     C_R   0.821732 0.606291 0.451235 0.557934
O9    O     O_2   0.203832 0.282890 0.550051 -0.493534
O10   O     O_2   0.796054 0.705535 0.403585 -0.499522
N1    N     N_R   0.202129 0.498610 0.497948 -0.474648
N2    N     N_R   0.798003 0.503035 0.502082 -0.471414
C7    C     C_R   0.178025 0.608123 0.470910 0.528301
C8    C     C_R   0.822326 0.400826 0.553257 0.525014
C9    C     C_R   0.278759 0.510072 0.370330 -0.101395
C10   C     C_R   0.721059 0.498894 0.372740 -0.108168
C11   C     C_R   0.328896 0.510225 0.370560 -0.221946
C12   C     C_R   0.670932 0.498186 0.372157 -0.223928
C13   C     C_R   0.329106 0.489189 0.627292 -0.220697
C14   C     C_R   0.671112 0.503169 0.629980 -0.222263
C15   C     C_R   0.278980 0.488606 0.626669 -0.115282
C16   C     C_R   0.721243 0.504045 0.630243 -0.104020
C17   C     C_R   0.253677 0.499115 0.498290 0.358343
C18   C     C_R   0.746398 0.501946 0.501699 0.351391
C19   C     C_R   0.102006 0.498633 0.499490 -0.109041
C20   C     C_R   0.898180 0.504248 0.502046 -0.107290
C21   C     C_R   0.127512 0.385978 0.527300 -0.120497
C22   C     C_R   0.872505 0.609633 0.450159 -0.120104
C23   C     C_R   0.101674 0.274481 0.555387 0.469957
C24   C     C_R   0.898183 0.714505 0.398709 0.469892
C25   C     C_R   0.127652 0.610168 0.470471 0.003248
C26   C     C_R   0.872702 0.399352 0.554054 0.012099
C27   C     C_R   0.354549 0.499843 0.499136 -0.037676
C28   C     C_R   0.645468 0.500362 0.500859 -0.039096
H1    H     H_    0.347867 0.480918 0.727965 0.153840
H2    H     H_    0.652524 0.504968 0.730774 0.148390
H3    H     H_    0.259725 0.480309 0.725931 0.132453
H4    H     H_    0.740608 0.506769 0.730333 0.141620
C29   C     C_R   0.974430 0.393497 0.546171 0.091173
C30   C     C_R   0.025820 0.612398 0.464489 0.086404
C31   C     C_R   0.974802 0.610878 0.455663 -0.022854
C32   C     C_R   0.025314 0.389299 0.535345 -0.021701
C33   C     C_R   0.949284 0.503081 0.501606 0.068617
C34   C     C_R   0.050903 0.500119 0.500098 0.068318
C35   C     C_R   0.947730 0.292059 0.602278 -0.213914
C36   C     C_R   0.052758 0.723147 0.440286 -0.211765
C37   C     C_R   0.897898 0.295309 0.606346 -0.175003
C38   C     C_R   0.102643 0.721732 0.442968 -0.162118
O11   O     O_2   0.797737 0.300261 0.601874 -0.556066
O12   O     O_2   0.202834 0.714948 0.445349 -0.540409
C39   C     C_R   0.051443 0.276813 0.556068 -0.313513
C40   C     C_R   0.948422 0.713067 0.399650 -0.309592
H5    H     H_    0.652191 0.495866 0.271010 0.155270
H6    H     H_    0.347488 0.518802 0.270246 0.147505
H7    H     H_    0.740286 0.496847 0.272974 0.142421
H8    H     H_    0.259335 0.518062 0.270745 0.135661
H9    H     H_    0.879160 0.215150 0.650659 0.175960
H10   H     H_    0.121577 0.809097 0.423072 0.195162
H11   H     H_    0.964441 0.209829 0.647910 0.133599
H12   H     H_    0.036267 0.813723 0.422601 0.141158
H13   H     H_    0.033745 0.187129 0.568044 0.148516
H14   H     H_    0.965843 0.792152 0.350116 0.154400
C41   C     C_3   0.539516 0.042321 0.567614 -0.163248
C42   C     C_3   0.460480 0.957678 0.432386 -0.162166
C43   C     C_3   0.539500 0.957588 0.433536 -0.168765
C44   C     C_3   0.460496 0.042412 0.566464 -0.167711
H15   H     H_    0.571783 0.919572 0.379270 0.133343
H16   H     H_    0.428214 0.080430 0.620730 0.133234
H17   H     H_    0.571818 0.080251 0.622797 0.135034
H18   H     H_    0.428179 0.919746 0.377204 0.135382
C45   C     C_3   0.499985 0.877540 0.501111 0.019506
C46   C     C_3   0.500012 0.122460 0.498889 0.019603
C47   C     C_3   0.500000 0.959970 0.635328 -0.141086
C48   C     C_3   0.499997 0.040030 0.364673 -0.141066
H19   H     H_    0.499992 0.924512 0.746201 0.133011
H20   H     H_    0.500005 0.075487 0.253800 0.133052
C49   C     C_3   0.517526 0.604173 0.051245 -0.037784
C50   C     C_3   0.482473 0.395827 0.948755 -0.037652
C51   C     C_3   0.474376 0.591916 0.949296 -0.038082
C52   C     C_3   0.525623 0.408083 0.050705 -0.037177
H21   H     H_    0.452810 0.669163 0.901608 0.112698
H22   H     H_    0.547191 0.330842 0.098397 0.111990
H23   H     H_    0.532384 0.691782 0.099069 0.115962
H24   H     H_    0.467613 0.308219 0.900930 0.115333
N3    N     N_3   0.500040 0.499970 0.858290 -0.153181
N4    N     N_3   0.499960 0.500030 0.141710 -0.153152
C53   C     C_3   0.543197 0.512223 0.950405 -0.038685
C54   C     C_3   0.456801 0.487775 0.049600 -0.039858
H25   H     H_    0.579639 0.522778 0.904551 0.111632
H26   H     H_    0.420359 0.477205 0.095480 0.112034
O13   O     O_3   0.125101 0.160056 0.569932 -0.535647
C55   C     C_3   0.123475 0.122546 0.713708 0.081746
H27   H     H_    0.085953 0.101499 0.746683 0.120035
H28   H     H_    0.138828 0.196874 0.784697 0.147797
C56   C     C_3   0.153182 0.003281 0.732149 -0.692935
H29   H     H_    0.191067 0.021249 0.701449 0.274028
H30   H     H_    0.152315 0.972952 0.844923 0.188227
H31   H     H_    0.138310 0.926529 0.664473 0.242614
O14   O     O_3   0.874542 0.814226 0.334624 -0.535782
C57   C     C_3   0.875844 0.919811 0.426438 0.083123
H32   H     H_    0.913234 0.955597 0.439634 0.117406
H33   H     H_    0.860818 0.896225 0.532725 0.152648
C58   C     C_3   0.845417 0.024531 0.362337 -0.688952
H34   H     H_    0.807736 0.991947 0.348343 0.271636
H35   H     H_    0.845657 0.107991 0.433589 0.210206
H36   H     H_    0.860085 0.052198 0.257421 0.236212

loop_
_geom_bond_atom_site_label_1
_geom_bond_atom_site_label_2
_geom_bond_distance
_ccdc_geom_bond_type
C13   C15   1.394179 A    
C58   H34   1.110674 S    
C41   H17   1.110213 S    
N1    C17   1.433742 S    
C8    O11   1.350000 S    
C49   H23   1.110156 S    
C19   C34   1.421453 A    
C5    N1    1.367563 A    
Cu1   N3    2.024416 S    
C20   C33   1.421479 A    
C19   C25   1.410112 A    
C31   C40   1.411259 A    
C44   H16   1.110230 S    
C20   C26   1.409987 A    
C32   C39   1.410837 A    
N1    C7    1.365425 A    
C12   H5    1.083036 S    
C10   C12   1.394220 A    
C42   C45   1.531315 S    
C50   C52   1.537867 S    
C36   H12   1.077886 S    
O4    Cu1   1.955187 S    
C57   H32   1.113337 S    
C14   C28   1.405983 A    
C24   O14   1.384143 S    
C4    C28   1.473235 S    
C37   H9    1.083412 S    
C56   H30   1.110414 S    
O13   C55   1.412578 S    
C31   C33   1.416232 A    
C54   H26   1.109556 S    
C32   C34   1.415838 A    
O14   C57   1.412501 S    
C58   H36   1.110639 S    
C6    N2    1.368209 A    
C29   C35   1.413144 A    
C49   C51   1.537865 S    
C52   C53   1.537237 S    
N3    C53   1.482465 S    
C44   C46   1.531329 S    
Cu1   Cu2   2.694015 S    
C43   H15   1.110229 S    
O2    C2    1.291386 A    
C35   H11   1.078047 S    
O8    C4    1.302177 A    
C5    C21   1.412460 A    
C41   C46   1.531313 S    
C47   H19   1.110356 S    
O5    C3    1.301470 A    
C29   C32   1.420097 A    
C52   N4    1.481282 S    
C35   C37   1.387121 A    
C36   C38   1.387635 A    
C42   C44   1.546464 S    
C11   C27   1.406138 A    
C45   C47   1.533530 S    
C29   C33   1.420257 A    
C14   H2    1.082619 S    
C55   C56   1.521109 S    
C15   H3    1.082899 S    
C9    C17   1.399838 A    
C30   C36   1.413481 A    
O7    Cu2   1.952016 S    
C10   C18   1.400467 A    
C50   N3    1.481771 S    
C49   N4    1.481748 S    
C13   C27   1.406217 A    
C25   C38   1.397159 A    
C7    C25   1.401179 A    
C40   H14   1.077681 S    
O6    C4    1.301527 A    
C26   C37   1.397146 A    
C8    C26   1.401188 A    
C51   C54   1.537263 S    
C55   H28   1.115238 S    
C43   C45   1.531327 S    
C58   H35   1.108704 S    
C1    C46   1.452812 S    
N4    C54   1.482483 S    
O7    C3    1.302079 A    
C23   C39   1.397378 A    
O3    Cu2   1.955186 S    
C50   C54   1.536798 S    
C39   H13   1.077931 S    
C24   C40   1.397389 A    
C46   C48   1.533529 S    
C9    H8    1.082866 S    
C52   H22   1.110264 S    
C10   H7    1.082897 S    
C48   H20   1.110356 S    
C51   H21   1.110258 S    
O1    C1    1.291385 A    
O4    C2    1.289854 A    
O1    Cu1   1.953579 S    
C44   C47   1.545586 S    
C43   C48   1.545582 S    
C23   O13   1.384626 S    
C12   C28   1.406146 A    
C41   C43   1.546457 S    
N2    C18   1.435333 S    
C5    O9    1.349045 S    
C30   C31   1.421085 A    
O6    Cu2   1.949936 S    
C21   C23   1.410744 A    
C16   H4    1.082889 S    
N2    C8    1.365947 A    
O3    C1    1.289855 A    
O8    Cu1   1.952016 S    
C53   H25   1.109451 S    
C57   C58   1.521161 S    
C22   C24   1.410769 A    
C7    O12   1.350018 S    
C15   C17   1.399768 A    
C50   H24   1.110159 S    
C6    C22   1.412723 A    
C16   C18   1.400515 A    
C49   C53   1.536770 S    
C2    C45   1.452811 S    
C38   H10   1.083520 S    
C51   N3    1.481306 S    
C14   C16   1.394318 A    
C55   H27   1.113176 S    
C19   C21   1.414387 A    
C57   H33   1.115210 S    
C3    C27   1.472914 S    
C56   H31   1.110567 S    
C20   C22   1.413756 A    
C11   H6    1.082729 S    
C9    C11   1.394460 A    
O2    Cu2   1.953578 S    
C13   H1    1.083046 S    
O5    Cu1   1.949936 S    
C6    O10   1.348994 S    
C42   H18   1.110214 S    
C56   H29   1.110698 S    
C30   C34   1.420699 A    
Cu2   N4    2.024416 S    
C42   C48   1.545621 S    
C41   C47   1.545617 S    
