data_mof_unit_7214.cif
_audit_creation_date              2012-12-10T18:05:47-0500
_audit_creation_method            fapswitch 2.2
_symmetry_space_group_name_H-M    P1
_symmetry_Int_Tables_number       1
_space_group_crystal_system       triclinic
_cell_length_a                    10.847472
_cell_length_b                    10.81731
_cell_length_c                    9.543157
_cell_angle_alpha                 89.474721
_cell_angle_beta                  90.226014
_cell_angle_gamma                 90.901693
_cell_volume                      1119.60469419

loop_
_atom_site_label
_atom_site_type_symbol
_atom_type_description
_atom_site_fract_x
_atom_site_fract_y
_atom_site_fract_z
_atom_type_partial_charge
C1    C     C_R   0.499438 0.262155 0.500303 0.859265
C2    C     C_R   0.500562 0.737845 0.499697 0.859265
C3    C     C_R   0.871505 0.495973 0.502281 -0.056031
C4    C     C_R   0.128495 0.504027 0.497719 -0.056031
C5    C     C_R   0.938763 0.450710 0.618446 0.086541
C6    C     C_R   0.061237 0.549290 0.381554 0.086541
C7    C     C_R   0.500976 0.064943 0.372850 -0.041041
C8    C     C_R   0.499023 0.935057 0.627150 -0.041041
C9    C     C_R   0.502517 0.937203 0.372603 -0.044009
C10   C     C_R   0.497483 0.062797 0.627397 -0.044009
C11   C     C_R   0.500948 0.871735 0.499668 -0.063640
C12   C     C_R   0.499051 0.128265 0.500332 -0.063640
C13   C     C_R   0.427438 0.418727 0.076043 -0.084745
C14   C     C_R   0.572561 0.581273 0.923957 -0.084745
C15   C     C_R   0.427017 0.418341 0.927906 0.452866
C16   C     C_R   0.572983 0.581659 0.072094 0.452867
C17   C     C_R   0.262360 0.502596 0.499274 0.852337
C18   C     C_R   0.737640 0.497404 0.500726 0.852336
C19   C     C_R   0.213324 0.777145 0.126848 0.333328
C20   C     C_R   0.786676 0.222855 0.873152 0.333328
C21   C     C_R   0.166735 0.725996 0.252731 0.299068
C22   C     C_R   0.833265 0.274004 0.747269 0.299068
C23   C     C_R   0.119359 0.603759 0.254626 -0.017247
C24   C     C_R   0.880641 0.396241 0.745374 -0.017247
C25   C     C_R   0.120164 0.533939 0.131711 -0.259806
C26   C     C_R   0.879835 0.466061 0.868289 -0.259806
C27   C     C_R   0.167083 0.584586 0.007881 -0.270066
C28   C     C_R   0.832917 0.415414 0.992119 -0.270066
C29   C     C_R   0.213485 0.705585 0.004562 0.351472
C30   C     C_R   0.786515 0.294415 0.995437 0.351472
C31   C     C_R   0.933481 0.544247 0.385388 -0.163082
C32   C     C_R   0.066519 0.455752 0.614612 -0.163082
Cu1   Cu    Cu3+1 0.500000 0.500020 0.640660 1.043213
Cu2   Cu    Cu3+1 0.500000 0.499980 0.359340 1.043213
H1    H     H_    0.083671 0.440146 0.131774 0.212423
H2    H     H_    0.916328 0.559854 0.868226 0.212423
H3    H     H_    0.166482 0.529768 0.913794 0.211498
H4    H     H_    0.833518 0.470232 0.086206 0.211498
H5    H     H_    0.882321 0.581339 0.297367 0.197228
H6    H     H_    0.117679 0.418661 0.702633 0.197228
H7    H     H_    0.501197 0.113728 0.273249 0.212565
H8    H     H_    0.498803 0.886272 0.726751 0.212565
H9    H     H_    0.504549 0.890011 0.273118 0.219439
H10   H     H_    0.495451 0.109989 0.726882 0.219439
H11   H     H_    0.369054 0.354150 0.133443 0.189162
H12   H     H_    0.630946 0.645850 0.866557 0.189162
N1    N     N_R   0.500030 0.500030 0.852070 -0.219873
N2    N     N_R   0.499970 0.499970 0.147930 -0.219873
O1    O     O_R   0.499990 0.319660 0.618740 -0.552528
O2    O     O_R   0.500010 0.680340 0.381260 -0.552528
O3    O     O_R   0.499990 0.319630 0.381170 -0.571567
O4    O     O_R   0.500010 0.680370 0.618830 -0.571567
O5    O     O_R   0.319650 0.500020 0.618780 -0.530895
O6    O     O_R   0.680350 0.499980 0.381220 -0.530895
O7    O     O_R   0.319640 0.500000 0.381210 -0.601091
O8    O     O_R   0.680360 0.500000 0.618790 -0.601091
Cl1   Cl    Cl    0.269186 0.765548 0.844662 -0.508313
Cl2   Cl    Cl    0.730814 0.234452 0.155338 -0.508313
Cl3   Cl    Cl    0.328522 0.310616 0.846300 -0.589173
Cl4   Cl    Cl    0.671478 0.689384 0.153700 -0.589173
Cl5   Cl    Cl    0.267402 0.931695 0.120592 -0.464502
Cl6   Cl    Cl    0.732598 0.068305 0.879408 -0.464502
Cl7   Cl    Cl    0.164585 0.815713 0.406348 -0.482795
Cl8   Cl    Cl    0.835415 0.184287 0.593651 -0.482795

loop_
_geom_bond_atom_site_label_1
_geom_bond_atom_site_label_2
_ccdc_geom_bond_type
C13   N2    A    
C13   H11   S    
C20   Cl6   S    
C14   N1    A    
C28   H4    S    
C27   C29   A    
C1    O3    A    
C17   O7    A    
C26   C28   A    
C10   H10   S    
C15   N1    A    
C8    H8    S    
C5    C32   A    
C7    C9    A    
C16   N2    A    
Cu1   O8    S    
C32   H6    S    
Cu1   Cu2   S    
C20   C22   A    
C17   O5    A    
Cu2   O7    S    
C14   H12   S    
C20   C30   A    
Cu1   O4    S    
C3    C31   A    
C18   O8    A    
C9    C11   A    
C24   C26   A    
Cu2   O3    S    
C4    C32   A    
C5    C24   S    
C2    O4    A    
C19   Cl5   S    
C8    C11   A    
C2    C11   S    
C10   C12   A    
C4    C6    A    
C19   C21   A    
C29   Cl1   S    
Cu2   O6    S    
C14   C16   A    
C13   C15   A    
C21   C23   A    
Cu1   O5    S    
C25   C27   A    
Cu1   N1    S    
C22   C24   A    
C7    C12   A    
C9    H9    S    
Cu2   O2    S    
C6    C23   S    
Cu1   O1    S    
C19   C29   A    
C30   Cl2   S    
C23   C25   A    
Cu2   N2    S    
C3    C18   S    
C8    C10   A    
C1    O1    A    
C16   Cl4   S    
C26   H2    S    
C25   H1    S    
C18   O6    A    
C7    H7    S    
C6    C31   A    
C2    O2    A    
C22   Cl8   S    
C15   Cl3   S    
C1    C12   S    
C27   H3    S    
C21   Cl7   S    
C31   H5    S    
C28   C30   A    
C3    C5    A    
C4    C17   S    
