data_mof_unit_10877.cif
_audit_creation_date              2012-12-11T17:43:42-0500
_audit_creation_method            fapswitch 2.2
_symmetry_space_group_name_H-M    P1
_symmetry_Int_Tables_number       1
_space_group_crystal_system       triclinic
_cell_length_a                    14.846856
_cell_length_b                    15.023841
_cell_length_c                    16.818248
_cell_angle_alpha                 109.016429
_cell_angle_beta                  106.555401
_cell_angle_gamma                 108.119769
_cell_volume                      3043.42583264

loop_
_atom_site_label
_atom_site_type_symbol
_atom_type_description
_atom_site_fract_x
_atom_site_fract_y
_atom_site_fract_z
_atom_type_partial_charge
C1    C     C_R   0.094518 0.280453 0.021009 -0.126770
C2    C     C_R   0.110500 0.081360 0.970629 -0.230320
C3    C     C_R   0.016618 0.896295 0.927117 0.066484
C4    C     C_R   0.017055 0.081572 0.923653 0.053543
C5    C     C_R   0.112383 0.991083 0.973376 0.027547
C6    C     C_R   0.928543 0.984697 0.859156 0.019963
C7    C     C_R   0.866679 0.018485 0.722281 -0.126925
C8    C     C_R   0.257556 0.052179 0.127637 -0.178104
C9    C     C_R   0.683892 0.974753 0.640054 -0.076425
C10   C     C_R   0.421613 0.046512 0.137758 -0.084604
C11   C     C_R   0.472366 0.597556 0.362236 -0.118992
C12   C     C_R   0.916261 0.714397 0.920895 -0.137308
C13   C     C_R   0.562466 0.623237 0.800116 -0.111820
C14   C     C_R   0.495338 0.620460 0.294069 -0.149713
C15   C     C_R   0.548816 0.600482 0.871108 -0.155990
C16   C     C_R   0.936098 0.450570 0.734054 -0.128796
C17   C     C_R   0.065836 0.478143 0.252841 -0.111881
C18   C     C_R   0.513526 0.550298 0.228774 0.111468
C19   C     C_R   0.616323 0.673040 0.964641 0.103564
C20   C     C_R   0.509175 0.457364 0.233671 -0.174340
C21   C     C_R   0.694292 0.770330 0.986805 -0.161398
C22   C     C_R   0.486436 0.434982 0.302149 -0.107681
C23   C     C_R   0.029293 0.464652 0.724832 0.055105
C24   C     C_R   0.708616 0.792095 0.915537 -0.136564
C25   C     C_R   0.468017 0.504967 0.366323 -0.104078
C26   C     C_R   0.643316 0.718152 0.822167 -0.126819
C27   C     C_R   0.621153 0.562854 0.139414 -0.240180
C28   C     C_R   0.527847 0.667026 0.062904 -0.235169
C29   C     C_R   0.646494 0.587032 0.072110 0.067301
C30   C     C_R   0.481042 0.613505 0.105008 0.046037
C31   C     C_R   0.603290 0.646873 0.038622 0.026988
C32   C     C_R   0.537548 0.574985 0.156369 0.035274
C33   C     C_R   0.787552 0.016521 0.651478 -0.108942
C34   C     C_R   0.975228 0.415758 0.253773 0.068210
C35   C     C_R   0.359538 0.072232 0.181197 -0.136644
C36   C     C_R   0.968317 0.370220 0.318445 0.126946
C37   C     C_R   0.039334 0.417814 0.638062 0.132348
C38   C     C_R   0.145735 0.430014 0.552617 -0.242156
C39   C     C_R   0.863712 0.296369 0.388768 -0.235619
C40   C     C_R   0.717246 0.217930 0.821034 -0.107710
C41   C     C_R   0.215158 0.795175 0.187590 -0.129390
C42   C     C_R   0.138347 0.448933 0.636653 -0.172457
C43   C     C_R   0.870027 0.313846 0.313926 -0.180149
C44   C     C_R   0.948738 0.352798 0.553763 -0.289857
C45   C     C_R   0.660822 0.223635 0.741659 0.067289
C46   C     C_R   0.060044 0.394009 0.392329 -0.290119
C47   C     C_R   0.955202 0.339735 0.470135 0.190425
C48   C     C_R   0.054319 0.383754 0.470355 0.184326
C49   C     C_R   0.548840 0.154448 0.673071 0.063241
C50   C     C_R   0.256733 0.894267 0.359720 0.063029
C51   C     C_R   0.357456 0.082177 0.435237 -0.218903
C52   C     C_R   0.394513 0.991341 0.616294 -0.235654
C53   C     C_R   0.284758 0.990318 0.356310 -0.199718
C54   C     C_R   0.490026 0.072194 0.686728 -0.198422
C55   C     C_R   0.277486 0.894753 0.447637 -0.074212
C56   C     C_R   0.226033 0.799468 0.274160 0.063001
C57   C     C_R   0.500142 0.163316 0.591328 -0.068452
C58   C     C_R   0.357136 0.987775 0.528155 0.119944
C59   C     C_R   0.404589 0.079170 0.519035 0.119170
C60   C     C_R   0.659398 0.935554 0.699821 -0.115289
C61   C     C_R   0.382343 0.001819 0.040706 -0.124393
C62   C     C_R   0.738433 0.937770 0.770861 -0.211089
C63   C     C_R   0.280800 0.982524 0.986861 -0.167815
C64   C     C_R   0.304346 0.600278 0.011369 -0.135784
C65   C     C_R   0.739468 0.467480 0.050556 -0.125174
C66   C     C_R   0.842731 0.978506 0.782422 0.124880
C67   C     C_R   0.366097 0.573806 0.069702 0.069108
C68   C     C_R   0.217149 0.005877 0.030003 0.112587
C69   C     C_R   0.726608 0.315625 0.747371 -0.157350
C70   C     C_R   0.211222 0.700115 0.265014 -0.136889
C71   C     C_R   0.297807 0.503520 0.086084 -0.149828
C72   C     C_R   0.749611 0.563898 0.973834 -0.136507
C73   C     C_R   0.110856 0.535980 0.812363 -0.133956
C74   C     C_R   0.892591 0.394728 0.175524 -0.152875
C75   C     C_R   0.919526 0.194498 0.946070 -0.126453
C76   C     C_R   0.088527 0.793407 0.997953 -0.157076
C77   C     C_R   0.010480 0.181954 0.957059 0.058936
C78   C     C_R   0.710301 0.542705 0.034680 0.054602
C79   C     C_R   0.006408 0.806017 0.948853 0.062143
C80   C     C_R   0.548816 0.253677 0.574751 0.116177
C81   C     C_R   0.526595 0.340257 0.602012 -0.170360
C82   C     C_R   0.567106 0.422532 0.581021 -0.129555
C83   C     C_R   0.629167 0.418589 0.532428 -0.088242
C84   C     C_R   0.650501 0.332151 0.504243 -0.142865
C85   C     C_R   0.610091 0.249458 0.524737 -0.178336
C86   C     C_R   0.211342 0.803400 0.455130 0.131198
C87   C     C_R   0.103219 0.773287 0.425051 -0.124437
C88   C     C_R   0.040453 0.691967 0.436752 -0.116290
C89   C     C_R   0.927602 0.892661 0.863962 -0.251811
C90   C     C_R   0.085105 0.640256 0.478602 -0.064626
C91   C     C_R   0.191962 0.667392 0.506061 -0.118861
C92   C     C_R   0.254802 0.747796 0.493501 -0.223350
H1    H     H_    0.177199 0.301587 0.046844 0.097798
H2    H     H_    0.487004 0.525944 0.853494 0.115768
H3    H     H_    0.521885 0.401525 0.183814 0.112344
H4    H     H_    0.745800 0.827287 0.058794 0.119625
H5    H     H_    0.482821 0.363181 0.305312 0.116767
H6    H     H_    0.771516 0.865708 0.933396 0.120923
H7    H     H_    0.662734 0.529910 0.175633 0.121941
H8    H     H_    0.493842 0.709380 0.033447 0.124914
H9    H     H_    0.136474 0.432892 0.395216 0.119416
H10   H     H_    0.872005 0.322977 0.552975 0.119253
H11   H     H_    0.797483 0.289820 0.256185 0.113933
H12   H     H_    0.838619 0.689554 0.869726 0.107531
H13   H     H_    0.210169 0.494545 0.700211 0.116085
H14   H     H_    0.222527 0.461494 0.553460 0.120785
H15   H     H_    0.787147 0.258807 0.386364 0.119678
H16   H     H_    0.857016 0.400514 0.680601 0.108663
H17   H     H_    0.145452 0.497428 0.295730 0.088985
H18   H     H_    0.806686 0.047692 0.605645 0.109594
H19   H     H_    0.390748 0.108209 0.256396 0.114091
H20   H     H_    0.519377 0.066512 0.750565 0.123049
H21   H     H_    0.258612 0.994726 0.291544 0.126023
H22   H     H_    0.382940 0.153120 0.427139 0.146300
H23   H     H_    0.946732 0.051441 0.730445 0.111505
H24   H     H_    0.354869 0.929236 0.630710 0.148406
H25   H     H_    0.622772 0.973776 0.585581 0.107061
H26   H     H_    0.500439 0.061957 0.179351 0.099783
H27   H     H_    0.579405 0.904967 0.692055 0.109431
H28   H     H_    0.430854 0.982788 0.007244 0.108052
H29   H     H_    0.719034 0.912933 0.819422 0.114136
H30   H     H_    0.251504 0.949045 0.911796 0.117878
H31   H     H_    0.686399 0.164600 0.847337 0.083708
H32   H     H_    0.222174 0.857901 0.168513 0.111304
H33   H     H_    0.330705 0.662849 0.992895 0.088341
H34   H     H_    0.210275 0.072974 0.161945 0.117940
H35   H     H_    0.722896 0.431829 0.094245 0.092856
H36   H     H_    0.708093 0.360157 0.712691 0.133028
H37   H     H_    0.215612 0.673082 0.316958 0.122843
H38   H     H_    0.317331 0.473261 0.135038 0.118216
H39   H     H_    0.749098 0.619507 0.947638 0.135415
H40   H     H_    0.194050 0.564582 0.832054 0.095976
H41   H     H_    0.812321 0.336276 0.146197 0.086651
H42   H     H_    0.839264 0.135519 0.905522 0.115155
H43   H     H_    0.169808 0.832288 0.014228 0.125648
H44   H     H_    0.857440 0.819002 0.819048 0.127244
H45   H     H_    0.450355 0.487425 0.419204 0.101582
H46   H     H_    0.182591 0.153561 0.012197 0.128920
H47   H     H_    0.477706 0.343548 0.638899 0.117745
H48   H     H_    0.549814 0.489035 0.601605 0.101398
H49   H     H_    0.660106 0.482197 0.516011 0.111633
H50   H     H_    0.697783 0.329116 0.466001 0.108291
H51   H     H_    0.626134 0.182268 0.501713 0.115489
H52   H     H_    0.068015 0.814253 0.394281 0.113192
H53   H     H_    0.957437 0.669955 0.414478 0.112223
H54   H     H_    0.036665 0.578878 0.489334 0.118451
H55   H     H_    0.226373 0.626635 0.537582 0.112111
H56   H     H_    0.655100 0.733555 0.766562 0.107391
H57   H     H_    0.337423 0.767810 0.514748 0.114577
H58   H     H_    0.458002 0.651678 0.411950 0.105528
H59   H     H_    0.510849 0.566938 0.728142 0.099345
H60   H     H_    0.498662 0.692682 0.291996 0.114641
N1    N     N_R   0.055660 0.348550 0.045620 -0.041495
N2    N     N_R   0.185200 0.638170 0.176300 -0.042406
N3    N     N_R   0.201680 0.494570 0.045620 -0.040499
N4    N     N_R   0.798320 0.505430 0.954380 -0.042957
N5    N     N_R   0.068420 0.560530 0.871650 -0.039338
N6    N     N_R   0.931580 0.439470 0.128350 -0.037713
N7    N     N_R   0.948070 0.295860 0.997670 -0.043395
N8    N     N_R   0.051930 0.704140 0.002330 -0.040658
N9    N     N_R   0.944340 0.651450 0.954380 -0.040656
N10   N     N_R   0.960830 0.507850 0.823700 -0.040088
N11   N     N_R   0.039170 0.492150 0.176300 -0.041645
N12   N     N_R   0.811290 0.303410 0.871650 -0.040855
N13   N     N_R   0.188710 0.696590 0.128350 -0.041058
N14   N     N_R   0.205200 0.552990 0.997670 -0.039357
N15   N     N_R   0.794800 0.447010 0.002330 -0.040433
N16   N     N_R   0.814800 0.361830 0.823700 -0.042552
Ni1   Ni    Ni4+2 0.119340 0.493420 0.109960 0.212911
Ni2   Ni    Ni4+2 0.880660 0.506580 0.890040 0.216207
Ni3   Ni    Ni4+2 0.872590 0.372590 0.000000 0.208409
Ni4   Ni    Ni4+2 0.127410 0.627410 0.000000 0.211673

loop_
_geom_bond_atom_site_label_1
_geom_bond_atom_site_label_2
_ccdc_geom_bond_type
C51   H22   S    
C87   C88   A    
C74   H41   S    
N14   Ni4   S    
C72   N4    A    
C27   C29   A    
C1    H1    S    
C1    C77   A    
C14   C18   A    
C25   H45   S    
C76   C79   A    
C3    C79   S    
C85   H51   S    
C15   H2    S    
C91   H55   S    
C81   C82   A    
C75   H42   S    
C15   C19   A    
C27   H7    S    
C6    C66   S    
N7    Ni3   S    
C24   H6    S    
C65   H35   S    
C41   H32   S    
C19   C21   A    
C24   C26   A    
C38   C42   A    
N5    Ni4   S    
C11   C14   A    
N6    Ni3   S    
C57   C59   A    
C67   C71   A    
C11   C25   A    
N3    N14   A    
C49   C54   A    
C12   C79   A    
C73   N5    A    
C49   C57   A    
C60   H27   S    
C60   C62   A    
C7    H23   S    
C37   C42   A    
C61   C63   A    
C82   H48   S    
C17   N11   A    
C12   N9    A    
C29   C78   S    
C83   C84   A    
C69   H36   S    
C53   H21   S    
C22   C25   A    
C41   N13   A    
C72   C78   A    
C88   H53   S    
N2    N13   A    
C36   C46   A    
C10   C35   A    
C84   H50   S    
C87   H52   S    
C38   C48   A    
C30   C67   S    
C64   H33   S    
C44   C47   A    
C28   H8    S    
N13   Ni4   S    
N16   Ni2   S    
C73   H40   S    
C19   C31   S    
C89   H44   S    
C61   H28   S    
C9    C33   A    
C7    C33   A    
C57   C80   S    
C23   C73   A    
C5    C68   S    
C76   H43   S    
C52   C54   A    
C52   H24   S    
C40   C45   A    
C46   H9    S    
C46   C48   A    
C50   C53   A    
C62   C66   A    
C45   C69   A    
C2    H46   S    
C64   C67   A    
N12   N16   A    
C84   C85   A    
C13   H59   S    
C4    C6    A    
C91   C92   A    
C83   H49   S    
C74   N6    A    
C86   C87   A    
C39   C43   A    
N4    N15   A    
C3    C5    A    
C58   C59   A    
C23   C37   S    
C70   H37   S    
C50   C56   S    
N2    Ni1   S    
C51   C53   A    
C8    C35   A    
C38   H14   S    
C2    C4    A    
C41   C56   A    
C80   C85   A    
C10   H26   S    
N3    Ni1   S    
C11   H58   S    
C47   C48   A    
N10   Ni2   S    
C45   C49   S    
C71   N3    A    
N8    Ni4   S    
C54   H20   S    
C1    N1    A    
C75   C77   A    
C52   C58   A    
N6    N11   A    
C34   C74   A    
N9    Ni2   S    
C8    H34   S    
C20   H3    S    
C88   C90   A    
C8    C68   A    
C16   C23   A    
C56   C70   A    
C13   C15   A    
C13   C26   A    
C21   C24   A    
C10   C61   A    
C18   C32   S    
C17   C34   A    
N1    Ni1   S    
C63   H30   S    
C35   H19   S    
N1    N7    A    
C72   H39   S    
C39   C47   A    
C75   N7    A    
C81   H47   S    
C40   H31   S    
C63   C68   A    
C76   N8    A    
C44   H10   S    
C65   C78   A    
C27   C32   A    
C70   N2    A    
C28   C31   A    
C20   C22   A    
C80   C81   A    
C64   N14   A    
C17   H17   S    
C39   H15   S    
N15   Ni3   S    
C12   H12   S    
C21   H4    S    
C6    C89   A    
C65   N15   A    
C36   C43   A    
C50   C55   A    
C3    C89   A    
C9    C60   A    
C16   N10   A    
N8    N9    A    
C37   C44   A    
C28   C30   A    
C69   N16   A    
C4    C77   S    
C90   H54   S    
C86   C92   A    
C71   H38   S    
C30   C32   A    
C40   N12   A    
C90   C91   A    
C55   C86   S    
N4    Ni2   S    
C34   C36   S    
C18   C20   A    
N11   Ni1   S    
C42   H13   S    
C43   H11   S    
C16   H16   S    
C2    C5    A    
C26   H56   S    
C51   C59   A    
C29   C31   A    
C82   C83   A    
C55   C58   A    
C14   H60   S    
C92   H57   S    
C22   H5    S    
N12   Ni3   S    
C33   H18   S    
N5    N10   A    
C62   H29   S    
C9    H25   S    
C7    C66   A    
