data_mof_unit_54697.cif
_audit_creation_date              2012-12-10T17:54:20-0500
_audit_creation_method            fapswitch 2.2
_symmetry_space_group_name_H-M    P1
_symmetry_Int_Tables_number       1
_space_group_crystal_system       triclinic
_cell_length_a                    27.727579
_cell_length_b                    10.62928
_cell_length_c                    9.944949
_cell_angle_alpha                 90.229772
_cell_angle_beta                  90.513565
_cell_angle_gamma                 93.162722
_cell_volume                      2926.40548284

loop_
_atom_site_label
_atom_site_type_symbol
_atom_type_description
_atom_site_fract_x
_atom_site_fract_y
_atom_site_fract_z
_atom_type_partial_charge
C1    C     C_R   0.500812 0.260810 0.499896 0.873085
C2    C     C_R   0.278170 0.473488 0.621586 0.678250
C3    C     C_R   0.252486 0.487387 0.501617 -0.083146
C4    C     C_R   0.101304 0.486259 0.503783 -0.127122
C5    C     C_R   0.124327 0.371426 0.495121 -0.295271
C6    C     C_R   0.096269 0.258073 0.482683 0.643930
C7    C     C_R   0.129377 0.600813 0.511273 -0.005832
C8    C     C_R   0.353181 0.495847 0.498627 -0.375197
C9    C     C_R   0.646465 0.496570 0.502260 -0.109253
C10   C     C_R   0.971593 0.373065 0.520248 0.100719
C11   C     C_R   0.976821 0.604044 0.494047 0.043700
C12   C     C_R   0.406069 0.499443 0.499397 1.011831
C13   C     C_R   0.948977 0.488973 0.507515 0.082109
C14   C     C_R   0.942698 0.264049 0.553052 -0.123003
C15   C     C_R   0.892731 0.266036 0.557139 -0.154247
C16   C     C_R   0.869959 0.377595 0.532035 -0.027086
C17   C     C_R   0.897987 0.489876 0.509164 -0.059090
C18   C     C_R   0.874973 0.603106 0.488319 -0.038718
C19   C     C_R   0.824523 0.601397 0.487979 0.585253
C20   C     C_R   0.819584 0.380296 0.531351 0.554076
C21   C     C_R   0.722258 0.500936 0.383265 0.706876
C22   C     C_R   0.672209 0.503474 0.381343 -0.297712
C23   C     C_R   0.502271 0.739505 0.500254 0.963494
C24   C     C_R   0.671394 0.486343 0.624964 -0.191242
C25   C     C_R   0.721406 0.483697 0.626614 -0.196536
C26   C     C_R   0.746810 0.491354 0.505996 0.184042
C27   C     C_R   0.022291 0.370951 0.504278 -0.184505
C28   C     C_R   0.050278 0.486880 0.504383 0.022851
C29   C     C_R   0.027717 0.603674 0.504114 0.089600
C30   C     C_R   0.046154 0.257710 0.484847 0.505178
C31   C     C_R   0.106840 0.714815 0.518611 -0.071769
C32   C     C_R   0.952674 0.715750 0.470645 -0.198851
C33   C     C_R   0.902636 0.714970 0.467543 -0.110385
C34   C     C_R   0.593841 0.499208 0.500563 0.964800
C35   C     C_R   0.056929 0.716493 0.514851 -0.177102
C36   C     C_R   0.584551 0.147701 0.611964 -0.184262
C37   C     C_R   0.624342 0.090863 0.665893 -0.210019
C38   C     C_R   0.625704 0.960454 0.665251 -0.165672
C39   C     C_R   0.587270 0.885926 0.611057 0.581093
C40   C     C_R   0.545911 0.942119 0.557570 -0.034399
C41   C     C_R   0.544901 0.074170 0.557652 0.029644
C42   C     C_R   0.504520 0.129072 0.499704 -0.063020
C43   C     C_R   0.466628 0.058119 0.439707 -0.173912
C44   C     C_R   0.467229 0.929783 0.440142 -0.213652
C45   C     C_R   0.175011 0.374154 0.495377 0.718616
C46   C     C_R   0.505775 0.872425 0.500276 -0.090611
C47   C     C_R   0.433752 0.328613 0.130260 0.680254
C48   C     C_R   0.402818 0.248796 0.053875 -0.168854
C49   C     C_R   0.404077 0.251617 0.915921 -0.279761
C50   C     C_R   0.436381 0.334576 0.852543 -0.160102
C51   C     C_R   0.468373 0.417889 0.924998 0.107480
C52   C     C_R   0.467872 0.416818 0.069646 0.038594
C53   C     C_R   0.530321 0.578377 0.072585 -0.101589
C54   C     C_R   0.530289 0.578342 0.929794 -0.085006
C55   C     C_R   0.179682 0.598652 0.511502 0.639291
C56   C     C_R   0.276748 0.504979 0.380004 0.562335
C57   C     C_R   0.326944 0.509221 0.377930 0.558693
C58   C     C_R   0.328303 0.477711 0.620186 -0.377787
H1    H     H_    0.347531 0.466531 0.714293 0.240176
H2    H     H_    0.971508 0.805008 0.450432 0.176275
H3    H     H_    0.652351 0.480305 0.719526 0.184059
H4    H     H_    0.885723 0.802840 0.449092 0.198749
H5    H     H_    0.740530 0.476375 0.721440 0.181498
H6    H     H_    0.042210 0.807837 0.524416 0.180630
H7    H     H_    0.585569 0.249337 0.611869 0.154998
H8    H     H_    0.654475 0.148299 0.706851 0.187848
H9    H     H_    0.657049 0.916700 0.705567 0.183874
H10   H     H_    0.437034 0.874606 0.395689 0.170927
H11   H     H_    0.555159 0.642570 0.126911 0.151474
H12   H     H_    0.377422 0.183326 0.103030 0.196775
H13   H     H_    0.379879 0.188958 0.857401 0.205202
H14   H     H_    0.434999 0.330097 0.746144 0.224639
H15   H     H_    0.555113 0.642590 0.877254 0.174043
H16   H     H_    0.653749 0.511169 0.285532 0.188294
H17   H     H_    0.872034 0.179653 0.580842 0.200838
H18   H     H_    0.957886 0.176907 0.581961 0.215074
N1    N     N_R   0.201154 0.486562 0.503518 -0.312258
N2    N     N_R   0.798153 0.490931 0.508479 -0.339264
N3    N     N_R   0.499540 0.498800 0.142780 -0.106063
N4    N     N_R   0.499520 0.498720 0.857170 -0.110711
O1    O     O_R   0.500000 0.316780 0.614690 -0.663308
O2    O     O_2   0.792145 0.273377 0.552144 -0.544062
O3    O     O_2   0.207097 0.707483 0.519344 -0.507297
O4    O     O_2   0.801871 0.709065 0.467956 -0.526797
O5    O     O_R   0.500000 0.316750 0.385360 -0.557298
O6    O     O_R   0.428760 0.500030 0.614650 -0.663886
O7    O     O_R   0.428750 0.500010 0.385320 -0.489841
O8    O     O_R   0.500000 0.683250 0.614640 -0.580467
O9    O     O_R   0.500000 0.683220 0.385310 -0.626102
O10   O     O_R   0.571250 0.499990 0.614680 -0.597033
O11   O     O_R   0.571240 0.499970 0.385350 -0.637719
O12   O     O_2   0.198221 0.266110 0.487440 -0.435474
Zn1   Zn    Zn3+2 0.500000 0.500020 0.653130 0.977703
Zn2   Zn    Zn3+2 0.500000 0.499980 0.346870 1.034755
F1    F     F_    0.251494 0.518748 0.263936 -0.565660
H19   H     H_    0.127726 0.803774 0.526797 0.225191
H20   H     H_    0.436005 0.102193 0.395224 0.198442
F2    F     F_    0.254476 0.456756 0.739516 -0.588402
F3    F     F_    0.592046 0.760002 0.608255 -0.694379
F4    F     F_    0.427788 0.312985 0.261923 -0.659581
F5    F     F_    0.116956 0.146319 0.465023 -0.562428
F6    F     F_    0.746960 0.507647 0.266106 -0.643880
F7    F     F_    0.021838 0.146637 0.455305 -0.646287
F8    F     F_    0.349499 0.527720 0.258420 -0.584349

loop_
_geom_bond_atom_site_label_1
_geom_bond_atom_site_label_2
_ccdc_geom_bond_type
C10   C27   A    
C56   F1    S    
C15   H17   S    
C21   C26   A    
C24   H3    S    
C20   O2    S    
C41   C42   A    
C7    C55   A    
C53   H11   S    
C53   C54   A    
C40   C46   A    
C26   N2    S    
C28   C29   A    
C53   N3    A    
C25   H5    S    
C5    C6    A    
C55   N1    A    
C9    C22   A    
C1    O1    A    
C31   H19   S    
O7    Zn2   S    
C56   C57   A    
C18   C19   A    
C3    C56   A    
C6    F5    S    
O9    Zn2   S    
C45   O12   S    
C50   H14   S    
C51   N4    A    
C8    C58   A    
C34   O11   A    
C33   H4    S    
C30   F7    S    
C23   O9    A    
C35   H6    S    
C52   N3    A    
C16   C20   A    
C23   C46   S    
C21   C22   A    
C27   C30   A    
C36   C41   A    
C4    C7    A    
C4    C28   A    
C44   C46   A    
C50   C51   A    
C54   N4    A    
C1    O5    A    
C7    C31   A    
C51   C52   A    
C24   C25   A    
N3    Zn2   S    
C10   C14   A    
C39   C40   A    
C36   H7    S    
C16   C17   A    
C58   H1    S    
C5    C45   A    
C47   F4    S    
C14   H18   S    
C19   N2    A    
C43   C44   A    
C34   O10   A    
C37   C38   A    
O6    Zn1   S    
C8    C57   A    
C54   H15   S    
O1    Zn1   S    
O5    Zn2   S    
C39   F3    S    
C47   C48   A    
C8    C12   S    
C37   H8    S    
C17   C18   A    
C2    F2    S    
C21   F6    S    
C40   C41   A    
C6    C30   A    
C11   C32   A    
C23   O8    A    
C9    C34   S    
C31   C35   A    
C44   H10   S    
C42   C43   A    
C32   H2    S    
C55   O3    S    
C19   O4    S    
C3    N1    S    
O10   Zn1   S    
C57   F8    S    
O8    Zn1   S    
C48   C49   A    
C12   O7    A    
C43   H20   S    
C48   H12   S    
C4    C5    A    
C10   C13   A    
C2    C58   A    
C9    C24   A    
C47   C52   A    
C20   N2    A    
C29   C35   A    
C12   O6    A    
C32   C33   A    
C2    C3    A    
C25   C26   A    
O11   Zn2   S    
C11   C13   A    
C38   C39   A    
C18   C33   A    
C13   C17   A    
C1    C42   S    
C38   H9    S    
C11   C29   A    
C36   C37   A    
C49   C50   A    
C49   H13   S    
C27   C28   A    
C22   H16   S    
C14   C15   A    
C45   N1    A    
N4    Zn1   S    
C15   C16   A    
