data_mof_unit_28218.cif
_audit_creation_date              2012-12-10T17:15:09-0500
_audit_creation_method            fapswitch 2.2
_symmetry_space_group_name_H-M    P1
_symmetry_Int_Tables_number       1
_space_group_crystal_system       triclinic
_cell_length_a                    10.099197
_cell_length_b                    10.818238
_cell_length_c                    12.881783
_cell_angle_alpha                 91.812389
_cell_angle_beta                  91.655423
_cell_angle_gamma                 95.104591
_cell_volume                      1400.412123

loop_
_atom_site_label
_atom_site_type_symbol
_atom_type_description
_atom_site_fract_x
_atom_site_fract_y
_atom_site_fract_z
_atom_type_partial_charge
C1    C     C_R   0.445327 0.267234 0.490154 0.945159
C2    C     C_R   0.656246 0.428068 0.040401 0.107117
C3    C     C_R   0.356759 0.568860 0.852246 -0.249896
C4    C     C_R   0.648130 0.439950 0.147692 -0.244708
C5    C     C_R   0.554089 0.458094 0.870617 -0.296264
C6    C     C_R   0.447640 0.546309 0.129670 -0.296561
C7    C     C_R   0.554697 0.473724 0.977462 0.122278
C8    C     C_R   0.450720 0.536067 0.022602 0.124163
C9    C     C_2   0.415965 0.135049 0.474970 -0.378829
C10   C     C_2   0.588718 0.864255 0.496658 -0.382524
C11   C     C_2   0.517711 0.065286 0.467640 -0.151568
C12   C     C_R   0.555643 0.732616 0.503956 0.945277
C13   C     C_2   0.493560 0.933068 0.464460 -0.152180
C14   C     C_3   0.238726 0.653247 0.002444 -0.444758
C15   C     C_3   0.288347 0.786667 0.037591 -0.332166
C16   C     C_3   0.177429 0.853368 0.086482 -0.889502
C17   C     C_3   0.772023 0.364215 0.997103 -0.433005
C18   C     C_3   0.876168 0.457839 0.951519 -0.340707
C19   C     C_3   0.985767 0.391667 0.900043 -0.890020
C20   C     C_2   0.071393 0.490481 0.508681 -0.132387
C21   C     C_2   0.928635 0.509725 0.491500 -0.134789
C22   C     C_R   0.474052 0.503031 0.698548 0.895312
C23   C     C_R   0.526110 0.497436 0.301455 0.889513
C24   C     C_R   0.542808 0.495861 0.191206 -0.080796
C25   C     C_R   0.458724 0.507910 0.808900 -0.080739
C26   C     C_R   0.350856 0.584091 0.959487 0.112527
H1    H     H_    0.369683 0.591688 0.166846 0.175022
H2    H     H_    0.100217 0.424747 0.565220 0.163882
H3    H     H_    0.092957 0.856912 0.029792 0.261694
H4    H     H_    0.141743 0.804616 0.156404 0.256704
H5    H     H_    0.215641 0.949851 0.110199 0.252534
H6    H     H_    0.372486 0.787422 0.095076 0.222494
H7    H     H_    0.324442 0.838622 0.969284 0.225449
H8    H     H_    0.158804 0.658282 0.941886 0.201772
H9    H     H_    0.190636 0.601508 0.066482 0.201051
H10   H     H_    0.040082 0.340176 0.958430 0.266633
H11   H     H_    0.942692 0.325831 0.837491 0.257822
H12   H     H_    0.628972 0.408313 0.833613 0.174978
H13   H     H_    0.057361 0.460698 0.864819 0.247826
H14   H     H_    0.829617 0.514750 0.892825 0.228705
H15   H     H_    0.921372 0.521833 0.014685 0.220613
H16   H     H_    0.822310 0.314896 0.059387 0.199148
H17   H     H_    0.734995 0.290731 0.938556 0.196022
H18   H     H_    0.867949 0.387945 0.595757 0.161373
H19   H     H_    0.132057 0.612063 0.404252 0.157792
H20   H     H_    0.722170 0.402776 0.197540 0.159144
H21   H     H_    0.284125 0.607865 0.802275 0.158872
H22   H     H_    0.393648 0.892784 0.442638 0.187705
H23   H     H_    0.620632 0.105131 0.471594 0.187980
H24   H     H_    0.688306 0.905026 0.518590 0.149641
H25   H     H_    0.313311 0.094730 0.471250 0.149561
H26   H     H_    0.899817 0.575558 0.435049 0.163019
N1    N     N_2   0.162330 0.550370 0.457540 -0.197509
N2    N     N_2   0.837670 0.449630 0.542460 -0.197432
O1    O     O_R   0.567930 0.307680 0.508550 -0.613913
O2    O     O_R   0.432070 0.692320 0.491450 -0.612967
O3    O     O_R   0.351090 0.340020 0.481290 -0.611356
O4    O     O_R   0.648910 0.659980 0.518710 -0.611617
O5    O     O_R   0.590490 0.486480 0.665020 -0.616716
O6    O     O_R   0.409510 0.513520 0.334980 -0.619142
O7    O     O_R   0.373660 0.518820 0.637760 -0.620623
O8    O     O_R   0.626340 0.481180 0.362240 -0.624338
Zn1   Zn    Zn3+2 0.644780 0.478400 0.518200 0.933737
Zn2   Zn    Zn3+2 0.355220 0.521600 0.481800 0.934495

loop_
_geom_bond_atom_site_label_1
_geom_bond_atom_site_label_2
_ccdc_geom_bond_type
C14   H8    S    
O7    Zn2   S    
C2    C4    A    
C23   C24   S    
C17   H17   S    
C2    C17   S    
O8    Zn1   S    
C11   H23   S    
C1    O3    A    
C13   H22   S    
C8    C26   A    
O5    Zn1   S    
C6    H1    S    
C9    H25   S    
C21   N2    D    
O6    Zn2   S    
C6    C24   A    
O2    Zn2   S    
C17   C18   S    
C1    O1    A    
C12   O4    A    
C7    C8    A    
C4    H20   S    
C5    H12   S    
C14   C26   S    
C16   H5    S    
O4    Zn1   S    
C14   H9    S    
C11   C13   S    
C9    C11   D    
C12   O2    A    
C10   C12   S    
C5    C25   A    
C19   H13   S    
C3    H21   S    
C10   C13   D    
C19   H10   S    
C21   H26   S    
C23   O6    A    
C4    C24   A    
N1    Zn2   S    
C19   H11   S    
N2    Zn1   S    
C23   O8    A    
H19   N1    S    
C15   C16   S    
C10   H24   S    
H18   N2    S    
C3    C25   A    
C1    C9    S    
C20   C21   S    
O3    Zn2   S    
C18   C19   S    
C18   H15   S    
C22   O5    A    
C5    C7    A    
C18   H14   S    
C14   C15   S    
C6    C8    A    
C20   H2    S    
C16   H3    S    
C17   H16   S    
C16   H4    S    
C15   H7    S    
C3    C26   A    
C2    C7    A    
O1    Zn1   S    
C20   N1    D    
C22   O7    A    
C22   C25   S    
C15   H6    S    
