data_mof_unit_6388.cif
_audit_creation_date              2012-12-10T20:44:44-0500
_audit_creation_method            fapswitch 2.2
_symmetry_space_group_name_H-M    P1
_symmetry_Int_Tables_number       1
_space_group_crystal_system       triclinic
_cell_length_a                    9.846176
_cell_length_b                    10.686164
_cell_length_c                    16.906401
_cell_angle_alpha                 89.54265
_cell_angle_beta                  94.749675
_cell_angle_gamma                 90.192825
_cell_volume                      1772.68354736

loop_
_atom_site_label
_atom_site_type_symbol
_atom_type_description
_atom_site_fract_x
_atom_site_fract_y
_atom_site_fract_z
_atom_type_partial_charge
C1    C     C_R   0.500232 0.259943 0.502426 0.884903
C2    C     C_R   0.655711 0.509284 0.782404 -0.218275
C3    C     C_R   0.581464 0.502469 0.139469 -0.159676
C4    C     C_R   0.587044 0.486677 0.220696 -0.253154
C5    C     C_R   0.459148 0.541138 0.097290 0.330384
C6    C     C_R   0.471303 0.509386 0.261004 -0.021798
C7    C     C_R   0.348421 0.544743 0.219102 -0.213336
C8    C     C_R   0.342655 0.560114 0.137295 -0.199238
C9    C     C_R   0.625098 0.064486 0.512564 0.046978
C10   C     C_R   0.502671 0.128510 0.514615 -0.061951
C11   C     C_R   0.383962 0.063901 0.531018 -0.222880
C12   C     C_R   0.517991 0.501543 0.653161 0.860049
C13   C     C_R   0.384266 0.934480 0.530794 -0.234867
C14   C     C_R   0.503161 0.871430 0.513909 -0.063230
C15   C     C_R   0.625477 0.936917 0.511825 0.054416
C16   C     C_3   0.733653 0.932254 0.454487 0.324663
C17   C     C_3   0.732097 0.074710 0.455120 -0.555904
C18   C     C_R   0.075113 0.399749 0.529754 0.218068
C19   C     C_R   0.067149 0.593105 0.463605 -0.146664
C20   C     C_R   0.923038 0.592935 0.463530 -0.149897
C21   C     C_R   0.932458 0.399769 0.529710 0.218913
C22   C     C_3   0.938008 0.350188 0.612517 -0.516035
C23   C     C_R   0.500505 0.740099 0.502094 0.925093
C24   C     C_3   0.092289 0.350259 0.612660 -0.511986
C25   C     C_R   0.482014 0.501923 0.346827 0.888256
C26   C     C_R   0.529057 0.518723 0.738420 -0.025030
C27   C     C_R   0.412806 0.551952 0.775734 -0.236674
C28   C     C_R   0.421980 0.571628 0.856571 -0.162524
C29   C     C_R   0.547972 0.556491 0.901469 0.327296
C30   C     C_R   0.664769 0.528386 0.863748 -0.196061
H1    H     H_    0.682411 0.457659 0.251939 0.160609
H2    H     H_    0.290008 0.884962 0.538491 0.164632
H3    H     H_    0.828325 0.115787 0.482717 0.165667
H4    H     H_    0.692995 0.118758 0.397911 0.213886
H5    H     H_    0.864666 0.668588 0.435258 0.163986
H6    H     H_    0.899633 0.418288 0.654631 0.212063
H7    H     H_    0.142958 0.418285 0.654968 0.217371
H8    H     H_    0.672554 0.483424 0.109914 0.147845
H9    H     H_    0.136752 0.254738 0.615649 0.193664
H10   H     H_    0.761962 0.516977 0.897979 0.136830
H11   H     H_    0.257918 0.562558 0.249523 0.158691
H12   H     H_    0.330001 0.595695 0.883909 0.147087
H13   H     H_    0.247740 0.587618 0.104956 0.136902
H14   H     H_    0.314559 0.563039 0.742609 0.158205
H15   H     H_    0.289520 0.112325 0.538604 0.159767
N1    N     N_2   0.559321 0.557650 0.984947 -0.210530
N2    N     N_2   0.447432 0.553668 0.014141 -0.209329
N3    N     N_R   0.142860 0.499130 0.500540 -0.104364
N4    N     N_R   0.857210 0.499170 0.500530 -0.106364
O1    O     O_R   0.614690 0.316790 0.499990 -0.614595
O2    O     O_R   0.385350 0.316760 0.500000 -0.624169
O3    O     O_R   0.627460 0.498860 0.616130 -0.626314
O4    O     O_R   0.398120 0.498820 0.616130 -0.625611
O5    O     O_R   0.614650 0.683240 0.500000 -0.608258
O6    O     O_R   0.385310 0.683210 0.500010 -0.637703
O7    O     O_R   0.601880 0.501180 0.383870 -0.617873
O8    O     O_R   0.372540 0.501140 0.383870 -0.620775
Zn1   Zn    Zn3+2 0.653130 0.500020 0.499990 0.952143
Zn2   Zn    Zn3+2 0.346870 0.499980 0.500010 0.941741
H16   H     H_    0.829055 0.888666 0.481933 0.055306
O9    O     O_3   0.682580 0.880774 0.381156 -0.582458
C31   C     C_3   0.784493 0.884525 0.327073 0.102491
H17   H     H_    0.886173 0.855057 0.354754 0.106685
H18   H     H_    0.792983 0.980779 0.302471 0.149147
C32   C     C_3   0.744972 0.795806 0.259118 -0.807041
H19   H     H_    0.643735 0.821662 0.229771 0.265423
H20   H     H_    0.821933 0.800563 0.214744 0.200590
H21   H     H_    0.740472 0.698557 0.282301 0.257192
H22   H     H_    0.117751 0.669431 0.435479 0.145595
H23   H     H_    0.893484 0.254680 0.615298 0.199839
H24   H     H_    0.746982 0.485607 0.754329 0.152189

loop_
_geom_bond_atom_site_label_1
_geom_bond_atom_site_label_2
_ccdc_geom_bond_type
C14   C23   S    
C5    C8    A    
C18   N3    A    
O3    Zn1   S    
C8    H13   S    
C23   O6    A    
C20   N4    A    
O6    Zn2   S    
C18   C21   A    
C22   H6    S    
C1    O1    A    
C13   H2    S    
C19   C20   A    
C14   C15   A    
C25   O7    A    
C29   N1    S    
C2    C30   A    
C32   H21   S    
C21   N4    A    
C24   H7    S    
C9    C15   A    
C30   H10   S    
C7    C8    A    
C2    C26   A    
C2    H24   S    
C21   C22   S    
C1    O2    A    
C26   C27   A    
C31   H17   S    
C17   H3    S    
C23   O5    A    
C11   H15   S    
C18   C24   S    
C16   O9    S    
C9    C17   S    
C28   C29   A    
C12   O3    A    
O7    Zn1   S    
C6    C7    A    
C10   C11   A    
C7    H11   S    
O4    Zn2   S    
O9    C31   S    
O5    Zn1   S    
C22   C24   S    
C19   H22   S    
C4    H1    S    
O8    Zn2   S    
C17   H4    S    
C1    C10   S    
C29   C30   A    
C15   C16   S    
C6    C25   S    
C25   O8    A    
C11   C13   A    
C24   H9    S    
O2    Zn2   S    
C3    C4    A    
N3    Zn2   S    
C4    C6    A    
C32   H19   S    
C9    C10   A    
C28   H12   S    
C27   C28   A    
N1    N2    D    
C5    N2    S    
C31   H18   S    
C22   H23   S    
C19   N3    A    
C31   C32   S    
C3    C5    A    
C13   C14   A    
C16   H16   S    
C27   H14   S    
C20   H5    S    
N4    Zn1   S    
C12   O4    A    
C3    H8    S    
C12   C26   S    
C16   C17   S    
C32   H20   S    
O1    Zn1   S    
