data_mof_unit_53082.cif
_audit_creation_date              2012-12-10T18:16:29-0500
_audit_creation_method            fapswitch 2.2
_symmetry_space_group_name_H-M    P1
_symmetry_Int_Tables_number       1
_space_group_crystal_system       triclinic
_cell_length_a                    12.681452
_cell_length_b                    13.317154
_cell_length_c                    27.62524
_cell_angle_alpha                 93.420719
_cell_angle_beta                  101.250574
_cell_angle_gamma                 83.975616
_cell_volume                      4546.77590435

loop_
_atom_site_label
_atom_site_type_symbol
_atom_type_description
_atom_site_fract_x
_atom_site_fract_y
_atom_site_fract_z
_atom_type_partial_charge
C1    C     C_R   0.441249 0.690831 0.497612 0.843626
C2    C     C_R   0.534494 0.599818 0.032000 0.043009
C3    C     C_R   0.488354 0.424443 0.023670 0.048553
C4    C     C_R   0.500869 0.499484 0.593820 0.851120
C5    C     C_R   0.503934 0.514940 0.052353 0.089113
C6    C     C_R   0.561048 0.684780 0.063433 -0.225065
C7    C     C_R   0.553296 0.686793 0.113023 -0.136033
C8    C     C_R   0.515854 0.605513 0.132360 -0.023061
C9    C     C_R   0.488433 0.520421 0.101654 -0.059255
C10   C     C_R   0.446273 0.440368 0.120286 -0.021780
C11   C     C_R   0.435486 0.445651 0.169770 0.508726
C12   C     C_R   0.595548 0.536911 0.730467 -0.098191
C13   C     C_R   0.508589 0.605463 0.182251 0.513064
C14   C     C_R   0.422736 0.595875 0.277976 -0.085773
C15   C     C_R   0.431763 0.592788 0.329334 0.074785
C16   C     C_R   0.558476 0.310442 0.507527 0.898256
C17   C     C_R   0.547026 0.432285 0.327647 0.140874
C18   C     C_R   0.539248 0.439632 0.277052 -0.097543
C19   C     C_R   0.476710 0.520194 0.252165 0.201997
C20   C     C_R   0.534449 0.597204 0.980723 0.071717
C21   C     C_R   0.526868 0.503549 0.953220 0.046667
C22   C     C_R   0.517586 0.414589 0.976654 -0.057361
C23   C     C_R   0.514763 0.495912 0.748838 0.310721
C24   C     C_R   0.538319 0.685480 0.955746 -0.223171
C25   C     C_R   0.524230 0.314936 0.899970 0.190067
C26   C     C_R   0.437417 0.349086 0.041535 -0.250108
C27   C     C_R   0.417059 0.356725 0.089311 -0.137019
C28   C     C_R   0.499158 0.500954 0.406539 0.877174
C29   C     C_R   0.536694 0.319622 0.952124 0.140563
C30   C     C_R   0.730811 0.064637 0.528742 0.175039
C31   C     C_R   0.590276 0.204884 0.516978 -0.086259
C32   C     C_R   0.304028 0.833660 0.473882 -0.208411
C33   C     C_R   0.276093 0.936131 0.464329 0.222556
C34   C     C_R   0.527764 0.499189 0.902148 -0.097716
C35   C     C_R   0.354700 0.003557 0.479243 -0.262757
C36   C     C_R   0.457632 0.972002 0.506910 0.076464
C37   C     C_R   0.483404 0.870158 0.518045 0.093380
C38   C     C_R   0.538983 0.038656 0.520651 0.030805
C39   C     C_R   0.649415 0.000264 0.532770 0.127848
C40   C     C_R   0.520824 0.586853 0.827153 0.495813
C41   C     C_R   0.669345 0.903848 0.552080 -0.223010
C42   C     C_R   0.584944 0.842713 0.547947 -0.189599
C43   C     C_R   0.513355 0.142432 0.524477 0.112496
C44   C     C_R   0.696980 0.165585 0.517990 -0.338089
C45   C     C_R   0.528444 0.589665 0.878168 0.006200
C46   C     C_R   0.408156 0.799672 0.498545 -0.163278
C47   C     C_R   0.086484 0.348391 0.428140 -0.303811
C48   C     C_R   0.800535 0.632576 0.558093 0.018562
C49   C     C_R   0.890420 0.681899 0.557127 -0.267709
C50   C     C_R   0.956543 0.647145 0.523836 -0.172782
C51   C     C_R   0.950176 0.549349 0.501643 0.024966
C52   C     C_R   0.523209 0.407081 0.823460 0.520334
C53   C     C_R   0.850333 0.509321 0.498555 0.238675
C54   C     C_R   0.034955 0.491403 0.481503 -0.015844
C55   C     C_R   0.007784 0.406478 0.449616 0.160471
C56   C     C_R   0.534282 0.681726 0.905245 -0.139644
C57   C     C_R   0.903014 0.376998 0.441295 -0.277819
C58   C     C_R   0.826657 0.425708 0.466757 -0.218871
C59   C     C_R   0.147205 0.505371 0.495906 0.227207
C60   C     C_R   0.193357 0.370051 0.440374 -0.036212
C61   C     C_R   0.430097 0.454136 0.716181 -0.102368
C62   C     C_R   0.426324 0.453517 0.665529 -0.239656
C63   C     C_R   0.590108 0.538921 0.679885 -0.218897
C64   C     C_3   0.505915 0.214628 0.872084 -0.777595
C65   C     C_3   0.610405 0.341399 0.352749 -0.909010
C66   C     C_3   0.588770 0.227926 0.982051 -0.419092
C67   C     C_R   0.523621 0.405647 0.874788 -0.082394
C68   C     C_3   0.699978 0.190326 0.970734 -0.829058
C69   C     C_3   0.851374 0.037647 0.529926 -0.388321
C70   C     C_3   0.898092 0.928371 0.534121 -0.910698
C71   C     C_3   0.417736 0.183754 0.548077 -0.841666
C72   C     C_3   0.166299 0.977338 0.436410 -0.423671
C73   C     C_3   0.083796 0.899941 0.420723 -0.880368
C74   C     C_3   0.187542 0.573564 0.540323 -0.348488
C75   C     C_3   0.173660 0.531365 0.588757 -0.856180
C76   C     C_3   0.377684 0.676601 0.358951 -0.377885
C77   C     C_3   0.322568 0.768724 0.330325 -0.874270
C78   C     C_R   0.504920 0.497864 0.647009 -0.027989
C79   C     C_R   0.493969 0.509356 0.353882 -0.096365
H1    H     H_    0.652582 0.572751 0.666603 0.157225
H2    H     H_    0.335772 0.080208 0.467207 0.150291
H3    H     H_    0.600110 0.773939 0.567823 0.159233
H4    H     H_    0.254354 0.325744 0.423668 0.145535
H5    H     H_    0.881728 0.312124 0.417109 0.154677
H6    H     H_    0.065763 0.285075 0.402785 0.150224
H7    H     H_    0.744572 0.661439 0.581501 0.114124
H8    H     H_    0.534885 0.751898 0.887409 0.187773
H9    H     H_    0.005780 0.699934 0.513567 0.145550
H10   H     H_    0.905261 0.748762 0.580147 0.152012
H11   H     H_    0.749596 0.396745 0.461092 0.204827
H12   H     H_    0.367733 0.421539 0.730110 0.147824
H13   H     H_    0.374569 0.656527 0.257282 0.170900
H14   H     H_    0.576114 0.752698 0.136053 0.188577
H15   H     H_    0.591600 0.749333 0.051011 0.144160
H16   H     H_    0.539108 0.759423 0.973942 0.141765
H17   H     H_    0.363180 0.417133 0.641056 0.162574
H18   H     H_    0.491577 0.155007 0.895577 0.210032
H19   H     H_    0.431811 0.223591 0.843099 0.254297
H20   H     H_    0.576731 0.186586 0.855328 0.268374
H21   H     H_    0.639035 0.284786 0.325835 0.243821
H22   H     H_    0.682105 0.365609 0.378568 0.241937
H23   H     H_    0.412416 0.283938 0.018521 0.152844
H24   H     H_    0.559410 0.304030 0.373319 0.235168
H25   H     H_    0.693818 0.156007 0.932905 0.264245
H26   H     H_    0.751892 0.253712 0.974935 0.263616
H27   H     H_    0.739488 0.131602 0.997023 0.245718
H28   H     H_    0.604396 0.247243 0.022224 0.224869
H29   H     H_    0.535326 0.165752 0.976219 0.196538
H30   H     H_    0.912037 0.908973 0.573396 0.249409
H31   H     H_    0.845980 0.877474 0.509167 0.282257
H32   H     H_    0.978559 0.920016 0.523354 0.253015
H33   H     H_    0.869653 0.063240 0.495067 0.209700
H34   H     H_    0.380705 0.295829 0.102177 0.189025
H35   H     H_    0.897347 0.082618 0.560624 0.210723
H36   H     H_    0.442403 0.243399 0.576705 0.241641
H37   H     H_    0.348930 0.215703 0.520330 0.247604
H38   H     H_    0.388855 0.124102 0.567287 0.234253
H39   H     H_    0.112062 0.842391 0.394123 0.261496
H40   H     H_    0.069483 0.862522 0.453403 0.252451
H41   H     H_    0.005898 0.938947 0.402266 0.260593
H42   H     H_    0.131455 0.037209 0.460110 0.208475
H43   H     H_    0.177587 0.013264 0.402705 0.207051
H44   H     H_    0.088146 0.540243 0.593011 0.266973
H45   H     H_    0.581463 0.382221 0.256493 0.153956
H46   H     H_    0.201746 0.449638 0.589740 0.255181
H47   H     H_    0.221236 0.572162 0.620484 0.252026
H48   H     H_    0.270446 0.585047 0.542953 0.268211
H49   H     H_    0.158949 0.653453 0.537418 0.151866
H50   H     H_    0.381187 0.803452 0.312976 0.277962
H51   H     H_    0.253295 0.747150 0.301733 0.257853
H52   H     H_    0.291136 0.826005 0.356188 0.259165
H53   H     H_    0.316195 0.644732 0.375645 0.226823
H54   H     H_    0.440028 0.704171 0.389498 0.210634
H55   H     H_    0.755613 0.215049 0.511995 0.172012
H56   H     H_    0.746294 0.877265 0.573382 0.161158
H57   H     H_    0.662158 0.567951 0.755464 0.149227
H58   H     H_    0.247164 0.778931 0.459943 0.174844
N1    N     N_R   0.519003 0.496661 0.801041 -0.352029
N2    N     N_R   0.470591 0.525381 0.200086 -0.342880
N3    N     N_R   0.222180 0.444690 0.474320 -0.123176
N4    N     N_R   0.776980 0.554780 0.525420 -0.128676
O1    O     O_R   0.366730 0.627160 0.487740 -0.654065
O2    O     O_R   0.410930 0.482330 0.420550 -0.617209
O3    O     O_R   0.589030 0.517690 0.436960 -0.613382
O4    O     O_2   0.514166 0.673896 0.803543 -0.572043
O5    O     O_2   0.541940 0.683389 0.212941 -0.569460
O6    O     O_2   0.530175 0.320437 0.795977 -0.573489
O7    O     O_2   0.392035 0.370952 0.187803 -0.564239
O8    O     O_R   0.544830 0.662520 0.504140 -0.608971
O9    O     O_R   0.410970 0.482310 0.563040 -0.635134
O10   O     O_R   0.589070 0.517670 0.579450 -0.627446
O11   O     O_R   0.455170 0.337480 0.495860 -0.613634
O12   O     O_R   0.633270 0.372840 0.512260 -0.642969
Zn1   Zn    Zn3+2 0.381080 0.476390 0.489050 0.917923
Zn2   Zn    Zn3+2 0.618920 0.523610 0.510950 0.935859

loop_
_geom_bond_atom_site_label_1
_geom_bond_atom_site_label_2
_ccdc_geom_bond_type
C10   C27   A    
C66   C68   S    
C8    C13   A    
C73   H40   S    
C22   C29   A    
C62   H17   S    
C72   H42   S    
C41   C42   A    
C23   N1    S    
C35   C36   A    
C42   H3    S    
C65   H22   S    
C66   H28   S    
C35   H2    S    
C7    C8    A    
C39   C41   A    
C16   C31   S    
C4    C78   S    
C12   C23   A    
C26   C27   A    
C31   C43   A    
C40   O4    S    
C75   H44   S    
C13   N2    A    
C36   C37   A    
C38   C39   A    
C60   H4    S    
C1    C46   S    
C70   H32   S    
C17   C79   A    
C18   C19   A    
C77   H52   S    
C37   C42   A    
C28   C79   S    
C11   N2    A    
C1    O1    A    
C70   H31   S    
C33   C72   S    
C33   C35   A    
C47   C60   A    
C64   H20   S    
C74   H49   S    
C20   C24   A    
C45   C56   A    
C8    C9    A    
C6    H15   S    
C25   C67   A    
C48   N4    A    
C52   N1    A    
C1    O8    A    
C28   O3    A    
O10   Zn2   S    
O12   Zn2   S    
C9    C10   A    
C61   C62   A    
C50   H9    S    
C63   H1    S    
C64   H19   S    
C15   C76   S    
C73   H41   S    
C21   C22   A    
C25   C29   A    
C30   C44   A    
C2    C6    A    
C68   H27   S    
C13   O5    S    
C50   C51   A    
C54   C59   A    
C44   H55   S    
C40   C45   A    
C7    H14   S    
C15   C79   A    
C69   H35   S    
C31   C44   A    
C71   H38   S    
C2    C20   A    
C76   C77   S    
C74   C75   S    
C24   H16   S    
C66   H29   S    
C28   O2    A    
C12   C63   A    
N4    Zn2   S    
C56   H8    S    
C21   C34   A    
C3    C5    A    
C40   N1    A    
C75   H46   S    
C25   C64   S    
C5    C9    A    
C70   H30   S    
C74   H48   S    
C53   C58   A    
C17   C18   A    
C57   H5    S    
C71   H36   S    
C16   O11   A    
C34   C45   A    
C77   H50   S    
O1    Zn1   S    
C58   H11   S    
C59   C74   S    
C14   H13   S    
C52   C67   A    
C60   N3    A    
C27   H34   S    
C32   H58   S    
C48   C49   A    
O11   Zn1   S    
C52   O6    S    
C55   C57   A    
C12   H57   S    
C48   H7    S    
C2    C5    A    
C68   H26   S    
C65   H24   S    
C47   H6    S    
C41   H56   S    
C30   C69   S    
C47   C55   A    
C30   C39   A    
C4    O10   A    
C54   C55   A    
C64   H18   S    
C43   C71   S    
C73   H39   S    
C72   H43   S    
C32   C46   A    
C14   C19   A    
C62   C78   A    
C3    C26   A    
C68   H25   S    
C65   H21   S    
C49   H10   S    
C72   C73   S    
O2    Zn1   S    
C34   C67   A    
C76   H54   S    
C6    C7    A    
C24   C56   A    
C4    O9    A    
C17   C65   S    
C75   H47   S    
C32   C33   A    
C51   C54   A    
O3    Zn2   S    
C36   C38   A    
O8    Zn2   S    
C38   C43   A    
C26   H23   S    
C76   H53   S    
C57   C58   A    
C59   N3    A    
C69   H33   S    
C71   H37   S    
C53   N4    A    
C77   H51   S    
C69   C70   S    
C11   O7    S    
C10   C11   A    
C29   C66   S    
C23   C61   A    
C20   C21   A    
C19   N2    S    
C49   C50   A    
O9    Zn1   S    
C18   H45   S    
C16   O12   A    
C14   C15   A    
C3    C22   A    
C51   C53   A    
C37   C46   A    
C61   H12   S    
N3    Zn1   S    
C63   C78   A    
