data_mof_unit_15449.cif
_audit_creation_date              2012-12-10T19:12:20-0500
_audit_creation_method            fapswitch 2.2
_symmetry_space_group_name_H-M    P1
_symmetry_Int_Tables_number       1
_space_group_crystal_system       triclinic
_cell_length_a                    7.771721
_cell_length_b                    9.097458
_cell_length_c                    17.049412
_cell_angle_alpha                 89.600212
_cell_angle_beta                  94.245262
_cell_angle_gamma                 90.018734
_cell_volume                      1202.10631583

loop_
_atom_site_label
_atom_site_type_symbol
_atom_type_description
_atom_site_fract_x
_atom_site_fract_y
_atom_site_fract_z
_atom_type_partial_charge
C1    C     C_R   0.499967 0.219966 0.500011 0.847154
C2    C     C_R   0.605918 0.427816 0.143514 0.176112
C3    C     C_R   0.544816 0.530480 0.902571 0.336169
C4    C     C_R   0.455183 0.469512 0.097429 0.336169
C5    C     C_R   0.689474 0.481585 0.866508 -0.251883
C6    C     C_R   0.310526 0.518409 0.133492 -0.251884
C7    C     C_R   0.685846 0.467018 0.785071 0.138005
C8    C     C_R   0.314154 0.532979 0.214929 0.138005
C9    C     C_1   0.499974 0.065353 0.500004 -0.153363
C10   C     C_1   0.500026 0.934647 0.499995 -0.153364
C11   C     C_3   0.761224 0.366377 0.106953 -0.783286
C12   C     C_R   0.500033 0.780034 0.499989 0.847155
C13   C     C_3   0.238775 0.633615 0.893048 -0.783285
C14   C     C_R   0.522030 0.497853 0.651727 0.827460
C15   C     C_R   0.477970 0.502147 0.348273 0.827459
C16   C     C_R   0.534670 0.506273 0.738206 -0.124666
C17   C     C_R   0.465330 0.493725 0.261794 -0.124666
C18   C     C_R   0.390934 0.559284 0.774783 -0.223217
C19   C     C_R   0.609066 0.440713 0.225217 -0.223216
C20   C     C_R   0.394081 0.572178 0.856486 0.176111
Cu1   Cu    Cu3+1 0.669080 0.500010 0.500000 1.043512
Cu2   Cu    Cu3+1 0.330920 0.499990 0.500000 1.043512
H1    H     H_    0.724286 0.407606 0.260622 0.192467
H2    H     H_    0.176284 0.546560 0.926908 0.243045
H3    H     H_    0.275714 0.592392 0.739379 0.192467
H4    H     H_    0.804668 0.450804 0.902566 0.169026
H5    H     H_    0.195332 0.549189 0.097433 0.169027
H6    H     H_    0.721451 0.274249 0.067251 0.238404
H7    H     H_    0.823713 0.453428 0.073090 0.243046
H8    H     H_    0.859184 0.323772 0.152207 0.231298
H9    H     H_    0.278548 0.725738 0.932754 0.238405
H10   H     H_    0.140818 0.676227 0.847795 0.231298
I1    I     I_    0.912234 0.376437 0.741366 -0.360279
I2    I     I_    0.087766 0.623561 0.258633 -0.360279
N1    N     N_1   0.076820 0.499970 0.500010 -0.022925
N2    N     N_1   0.923180 0.500030 0.499990 -0.022925
N3    N     N_2   0.555850 0.538371 0.985355 -0.236264
N4    N     N_2   0.444149 0.461621 0.014645 -0.236263
O1    O     O_R   0.642760 0.288400 0.500000 -0.573114
O2    O     O_R   0.357240 0.711600 0.500000 -0.573113
O3    O     O_R   0.357190 0.288380 0.500000 -0.574606
O4    O     O_R   0.642810 0.711620 0.500000 -0.574606
O5    O     O_R   0.658410 0.498660 0.613920 -0.556066
O6    O     O_R   0.341590 0.501340 0.386080 -0.556066
O7    O     O_R   0.372840 0.498650 0.613930 -0.582984
O8    O     O_R   0.627160 0.501350 0.386070 -0.582985

loop_
_geom_bond_atom_site_label_1
_geom_bond_atom_site_label_2
_ccdc_geom_bond_type
C12   O2    A    
C2    C4    A    
C15   C17   S    
N3    N4    D    
C9    C10   T    
C13   H10   S    
C19   H1    S    
C6    H5    S    
C13   C20   S    
Cu2   O2    S    
C3    C20   A    
Cu1   N2    S    
C8    I2    S    
Cu1   Cu2   S    
C8    C17   A    
Cu2   N1    S    
C7    I1    S    
C3    N3    S    
C18   H3    S    
C10   C12   S    
C11   H6    S    
C2    C11   S    
C4    C6    A    
C7    C16   A    
C17   C19   A    
C4    N4    S    
C15   O6    A    
C14   O7    A    
C18   C20   A    
C13   H2    S    
C14   C16   S    
Cu2   O3    S    
C1    O1    A    
C12   O4    A    
C5    H4    S    
Cu2   O7    S    
C1    C9    S    
C11   H7    S    
C16   C18   A    
Cu1   O8    S    
C1    O3    A    
C5    C7    A    
C6    C8    A    
C15   O8    A    
C2    C19   A    
Cu1   O5    S    
C13   H9    S    
Cu2   O6    S    
Cu1   O4    S    
C11   H8    S    
C14   O5    A    
C3    C5    A    
N1    N2    T    
Cu1   O1    S    
