data_mof_unit_54412.cif
_audit_creation_date              2012-10-26T19:41:52-0400
_audit_creation_method            fapswitch 2.2
_symmetry_space_group_name_H-M    P1
_symmetry_Int_Tables_number       1
_space_group_crystal_system       triclinic
_cell_length_a                    10.689986
_cell_length_b                    10.852132
_cell_length_c                    9.700047
_cell_angle_alpha                 89.268719
_cell_angle_beta                  90.087443
_cell_angle_gamma                 96.076125
_cell_volume                      1118.88119804

loop_
_atom_site_label
_atom_site_type_symbol
_atom_type_description
_atom_site_fract_x
_atom_site_fract_y
_atom_site_fract_z
_atom_type_partial_charge
C1    C     C_R   0.514616 0.264550 0.501861 0.547283
C2    C     C_R   0.534979 0.061357 0.631823 -0.047418
C3    C     C_R   0.534543 0.131613 0.506582 0.003642
C4    C     C_R   0.259622 0.499280 0.500335 0.566021
C5    C     C_R   0.532953 0.067568 0.381422 0.041350
C6    C     C_R   0.501529 0.940103 0.378791 -0.144092
C7    C     C_R   0.479007 0.872153 0.501463 -0.028732
C8    C     C_R   0.704102 0.648948 0.131009 0.320615
C9    C     C_R   0.811566 0.684886 0.046350 0.072372
C10   C     C_R   0.797516 0.687938 0.906121 -0.151202
C11   C     C_R   0.684843 0.645974 0.847904 -0.096441
C12   C     C_3   0.959936 0.502707 0.366543 -0.073714
C13   C     C_R   0.592746 0.572054 0.922717 0.056277
C14   C     C_R   0.597604 0.571452 0.071697 0.094105
C15   C     C_R   0.407353 0.434111 0.074549 0.394365
C16   C     C_R   0.489017 0.736681 0.499811 0.525671
C17   C     C_R   0.411304 0.429325 0.926402 0.420119
C18   C     C_R   0.740194 0.499709 0.499522 0.570627
C19   C     C_3   0.037909 0.496554 0.630352 0.106981
C20   C     C_3   0.946313 0.395562 0.562646 -0.102978
C21   C     C_3   0.876919 0.498537 0.496953 -0.018598
C22   C     C_3   0.966908 0.599357 0.564731 -0.140541
C23   C     C_3   0.030555 0.401803 0.434383 0.266500
C24   C     C_3   0.052904 0.602858 0.436000 -0.161639
C25   C     C_3   0.293032 0.262731 0.172371 -0.020553
C26   C     C_3   0.759536 0.811653 0.286991 -0.114232
C27   C     C_3   0.330083 0.236820 0.849886 -0.067829
C28   C     C_3   0.967083 0.228139 0.307940 -0.101195
C29   C     C_3   0.819796 0.994530 0.893261 -0.096618
C30   C     C_3   0.122542 0.500039 0.501993 0.051678
C31   C     C_R   0.603304 0.098179 0.754849 0.087111
C32   C     C_R   0.609852 0.009912 0.862102 0.316422
C33   C     C_R   0.518961 0.908783 0.870177 -0.113398
C34   C     C_R   0.448268 0.875976 0.754122 -0.153023
C35   C     C_R   0.480955 0.936573 0.627899 -0.024318
Cu1   Cu    Cu3+1 0.499990 0.499990 0.640660 1.010683
Cu2   Cu    Cu3+1 0.500010 0.500010 0.359340 1.072048
H1    H     H_    0.909519 0.305053 0.607508 0.146181
H2    H     H_    0.371153 0.216063 0.128739 0.094035
H3    H     H_    0.203188 0.215482 0.133413 0.137480
H4    H     H_    0.292012 0.248674 0.285600 0.192980
H5    H     H_    0.714128 0.852582 0.374648 0.130744
H6    H     H_    0.856305 0.806815 0.325313 0.146245
H7    H     H_    0.754628 0.875008 0.196465 0.171063
H8    H     H_    0.319881 0.206150 0.741564 0.158589
H9    H     H_    0.252664 0.182597 0.906721 0.110814
H10   H     H_    0.421881 0.212013 0.890133 0.114971
H11   H     H_    0.929636 0.280174 0.220335 0.176840
H12   H     H_    0.512119 0.848929 0.960664 0.139735
H13   H     H_    0.891464 0.199840 0.384165 0.128176
H14   H     H_    0.998750 0.142060 0.265931 0.142598
H15   H     H_    0.873701 0.081668 0.857180 0.164256
H16   H     H_    0.806167 0.929232 0.805433 0.087655
H17   H     H_    0.879296 0.953824 0.971159 0.161167
H18   H     H_    0.381570 0.793745 0.759501 0.173868
H19   H     H_    0.506558 0.893179 0.281373 0.170507
H20   H     H_    0.873604 0.728300 0.841161 0.139901
H21   H     H_    0.676492 0.669299 0.741943 0.189783
H22   H     H_    0.938345 0.682435 0.616540 0.115423
H23   H     H_    0.100927 0.688672 0.388821 0.158876
H24   H     H_    0.924698 0.501846 0.258967 0.180858
I1    I     I_    0.999764 0.746022 0.108522 -0.479189
I2    I     I_    0.072432 0.497136 0.846287 -0.239514
I3    I     I_    0.619211 0.151453 0.202488 -0.405375
I4    I     I_    0.711673 0.269150 0.796753 -0.329154
N1    N     N_R   0.501210 0.501210 0.147910 -0.247710
N2    N     N_R   0.501250 0.501290 0.852040 -0.248363
O1    O     O_R   0.499990 0.319640 0.618810 -0.485381
O2    O     O_3   0.699291 0.691206 0.264769 -0.519762
O3    O     O_3   0.313886 0.364215 0.855581 -0.502242
O4    O     O_3   0.070910 0.297569 0.369254 -0.574242
O5    O     O_3   0.706310 0.018561 0.957517 -0.533529
O6    O     O_R   0.500000 0.319660 0.381240 -0.491607
O7    O     O_R   0.316850 0.499960 0.618770 -0.454880
O8    O     O_R   0.316860 0.499980 0.381190 -0.443899
O9    O     O_R   0.500000 0.680340 0.618760 -0.547947
O10   O     O_R   0.500010 0.680360 0.381190 -0.453736
O11   O     O_R   0.683140 0.500020 0.618810 -0.503464
O12   O     O_R   0.683150 0.500040 0.381230 -0.444179
O13   O     O_3   0.296944 0.390462 0.141374 -0.495920

loop_
_geom_bond_atom_site_label_1
_geom_bond_atom_site_label_2
_ccdc_geom_bond_type
C2    C35   A    
C18   C21   S    
C19   C20   S    
Cu1   N2    S    
C26   H7    S    
C32   O5    S    
Cu2   O12   S    
C12   C23   S    
C8    O2    S    
Cu1   Cu2   S    
C34   C35   A    
C25   H3    S    
C5    C6    A    
C28   H14   S    
C29   H17   S    
C33   H12   S    
C25   O13   S    
C1    O1    A    
C31   I4    S    
C16   O10   A    
C4    O8    A    
Cu1   O9    S    
C28   H13   S    
C15   O13   S    
C19   I2    S    
C18   O12   A    
C11   H21   S    
C9    C10   A    
C4    O7    A    
C18   O11   A    
C29   O5    S    
C27   H8    S    
Cu2   O8    S    
C17   O3    S    
C13   C14   A    
C26   H6    S    
C17   N2    A    
C9    I1    S    
C23   C30   S    
C23   O4    S    
C19   C22   S    
C25   H4    S    
C22   H22   S    
C8    C9    A    
C15   N1    A    
Cu2   O10   S    
C12   C21   S    
C5    I3    S    
C2    C31   A    
C1    C3    S    
C20   H1    S    
C31   C32   A    
C20   C23   S    
C24   H23   S    
Cu2   N1    S    
C10   H20   S    
C33   C34   A    
C14   N1    A    
C27   O3    S    
Cu1   O7    S    
C27   H9    S    
C7    C16   S    
C22   C24   S    
C28   O4    S    
C26   H5    S    
C13   N2    A    
C27   H10   S    
C15   C17   A    
Cu2   O6    S    
C28   H11   S    
C8    C14   A    
C16   O9    A    
C7    C35   A    
C6    H19   S    
C3    C5    A    
Cu1   O1    S    
C6    C7    A    
C12   C24   S    
C1    O6    A    
C32   C33   A    
C2    C3    A    
Cu1   O11   S    
C25   H2    S    
C12   H24   S    
C11   C13   A    
C29   H16   S    
C24   C30   S    
C10   C11   A    
C34   H18   S    
C20   C21   S    
C26   O2    S    
C21   C22   S    
C19   C30   S    
C4    C30   S    
C29   H15   S    
