data_mof_unit_12715.cif
_audit_creation_date              2012-12-10T18:56:23-0500
_audit_creation_method            fapswitch 2.2
_symmetry_space_group_name_H-M    P1
_symmetry_Int_Tables_number       1
_space_group_crystal_system       triclinic
_cell_length_a                    10.767727
_cell_length_b                    9.829467
_cell_length_c                    19.16163
_cell_angle_alpha                 91.26447
_cell_angle_beta                  90.290123
_cell_angle_gamma                 90.874924
_cell_volume                      2027.32656197

loop_
_atom_site_label
_atom_site_type_symbol
_atom_type_description
_atom_site_fract_x
_atom_site_fract_y
_atom_site_fract_z
_atom_type_partial_charge
C1    C     C_R   0.873120 0.502095 0.498880 -0.192964
C2    C     C_R   0.127763 0.495136 0.503459 -0.191073
C3    C     C_R   0.538765 0.625237 0.970441 0.120415
C4    C     C_R   0.607713 0.380980 0.033960 0.120698
C5    C     C_R   0.561397 0.623991 0.042641 0.150623
C6    C     C_R   0.603399 0.387314 0.960998 0.158670
C7    C     C_R   0.587186 0.499751 0.074390 -0.104104
C8    C     C_R   0.561720 0.506993 0.929646 -0.080388
C9    C     C_R   0.260134 0.498659 0.500642 0.954833
C10   C     C_R   0.740159 0.500961 0.499510 0.945042
C11   C     C_R   0.500679 0.498803 0.365730 0.839019
C12   C     C_R   0.499720 0.501550 0.634452 0.839096
C13   C     C_R   0.062544 0.389607 0.467623 0.109680
C14   C     C_R   0.938682 0.607171 0.535175 0.106939
C15   C     C_R   0.934028 0.393611 0.464715 0.128582
C16   C     C_R   0.067202 0.599646 0.540566 0.127578
C17   C     C_R   0.455698 0.401176 0.748969 -0.213590
C18   C     C_R   0.628749 0.561652 0.266210 -0.214105
C19   C     C_R   0.439878 0.428002 0.246107 -0.230846
C20   C     C_R   0.571961 0.614088 0.743248 -0.226094
C21   C     C_R   0.469944 0.403690 0.821061 -0.143094
C22   C     C_R   0.655373 0.554007 0.195585 -0.131149
C23   C     C_R   0.462446 0.428016 0.174874 -0.150346
C24   C     C_R   0.592253 0.612619 0.814558 -0.140201
C25   C     C_R   0.540952 0.507776 0.853947 0.199234
C26   C     C_R   0.570555 0.490497 0.149602 0.181303
C27   C     C_R   0.422460 0.072542 0.542952 -0.071967
C28   C     C_R   0.577541 0.927450 0.457059 -0.066977
C29   C     C_R   0.577404 0.071403 0.456997 -0.075901
C30   C     C_R   0.422538 0.928564 0.542995 -0.077018
C31   C     C_R   0.507459 0.506190 0.709956 -0.023558
C32   C     C_R   0.522007 0.496945 0.291534 -0.000808
H1    H     H_    0.360486 0.127624 0.577256 0.123341
H2    H     H_    0.639521 0.872374 0.422754 0.125689
H3    H     H_    0.639030 0.125510 0.422545 0.143137
H4    H     H_    0.360770 0.874390 0.577401 0.141950
H5    H     H_    0.403913 0.318277 0.723786 0.142098
H6    H     H_    0.692662 0.615456 0.301302 0.127814
H7    H     H_    0.357027 0.378407 0.265316 0.132499
H8    H     H_    0.610049 0.697339 0.713921 0.154244
H9    H     H_    0.427323 0.323595 0.851094 0.135177
H10   H     H_    0.740687 0.599095 0.176918 0.126971
H11   H     H_    0.394982 0.381302 0.139376 0.139185
H12   H     H_    0.648359 0.692977 0.838928 0.141265
N1    N     N_R   0.500000 0.857200 0.500000 -0.076868
N2    N     N_R   0.500000 0.142800 0.500000 -0.077104
O1    O     O_R   0.316770 0.614620 0.500000 -0.600004
O2    O     O_R   0.683230 0.385380 0.500000 -0.596505
O3    O     O_R   0.683230 0.614620 0.500000 -0.601800
O4    O     O_R   0.316770 0.385380 0.500000 -0.604401
O5    O     O_R   0.500030 0.614710 0.398180 -0.620319
O6    O     O_R   0.499970 0.385290 0.601820 -0.623615
O7    O     O_R   0.499970 0.614710 0.601820 -0.614233
O8    O     O_R   0.500030 0.385290 0.398180 -0.615839
Zn1   Zn    Zn3+2 0.500000 0.653120 0.500000 0.958025
Zn2   Zn    Zn3+2 0.500000 0.346880 0.500000 0.955218
N3    N     N_2   0.126998 0.279896 0.434787 -0.273757
H13   H     H_    0.097385 0.182442 0.445490 0.210808
C33   C     C_3   0.169791 0.300215 0.364341 -0.759652
H14   H     H_    0.106803 0.246258 0.326607 0.219880
H15   H     H_    0.263825 0.256808 0.358992 0.250521
H16   H     H_    0.174923 0.410081 0.351766 0.222344
N4    N     N_2   0.874713 0.720715 0.564463 -0.276113
H17   H     H_    0.911237 0.814993 0.552809 0.208523
C34   C     C_3   0.836449 0.708339 0.636181 -0.750843
H18   H     H_    0.917496 0.718738 0.671798 0.225273
H19   H     H_    0.788794 0.608831 0.644043 0.236009
H20   H     H_    0.771294 0.791355 0.649183 0.229560
N5    N     N_2   0.865649 0.293217 0.424595 -0.281899
H21   H     H_    0.898707 0.195551 0.425031 0.213316
C35   C     C_3   0.828554 0.335550 0.355902 -0.759494
H22   H     H_    0.911157 0.355005 0.323028 0.233133
H23   H     H_    0.773730 0.429487 0.360098 0.229548
H24   H     H_    0.769833 0.254870 0.330363 0.227499
N6    N     N_2   0.136137 0.692631 0.585033 -0.287152
H25   H     H_    0.100605 0.788562 0.591838 0.216101
C36   C     C_3   0.180508 0.635998 0.649599 -0.761495
H26   H     H_    0.101453 0.606853 0.683296 0.226638
H27   H     H_    0.239594 0.712649 0.678037 0.230737
H28   H     H_    0.237057 0.544494 0.639288 0.227057
N7    N     N_2   0.488589 0.742659 0.938813 -0.309270
H29   H     H_    0.520778 0.834939 0.958513 0.224863
C37   C     C_3   0.355092 0.738250 0.929938 -0.801415
H30   H     H_    0.325133 0.829403 0.901481 0.237248
H31   H     H_    0.308749 0.737516 0.981613 0.228434
H32   H     H_    0.325685 0.646325 0.899008 0.254712
N8    N     N_2   0.631230 0.254610 0.066286 -0.298110
H33   H     H_    0.683096 0.260917 0.111684 0.232191
C38   C     C_3   0.525254 0.161945 0.069642 -0.843782
H34   H     H_    0.504559 0.138053 0.124828 0.243791
H35   H     H_    0.546528 0.066311 0.040980 0.244541
H36   H     H_    0.440478 0.204863 0.045653 0.237640
N9    N     N_2   0.549240 0.744386 0.084705 -0.291300
H37   H     H_    0.470280 0.799030 0.075030 0.230572
C39   C     C_3   0.660558 0.828999 0.088372 -0.816201
H38   H     H_    0.649121 0.910101 0.128950 0.252153
H39   H     H_    0.678995 0.876525 0.037407 0.226147
H40   H     H_    0.742869 0.768649 0.102061 0.240638
N10   N     N_2   0.640780 0.273998 0.918656 -0.300336
H41   H     H_    0.622520 0.179552 0.938737 0.250495
C40   C     C_3   0.765648 0.285920 0.891807 -0.782986
H42   H     H_    0.784534 0.197845 0.856364 0.234326
H43   H     H_    0.834013 0.286786 0.935475 0.237140
H44   H     H_    0.776969 0.380514 0.861665 0.248506

loop_
_geom_bond_atom_site_label_1
_geom_bond_atom_site_label_2
_ccdc_geom_bond_type
N8    H33   S    
N4    C34   S    
N9    H37   S    
C16   N6    S    
C30   N1    A    
C39   H38   S    
N7    H29   S    
C39   H40   S    
C4    N8    S    
C36   H26   S    
C27   H1    S    
C40   H42   S    
C7    C26   S    
O1    Zn1   S    
C28   C29   A    
C20   H8    S    
N3    C33   S    
C13   N3    S    
C23   H11   S    
C23   C26   A    
N5    C35   S    
C2    C13   A    
C12   O6    A    
C20   C24   A    
C34   H19   S    
C3    N7    S    
C1    C15   A    
C38   H35   S    
C2    C16   A    
C12   O7    A    
O7    Zn1   S    
C28   H2    S    
C33   H14   S    
C40   H43   S    
C27   C30   A    
C8    C25   S    
C4    C7    A    
C19   C32   A    
N7    C37   S    
C36   H27   S    
C15   N5    S    
O8    Zn2   S    
C28   N1    A    
C33   H15   S    
C9    O4    A    
C24   C25   A    
C4    C6    A    
C3    C8    A    
C5    C7    A    
C6    C8    A    
O3    Zn1   S    
O4    Zn2   S    
C19   C23   A    
N6    H25   S    
C37   H30   S    
C34   H20   S    
C17   H5    S    
C38   H36   S    
N6    C36   S    
C11   O8    A    
C19   H7    S    
C21   H9    S    
C27   N2    A    
C37   H31   S    
C11   C32   S    
C9    O1    A    
C40   H44   S    
C13   C15   A    
C12   C31   S    
C10   O2    A    
C17   C31   A    
C14   C16   A    
C18   C32   A    
C35   H23   S    
C36   H28   S    
O2    Zn2   S    
C21   C25   A    
C33   H16   S    
N10   C40   S    
C18   C22   A    
C1    C10   S    
C3    C5    A    
C35   H24   S    
C5    N9    S    
C39   H39   S    
C29   H3    S    
N10   H41   S    
C30   H4    S    
C29   N2    A    
C6    N10   S    
N8    C38   S    
C18   H6    S    
C35   H22   S    
C10   O3    A    
N3    H13   S    
C22   H10   S    
C24   H12   S    
C14   N4    S    
O5    Zn1   S    
N5    H21   S    
C17   C21   A    
C11   O5    A    
N4    H17   S    
C37   H32   S    
N1    Zn1   S    
N9    C39   S    
C34   H18   S    
C22   C26   A    
N2    Zn2   S    
C1    C14   A    
C38   H34   S    
C2    C9    S    
O6    Zn2   S    
C20   C31   A    
