data_mof_unit_63193.cif
_audit_creation_date              2012-12-10T18:02:13-0500
_audit_creation_method            fapswitch 2.2
_symmetry_space_group_name_H-M    P1
_symmetry_Int_Tables_number       1
_space_group_crystal_system       triclinic
_cell_length_a                    21.535023
_cell_length_b                    21.535023
_cell_length_c                    39.625975
_cell_angle_alpha                 89.982888
_cell_angle_beta                  89.982888
_cell_angle_gamma                 89.615218
_cell_volume                      18376.4158003

loop_
_atom_site_label
_atom_site_type_symbol
_atom_type_description
_atom_site_fract_x
_atom_site_fract_y
_atom_site_fract_z
_atom_type_partial_charge
C1    C     C_R   0.500199 0.879855 0.999954 0.872812
C2    C     C_R   0.879854 0.500200 0.000043 0.872753
C3    C     C_R   0.499800 0.120145 0.999957 0.872753
C4    C     C_R   0.120145 0.499801 0.000046 0.872812
C5    C     C_R   0.000199 0.379855 0.499954 0.872813
C6    C     C_R   0.379854 0.000200 0.500043 0.872753
C7    C     C_R   0.999800 0.620145 0.499957 0.872753
C8    C     C_R   0.620145 0.999801 0.500046 0.872812
C9    C     C_R   0.500293 0.686399 0.000003 -0.204720
C10   C     C_R   0.686400 0.500268 0.999964 -0.204740
C11   C     C_R   0.499732 0.313600 0.000036 -0.204739
C12   C     C_R   0.313601 0.499707 0.999997 -0.204720
C13   C     C_R   0.000292 0.186398 0.500003 -0.204720
C14   C     C_R   0.186400 0.000268 0.499964 -0.204739
C15   C     C_R   0.999732 0.813600 0.500035 -0.204740
C16   C     C_R   0.813601 0.999707 0.499997 -0.204720
C17   C     C_R   0.500682 0.813363 0.999835 -0.207563
C18   C     C_R   0.813363 0.500690 0.000154 -0.207591
C19   C     C_R   0.499310 0.186637 0.999845 -0.207591
C20   C     C_R   0.186637 0.499318 0.000165 -0.207563
C21   C     C_R   0.000682 0.313363 0.499835 -0.207563
C22   C     C_R   0.313363 0.000690 0.500154 -0.207591
C23   C     C_R   0.999310 0.686637 0.499845 -0.207591
C24   C     C_R   0.686637 0.999318 0.500165 -0.207564
C25   C     C_R   0.379992 0.499987 0.999997 0.967803
C26   C     C_R   0.500013 0.620008 0.000003 0.967803
C27   C     C_R   0.620009 0.500005 0.999988 0.967802
C28   C     C_R   0.499994 0.379991 0.000012 0.967803
C29   C     C_R   0.879992 0.999987 0.499997 0.967803
C30   C     C_R   0.000013 0.120008 0.500003 0.967803
C31   C     C_R   0.120009 0.000005 0.499988 0.967802
C32   C     C_R   0.999994 0.879991 0.500012 0.967803
C33   C     C_R   0.500010 0.000006 0.932732 0.882355
C34   C     C_R   0.000012 0.500015 0.932725 0.882926
C35   C     C_R   0.499985 0.999988 0.067275 0.882925
C36   C     C_R   0.999994 0.499990 0.067267 0.882354
C37   C     C_R   0.000010 0.500006 0.432732 0.882354
C38   C     C_R   0.500012 0.000015 0.432725 0.882926
C39   C     C_R   0.999985 0.499988 0.567275 0.882925
C40   C     C_R   0.499994 0.999990 0.567268 0.882354
C41   C     C_R   0.548016 0.967176 0.877807 0.110586
C42   C     C_R   0.966858 0.452660 0.877824 0.110293
C43   C     C_R   0.452084 0.032940 0.877814 0.110584
C44   C     C_R   0.032918 0.547507 0.877769 0.110252
C45   C     C_R   0.452493 0.967082 0.122231 0.110252
C46   C     C_R   0.032824 0.451984 0.122193 0.110587
C47   C     C_R   0.547340 0.033142 0.122176 0.110293
C48   C     C_R   0.967060 0.547916 0.122186 0.110584
C49   C     C_R   0.048016 0.467176 0.377807 0.110587
C50   C     C_R   0.466858 0.952660 0.377824 0.110293
C51   C     C_R   0.952084 0.532940 0.377814 0.110584
C52   C     C_R   0.532918 0.047507 0.377769 0.110252
C53   C     C_R   0.952493 0.467082 0.622231 0.110252
C54   C     C_R   0.532824 0.951984 0.622193 0.110586
C55   C     C_R   0.047340 0.533142 0.622176 0.110293
C56   C     C_R   0.467060 0.047916 0.622186 0.110584
C57   C     C_R   0.550178 0.968449 0.841856 0.099985
C58   C     C_R   0.967989 0.450569 0.841864 0.099979
C59   C     C_R   0.449957 0.031719 0.841863 0.099958
C60   C     C_R   0.031747 0.549600 0.841813 0.100057
C61   C     C_R   0.450400 0.968253 0.158187 0.100057
C62   C     C_R   0.031551 0.449822 0.158144 0.099985
C63   C     C_R   0.549431 0.032011 0.158136 0.099979
C64   C     C_R   0.968281 0.550043 0.158137 0.099958
C65   C     C_R   0.050178 0.468449 0.341855 0.099985
C66   C     C_R   0.467989 0.950569 0.341864 0.099979
C67   C     C_R   0.949957 0.531719 0.341863 0.099958
C68   C     C_R   0.531747 0.049600 0.341813 0.100057
C69   C     C_R   0.950400 0.468253 0.658187 0.100057
C70   C     C_R   0.531551 0.949822 0.658144 0.099985
C71   C     C_R   0.049431 0.532011 0.658136 0.099979
C72   C     C_R   0.468281 0.050043 0.658137 0.099958
C73   C     C_R   0.500056 0.000068 0.823537 -0.138039
C74   C     C_R   0.999987 0.499992 0.823523 -0.137885
C75   C     C_R   0.500008 0.000013 0.176477 -0.137885
C76   C     C_R   0.999931 0.499944 0.176463 -0.138038
C77   C     C_R   0.000056 0.500068 0.323537 -0.138038
C78   C     C_R   0.499987 0.999992 0.323523 -0.137884
C79   C     C_R   0.000008 0.500013 0.676477 -0.137884
C80   C     C_R   0.499931 0.999944 0.676463 -0.138039
C81   C     C_R   0.500036 0.000039 0.895224 -0.212675
C82   C     C_R   0.999938 0.500054 0.895206 -0.212227
C83   C     C_R   0.499945 0.000062 0.104794 -0.212227
C84   C     C_R   0.999961 0.499964 0.104776 -0.212675
C85   C     C_R   0.000036 0.500039 0.395224 -0.212675
C86   C     C_R   0.499938 0.000054 0.395206 -0.212227
C87   C     C_R   0.999945 0.500062 0.604794 -0.212227
C88   C     C_R   0.499961 0.999964 0.604776 -0.212675
C89   C     C_R   0.499964 0.999973 0.715245 0.316606
C90   C     C_R   0.000179 0.499827 0.715247 0.316812
C91   C     C_R   0.500173 0.999821 0.284753 0.316811
C92   C     C_R   0.000027 0.500036 0.284755 0.316607
C93   C     C_R   0.999964 0.499973 0.215245 0.316606
C94   C     C_R   0.500179 0.999827 0.215247 0.316812
C95   C     C_R   0.000173 0.499821 0.784753 0.316812
C96   C     C_R   0.500027 0.000036 0.784755 0.316607
C97   C     C_R   0.537137 0.781846 0.024746 0.081241
C98   C     C_R   0.782215 0.464500 0.025126 0.083444
C99   C     C_R   0.462849 0.218115 0.024774 0.081114
C100  C     C_R   0.217750 0.535494 0.025132 0.083423
C101  C     C_R   0.464506 0.782250 0.974867 0.083423
C102  C     C_R   0.218154 0.462863 0.975253 0.081241
C103  C     C_R   0.535500 0.217785 0.974874 0.083444
C104  C     C_R   0.781885 0.537151 0.975226 0.081114
C105  C     C_R   0.037137 0.281846 0.524746 0.081241
C106  C     C_R   0.282215 0.964500 0.525126 0.083444
C107  C     C_R   0.962849 0.718114 0.524774 0.081114
C108  C     C_R   0.717750 0.035494 0.525133 0.083423
C109  C     C_R   0.964506 0.282250 0.474867 0.083423
C110  C     C_R   0.718154 0.962863 0.475254 0.081241
C111  C     C_R   0.035500 0.717785 0.474874 0.083444
C112  C     C_R   0.281885 0.037151 0.475226 0.081114
C113  C     C_R   0.542854 0.717388 0.021252 0.173592
C114  C     C_R   0.718080 0.458087 0.021331 0.171585
C115  C     C_R   0.457173 0.282590 0.021306 0.173712
C116  C     C_R   0.281895 0.541899 0.021347 0.171601
C117  C     C_R   0.458101 0.718105 0.978653 0.171601
C118  C     C_R   0.282611 0.457146 0.978747 0.173592
C119  C     C_R   0.541913 0.281920 0.978669 0.171585
C120  C     C_R   0.717410 0.542827 0.978694 0.173712
C121  C     C_R   0.042854 0.217388 0.521252 0.173592
C122  C     C_R   0.218080 0.958086 0.521331 0.171585
C123  C     C_R   0.957173 0.782590 0.521305 0.173712
C124  C     C_R   0.781895 0.041899 0.521347 0.171600
C125  C     C_R   0.958101 0.218105 0.478653 0.171600
C126  C     C_R   0.782612 0.957146 0.478748 0.173592
C127  C     C_R   0.041913 0.781920 0.478669 0.171585
C128  C     C_R   0.217410 0.042827 0.478694 0.173712
N1    N     N_R   0.462822 0.038286 0.766666 -0.203814
N2    N     N_R   0.038248 0.536680 0.766670 -0.203788
N3    N     N_R   0.537201 0.961751 0.766666 -0.203777
N4    N     N_R   0.962251 0.462839 0.766659 -0.203936
N5    N     N_R   0.537161 0.037748 0.233341 -0.203936
N6    N     N_R   0.961714 0.537177 0.233333 -0.203814
N7    N     N_R   0.463319 0.961752 0.233330 -0.203788
N8    N     N_R   0.038249 0.462799 0.233333 -0.203777
N9    N     N_R   0.962822 0.538286 0.266666 -0.203814
N10   N     N_R   0.538248 0.036680 0.266670 -0.203788
N11   N     N_R   0.037201 0.461751 0.266666 -0.203777
N12   N     N_R   0.462251 0.962839 0.266659 -0.203936
N13   N     N_R   0.037161 0.537748 0.733340 -0.203936
N14   N     N_R   0.461714 0.037177 0.733333 -0.203814
N15   N     N_R   0.963319 0.461752 0.733330 -0.203788
N16   N     N_R   0.538249 0.962799 0.733333 -0.203777
O1    O     O_R   0.448370 0.908480 0.999910 -0.630484
O2    O     O_R   0.908480 0.551630 0.999910 -0.631726
O3    O     O_R   0.551630 0.091520 0.999910 -0.630498
O4    O     O_R   0.091520 0.448370 0.999910 -0.631723
O5    O     O_R   0.551630 0.908480 0.000090 -0.631723
O6    O     O_R   0.091520 0.551630 0.000090 -0.630484
O7    O     O_R   0.448370 0.091520 0.000090 -0.631726
O8    O     O_R   0.908480 0.448370 0.000090 -0.630498
O9    O     O_R   0.948370 0.408480 0.499910 -0.630484
O10   O     O_R   0.408480 0.051630 0.499910 -0.631726
O11   O     O_R   0.051630 0.591520 0.499910 -0.630498
O12   O     O_R   0.591520 0.948370 0.499910 -0.631723
O13   O     O_R   0.051630 0.408480 0.500090 -0.631723
O14   O     O_R   0.591520 0.051630 0.500090 -0.630484
O15   O     O_R   0.948370 0.591520 0.500090 -0.631726
O16   O     O_R   0.408480 0.948370 0.500090 -0.630498
O17   O     O_R   0.448370 0.000090 0.948970 -0.623946
O18   O     O_R   0.000090 0.551630 0.948970 -0.623627
O19   O     O_R   0.551630 0.999910 0.948970 -0.623926
O20   O     O_R   0.999910 0.448370 0.948970 -0.623643
O21   O     O_R   0.551630 0.000090 0.051030 -0.623643
O22   O     O_R   0.999910 0.551630 0.051030 -0.623946
O23   O     O_R   0.448370 0.999910 0.051030 -0.623627
O24   O     O_R   0.000090 0.448370 0.051030 -0.623926
O25   O     O_R   0.948370 0.500090 0.448970 -0.623945
O26   O     O_R   0.500090 0.051630 0.448970 -0.623627
O27   O     O_R   0.051630 0.499910 0.448970 -0.623926
O28   O     O_R   0.499910 0.948370 0.448970 -0.623643
O29   O     O_R   0.051630 0.500090 0.551030 -0.623643
O30   O     O_R   0.499910 0.051630 0.551030 -0.623946
O31   O     O_R   0.948370 0.499910 0.551030 -0.623627
O32   O     O_R   0.500090 0.948370 0.551030 -0.623926
O33   O     O_R   0.408360 0.500090 0.028640 -0.591109
O34   O     O_R   0.500090 0.591640 0.028640 -0.591644
O35   O     O_R   0.591640 0.499910 0.028640 -0.591114
O36   O     O_R   0.499910 0.408360 0.028640 -0.591630
O37   O     O_R   0.591640 0.500090 0.971360 -0.591630
O38   O     O_R   0.499910 0.591640 0.971360 -0.591109
O39   O     O_R   0.408360 0.499910 0.971360 -0.591644
O40   O     O_R   0.500090 0.408360 0.971360 -0.591114
O41   O     O_R   0.908360 0.000090 0.528640 -0.591109
O42   O     O_R   0.000090 0.091640 0.528640 -0.591644
O43   O     O_R   0.091640 0.999910 0.528640 -0.591114
O44   O     O_R   0.999910 0.908360 0.528640 -0.591630
O45   O     O_R   0.091640 0.000090 0.471360 -0.591630
O46   O     O_R   0.999910 0.091640 0.471360 -0.591109
O47   O     O_R   0.908360 0.999910 0.471360 -0.591644
O48   O     O_R   0.000090 0.908360 0.471360 -0.591114
Zn1   Zn    Zn3+2 0.431020 0.000000 0.000000 0.901051
Zn2   Zn    Zn3+2 0.000000 0.568980 0.000000 0.901051
Zn3   Zn    Zn3+2 0.568980 0.000000 0.000000 0.901048
Zn4   Zn    Zn3+2 1.000000 0.431020 0.000000 0.901048
Zn5   Zn    Zn3+2 0.931020 0.500000 0.500000 0.901050
Zn6   Zn    Zn3+2 0.500000 0.068980 0.500000 0.901051
Zn7   Zn    Zn3+2 0.068980 0.500000 0.500000 0.901048
Zn8   Zn    Zn3+2 0.500000 0.931020 0.500000 0.901047
Zn9   Zn    Zn3+2 0.500000 0.500000 0.038290 1.063598
Zn10  Zn    Zn3+2 0.500000 0.500000 0.961710 1.063598
Zn11  Zn    Zn3+2 0.000000 0.000000 0.538290 1.063598
Zn12  Zn    Zn3+2 0.000000 0.000000 0.461710 1.063598
C129  C     C_3   0.594106 0.927629 0.898512 -0.274434
C130  C     C_3   0.653292 0.963364 0.909093 -0.780535
H1    H     H_    0.658527 0.007172 0.894518 0.249111
H2    H     H_    0.653215 0.974862 0.936436 0.262557
H3    H     H_    0.695202 0.933767 0.905928 0.218572
H4    H     H_    0.571918 0.907402 0.921188 0.181862
H5    H     H_    0.604545 0.883448 0.886239 0.194935
C131  C     C_3   0.927439 0.407084 0.898601 -0.275110
C132  C     C_3   0.963390 0.347535 0.909178 -0.779442
H6    H     H_    0.007401 0.342108 0.894729 0.248868
H7    H     H_    0.974545 0.347236 0.936568 0.262539
H8    H     H_    0.934084 0.305934 0.905856 0.218411
H9    H     H_    0.907267 0.429621 0.921245 0.181498
H10   H     H_    0.883190 0.397116 0.886468 0.195459
C133  C     C_3   0.405967 0.072443 0.898530 -0.274382
C134  C     C_3   0.346768 0.036688 0.909102 -0.780538
H11   H     H_    0.341563 0.992899 0.894526 0.249143
H12   H     H_    0.346811 0.025166 0.936446 0.262563
H13   H     H_    0.304855 0.066278 0.905938 0.218506
H14   H     H_    0.428132 0.092634 0.921206 0.181834
H15   H     H_    0.395545 0.116660 0.886284 0.194943
C135  C     C_3   0.072427 0.593061 0.898470 -0.275552
C136  C     C_3   0.036494 0.652565 0.909129 -0.779542
H16   H     H_    0.992437 0.658038 0.894738 0.248796
H17   H     H_    0.025421 0.652789 0.936533 0.262568
H18   H     H_    0.065810 0.694162 0.905780 0.218660
H19   H     H_    0.092715 0.570502 0.921084 0.181576
H20   H     H_    0.116541 0.603105 0.886174 0.195591
C137  C     C_3   0.406939 0.927573 0.101530 -0.275552
C138  C     C_3   0.347435 0.963506 0.090871 -0.779542
H21   H     H_    0.341961 0.007563 0.105261 0.248796
H22   H     H_    0.347211 0.974579 0.063467 0.262568
H23   H     H_    0.305838 0.934190 0.094220 0.218660
H24   H     H_    0.429498 0.907285 0.078916 0.181575
H25   H     H_    0.396894 0.883459 0.113826 0.195591
C139  C     C_3   0.072371 0.405894 0.101488 -0.274434
C140  C     C_3   0.036635 0.346708 0.090907 -0.780535
H26   H     H_    0.992828 0.341473 0.105482 0.249111
H27   H     H_    0.025138 0.346785 0.063564 0.262556
H28   H     H_    0.066233 0.304798 0.094072 0.218572
H29   H     H_    0.092598 0.428082 0.078812 0.181862
H30   H     H_    0.116552 0.395455 0.113760 0.194936
C141  C     C_3   0.592916 0.072561 0.101399 -0.275110
C142  C     C_3   0.652465 0.036610 0.090822 -0.779442
H31   H     H_    0.657892 0.992599 0.105271 0.248868
H32   H     H_    0.652764 0.025455 0.063432 0.262539
H33   H     H_    0.694066 0.065916 0.094144 0.218411
H34   H     H_    0.570378 0.092733 0.078755 0.181497
H35   H     H_    0.602884 0.116810 0.113532 0.195459
C143  C     C_3   0.927556 0.594033 0.101470 -0.274382
C144  C     C_3   0.963312 0.653232 0.090898 -0.780538
H36   H     H_    0.007101 0.658437 0.105474 0.249143
H37   H     H_    0.974834 0.653189 0.063554 0.262563
H38   H     H_    0.933722 0.695145 0.094062 0.218506
H39   H     H_    0.907366 0.571867 0.078794 0.181834
H40   H     H_    0.883340 0.604455 0.113716 0.194943
C145  C     C_3   0.094106 0.427629 0.398512 -0.274434
C146  C     C_3   0.153292 0.463364 0.409093 -0.780535
H41   H     H_    0.158527 0.507172 0.394518 0.249111
H42   H     H_    0.153215 0.474862 0.436436 0.262557
H43   H     H_    0.195202 0.433767 0.405928 0.218572
H44   H     H_    0.071918 0.407402 0.421188 0.181862
H45   H     H_    0.104545 0.383448 0.386239 0.194935
C147  C     C_3   0.427439 0.907084 0.398601 -0.275110
C148  C     C_3   0.463390 0.847535 0.409178 -0.779442
H46   H     H_    0.507401 0.842108 0.394729 0.248868
H47   H     H_    0.474545 0.847236 0.436568 0.262539
H48   H     H_    0.434084 0.805934 0.405856 0.218411
H49   H     H_    0.407267 0.929622 0.421245 0.181498
H50   H     H_    0.383190 0.897116 0.386468 0.195459
C149  C     C_3   0.905967 0.572443 0.398530 -0.274382
C150  C     C_3   0.846768 0.536688 0.409102 -0.780538
H51   H     H_    0.841563 0.492899 0.394526 0.249143
H52   H     H_    0.846811 0.525166 0.436446 0.262563
H53   H     H_    0.804855 0.566278 0.405938 0.218506
H54   H     H_    0.928132 0.592634 0.421206 0.181834
H55   H     H_    0.895545 0.616660 0.386284 0.194943
C151  C     C_3   0.572427 0.093061 0.398470 -0.275552
C152  C     C_3   0.536494 0.152565 0.409129 -0.779542
H56   H     H_    0.492436 0.158038 0.394738 0.248796
H57   H     H_    0.525421 0.152789 0.436533 0.262568
H58   H     H_    0.565810 0.194162 0.405780 0.218660
H59   H     H_    0.592715 0.070502 0.421084 0.181575
H60   H     H_    0.616541 0.103105 0.386174 0.195591
C153  C     C_3   0.906939 0.427573 0.601530 -0.275552
C154  C     C_3   0.847435 0.463506 0.590871 -0.779542
H61   H     H_    0.841961 0.507563 0.605261 0.248796
H62   H     H_    0.847211 0.474579 0.563467 0.262568
H63   H     H_    0.805838 0.434190 0.594220 0.218660
H64   H     H_    0.929498 0.407285 0.578916 0.181576
H65   H     H_    0.896895 0.383459 0.613826 0.195591
C155  C     C_3   0.572371 0.905894 0.601488 -0.274434
C156  C     C_3   0.536635 0.846708 0.590907 -0.780535
H66   H     H_    0.492828 0.841473 0.605482 0.249111
H67   H     H_    0.525138 0.846785 0.563564 0.262556
H68   H     H_    0.566233 0.804798 0.594072 0.218572
H69   H     H_    0.592598 0.928082 0.578812 0.181862
H70   H     H_    0.616552 0.895455 0.613761 0.194936
C157  C     C_3   0.092916 0.572561 0.601399 -0.275110
C158  C     C_3   0.152465 0.536610 0.590822 -0.779442
H71   H     H_    0.157892 0.492599 0.605271 0.248868
H72   H     H_    0.152764 0.525455 0.563432 0.262539
H73   H     H_    0.194066 0.565916 0.594144 0.218411
H74   H     H_    0.070378 0.592733 0.578754 0.181497
H75   H     H_    0.102884 0.616810 0.613532 0.195459
C159  C     C_3   0.427556 0.094033 0.601470 -0.274382
C160  C     C_3   0.463312 0.153232 0.590897 -0.780538
H76   H     H_    0.507101 0.158437 0.605474 0.249143
H77   H     H_    0.474834 0.153189 0.563554 0.262563
H78   H     H_    0.433722 0.195145 0.594062 0.218506
H79   H     H_    0.407366 0.071868 0.578794 0.181834
H80   H     H_    0.383340 0.104455 0.613716 0.194943
C161  C     C_3   0.603417 0.936915 0.821042 -0.343178
C162  C     C_3   0.661472 0.902858 0.833839 -0.901315
H81   H     H_    0.689440 0.931186 0.851124 0.281420
H82   H     H_    0.651550 0.855283 0.843588 0.251349
H83   H     H_    0.692573 0.894401 0.811756 0.244161
H84   H     H_    0.581428 0.899484 0.806435 0.231050
H85   H     H_    0.622941 0.973521 0.804678 0.225102
C163  C     C_3   0.935949 0.398099 0.821086 -0.343491
C164  C     C_3   0.901271 0.340907 0.833892 -0.903589
H86   H     H_    0.929286 0.312471 0.851289 0.281957
H87   H     H_    0.853758 0.352116 0.843540 0.251902
H88   H     H_    0.892678 0.309911 0.811877 0.245080
H89   H     H_    0.898773 0.421054 0.806438 0.231191
H90   H     H_    0.972485 0.377533 0.804849 0.225873
C165  C     C_3   0.396773 0.063331 0.821058 -0.343188
C166  C     C_3   0.338804 0.097535 0.833854 -0.901653
H91   H     H_    0.310770 0.069269 0.851158 0.281502
H92   H     H_    0.348862 0.145083 0.843577 0.251418
H93   H     H_    0.307729 0.106059 0.811776 0.244261
H94   H     H_    0.418841 0.100717 0.806423 0.231098
H95   H     H_    0.377159 0.026737 0.804735 0.225202
C167  C     C_3   0.063512 0.602256 0.820985 -0.343467
C168  C     C_3   0.097463 0.659904 0.833755 -0.902548
H96   H     H_    0.069111 0.688079 0.851107 0.281700
H97   H     H_    0.145086 0.649372 0.843458 0.251666
H98   H     H_    0.105753 0.690963 0.811703 0.244697
H99   H     H_    0.100977 0.579604 0.806433 0.231076
H100  H     H_    0.026960 0.622366 0.804609 0.225577
C169  C     C_3   0.397744 0.936488 0.179015 -0.343467
C170  C     C_3   0.340096 0.902537 0.166245 -0.902548
H101  H     H_    0.311921 0.930889 0.148893 0.281700
H102  H     H_    0.350628 0.854913 0.156542 0.251666
H103  H     H_    0.309037 0.894247 0.188297 0.244697
H104  H     H_    0.420396 0.899022 0.193567 0.231076
H105  H     H_    0.377634 0.973040 0.195391 0.225577
C171  C     C_3   0.063085 0.396582 0.178958 -0.343178
C172  C     C_3   0.097142 0.338527 0.166161 -0.901315
H106  H     H_    0.068814 0.310559 0.148876 0.281420
H107  H     H_    0.144717 0.348450 0.156412 0.251349
H108  H     H_    0.105598 0.307426 0.188244 0.244161
H109  H     H_    0.100516 0.418572 0.193565 0.231050
H110  H     H_    0.026479 0.377059 0.195322 0.225102
C173  C     C_3   0.601901 0.064051 0.178914 -0.343491
C174  C     C_3   0.659092 0.098729 0.166108 -0.903589
H111  H     H_    0.687528 0.070714 0.148711 0.281957
H112  H     H_    0.647884 0.146242 0.156459 0.251902
H113  H     H_    0.690088 0.107322 0.188123 0.245080
H114  H     H_    0.578946 0.101227 0.193562 0.231191
H115  H     H_    0.622467 0.027515 0.195151 0.225873
C175  C     C_3   0.936669 0.603227 0.178942 -0.343187
C176  C     C_3   0.902465 0.661196 0.166146 -0.901653
H116  H     H_    0.930731 0.689230 0.148842 0.281502
H117  H     H_    0.854917 0.651138 0.156423 0.251418
H118  H     H_    0.893941 0.692271 0.188224 0.244261
H119  H     H_    0.899283 0.581159 0.193577 0.231099
H120  H     H_    0.973263 0.622840 0.195265 0.225202
C177  C     C_3   0.103417 0.436915 0.321042 -0.343178
C178  C     C_3   0.161472 0.402858 0.333839 -0.901315
H121  H     H_    0.189440 0.431186 0.351124 0.281420
H122  H     H_    0.151550 0.355283 0.343588 0.251349
H123  H     H_    0.192573 0.394401 0.311756 0.244161
H124  H     H_    0.081428 0.399484 0.306435 0.231050
H125  H     H_    0.122941 0.473521 0.304678 0.225102
C179  C     C_3   0.435949 0.898099 0.321086 -0.343491
C180  C     C_3   0.401271 0.840908 0.333892 -0.903589
H126  H     H_    0.429286 0.812471 0.351289 0.281957
H127  H     H_    0.353758 0.852116 0.343541 0.251902
H128  H     H_    0.392678 0.809911 0.311877 0.245080
H129  H     H_    0.398773 0.921054 0.306438 0.231191
H130  H     H_    0.472485 0.877533 0.304849 0.225873
C181  C     C_3   0.896773 0.563331 0.321058 -0.343188
C182  C     C_3   0.838804 0.597535 0.333854 -0.901653
H131  H     H_    0.810770 0.569269 0.351158 0.281502
H132  H     H_    0.848862 0.645083 0.343577 0.251418
H133  H     H_    0.807729 0.606059 0.311776 0.244261
H134  H     H_    0.918841 0.600717 0.306423 0.231098
H135  H     H_    0.877159 0.526737 0.304735 0.225202
C183  C     C_3   0.563512 0.102256 0.320985 -0.343467
C184  C     C_3   0.597463 0.159904 0.333755 -0.902548
H136  H     H_    0.569111 0.188079 0.351107 0.281700
H137  H     H_    0.645086 0.149372 0.343458 0.251666
H138  H     H_    0.605753 0.190963 0.311703 0.244697
H139  H     H_    0.600977 0.079604 0.306433 0.231076
H140  H     H_    0.526960 0.122366 0.304609 0.225577
C185  C     C_3   0.897743 0.436488 0.679015 -0.343467
C186  C     C_3   0.840096 0.402537 0.666245 -0.902548
H141  H     H_    0.811921 0.430889 0.648893 0.281700
H142  H     H_    0.850628 0.354913 0.656542 0.251666
H143  H     H_    0.809037 0.394247 0.688297 0.244697
H144  H     H_    0.920396 0.399022 0.693567 0.231076
H145  H     H_    0.877634 0.473040 0.695391 0.225577
C187  C     C_3   0.563085 0.896582 0.678958 -0.343178
C188  C     C_3   0.597142 0.838528 0.666161 -0.901315
H146  H     H_    0.568814 0.810559 0.648876 0.281419
H147  H     H_    0.644717 0.848450 0.656412 0.251349
H148  H     H_    0.605599 0.807427 0.688244 0.244161
H149  H     H_    0.600516 0.918572 0.693565 0.231050
H150  H     H_    0.526479 0.877059 0.695322 0.225101
C189  C     C_3   0.101901 0.564051 0.678914 -0.343491
C190  C     C_3   0.159092 0.598729 0.666108 -0.903589
H151  H     H_    0.187529 0.570714 0.648711 0.281957
H152  H     H_    0.147884 0.646242 0.656459 0.251902
H153  H     H_    0.190089 0.607322 0.688123 0.245080
H154  H     H_    0.078946 0.601227 0.693562 0.231191
H155  H     H_    0.122467 0.527515 0.695151 0.225873
C191  C     C_3   0.436669 0.103227 0.678942 -0.343188
C192  C     C_3   0.402465 0.161196 0.666146 -0.901653
H156  H     H_    0.430731 0.189230 0.648842 0.281502
H157  H     H_    0.354917 0.151138 0.656423 0.251418
H158  H     H_    0.393941 0.192271 0.688224 0.244261
H159  H     H_    0.399283 0.081159 0.693577 0.231098
H160  H     H_    0.473263 0.122840 0.695264 0.225202
C193  C     C_3   0.574292 0.820063 0.050760 -0.326528
C194  C     C_3   0.586939 0.795568 0.086657 -0.846196
H161  H     H_    0.543789 0.780601 0.099095 0.266642
H162  H     H_    0.621884 0.758351 0.087907 0.288307
H163  H     H_    0.607776 0.833985 0.101330 0.233979
H164  H     H_    0.618872 0.833502 0.039342 0.227318
H165  H     H_    0.548133 0.863348 0.056480 0.198081
C195  C     C_3   0.820404 0.428084 0.051622 -0.327488
C196  C     C_3   0.795754 0.418099 0.087709 -0.846827
H166  H     H_    0.780811 0.462338 0.099206 0.265920
H167  H     H_    0.758253 0.384135 0.089591 0.288670
H168  H     H_    0.834048 0.397741 0.102889 0.234898
H169  H     H_    0.833333 0.382502 0.040984 0.227561
H170  H     H_    0.864060 0.453354 0.056789 0.197945
C197  C     C_3   0.425651 0.179836 0.050775 -0.326500
C198  C     C_3   0.412904 0.204261 0.086674 -0.846130
H171  H     H_    0.456009 0.219256 0.099124 0.266718
H172  H     H_    0.377893 0.241421 0.087915 0.288263
H173  H     H_    0.392075 0.165791 0.101334 0.233937
H174  H     H_    0.381103 0.166392 0.039338 0.227317
H175  H     H_    0.451829 0.136558 0.056494 0.198090
C199  C     C_3   0.179519 0.571902 0.051613 -0.327498
C200  C     C_3   0.204124 0.581871 0.087697 -0.846914
H176  H     H_    0.219060 0.537626 0.099202 0.265937
H177  H     H_    0.241618 0.615836 0.089572 0.288689
H178  H     H_    0.165810 0.602224 0.102870 0.234915
H179  H     H_    0.166600 0.617484 0.040961 0.227576
H180  H     H_    0.135858 0.546624 0.056784 0.197986
C201  C     C_3   0.428098 0.820481 0.948387 -0.327498
C202  C     C_3   0.418129 0.795876 0.912303 -0.846913
H181  H     H_    0.462374 0.780940 0.900798 0.265937
H182  H     H_    0.384164 0.758382 0.910428 0.288689
H183  H     H_    0.397776 0.834190 0.897130 0.234915
H184  H     H_    0.382516 0.833400 0.959039 0.227576
H185  H     H_    0.453375 0.864142 0.943216 0.197986
C203  C     C_3   0.179936 0.425708 0.949240 -0.326528
C204  C     C_3   0.204432 0.413060 0.913342 -0.846196
H186  H     H_    0.219398 0.456211 0.900905 0.266642
H187  H     H_    0.241649 0.378116 0.912093 0.288307
H188  H     H_    0.166015 0.392224 0.898670 0.233979
H189  H     H_    0.166498 0.381128 0.960658 0.227318
H190  H     H_    0.136652 0.451867 0.943520 0.198081
C205  C     C_3   0.571916 0.179596 0.948378 -0.327488
C206  C     C_3   0.581901 0.204246 0.912291 -0.846827
H191  H     H_    0.537662 0.219189 0.900794 0.265920
H192  H     H_    0.615864 0.241747 0.910409 0.288670
H193  H     H_    0.602259 0.165952 0.897110 0.234898
H194  H     H_    0.617498 0.166667 0.959015 0.227561
H195  H     H_    0.546646 0.135939 0.943211 0.197945
C207  C     C_3   0.820164 0.574349 0.949225 -0.326499
C208  C     C_3   0.795739 0.587096 0.913326 -0.846131
H196  H     H_    0.780744 0.543991 0.900876 0.266718
H197  H     H_    0.758579 0.622107 0.912085 0.288263
H198  H     H_    0.834209 0.607925 0.898665 0.233937
H199  H     H_    0.833608 0.618896 0.960662 0.227317
H200  H     H_    0.863442 0.548171 0.943505 0.198090
C209  C     C_3   0.074292 0.320063 0.550760 -0.326528
C210  C     C_3   0.086939 0.295568 0.586658 -0.846196
H201  H     H_    0.043789 0.280602 0.599094 0.266642
H202  H     H_    0.121884 0.258351 0.587907 0.288307
H203  H     H_    0.107776 0.333985 0.601330 0.233979
H204  H     H_    0.118872 0.333502 0.539342 0.227318
H205  H     H_    0.048133 0.363348 0.556480 0.198081
C211  C     C_3   0.320404 0.928084 0.551622 -0.327487
C212  C     C_3   0.295754 0.918099 0.587709 -0.846827
H206  H     H_    0.280811 0.962338 0.599206 0.265920
H207  H     H_    0.258253 0.884135 0.589591 0.288670
H208  H     H_    0.334048 0.897741 0.602889 0.234898
H209  H     H_    0.333333 0.882502 0.540984 0.227561
H210  H     H_    0.364060 0.953354 0.556789 0.197945
C213  C     C_3   0.925651 0.679836 0.550774 -0.326499
C214  C     C_3   0.912904 0.704261 0.586674 -0.846131
H211  H     H_    0.956009 0.719256 0.599124 0.266718
H212  H     H_    0.877892 0.741421 0.587915 0.288263
H213  H     H_    0.892075 0.665791 0.601334 0.233937
H214  H     H_    0.881103 0.666392 0.539338 0.227317
H215  H     H_    0.951828 0.636558 0.556494 0.198090
C215  C     C_3   0.679519 0.071902 0.551613 -0.327498
C216  C     C_3   0.704124 0.081871 0.587697 -0.846913
H216  H     H_    0.719059 0.037626 0.599202 0.265937
H217  H     H_    0.741618 0.115836 0.589572 0.288689
H218  H     H_    0.665810 0.102224 0.602870 0.234915
H219  H     H_    0.666600 0.117484 0.540961 0.227576
H220  H     H_    0.635858 0.046625 0.556784 0.197986
C217  C     C_3   0.928098 0.320481 0.448387 -0.327498
C218  C     C_3   0.918128 0.295876 0.412303 -0.846914
H221  H     H_    0.962373 0.280940 0.400798 0.265937
H222  H     H_    0.884164 0.258382 0.410428 0.288689
H223  H     H_    0.897776 0.334190 0.397130 0.234916
H224  H     H_    0.882516 0.333400 0.459039 0.227576
H225  H     H_    0.953375 0.364142 0.443216 0.197986
C219  C     C_3   0.679937 0.925708 0.449240 -0.326528
C220  C     C_3   0.704432 0.913060 0.413342 -0.846197
H226  H     H_    0.719398 0.956211 0.400905 0.266642
H227  H     H_    0.741649 0.878116 0.412093 0.288307
H228  H     H_    0.666015 0.892224 0.398670 0.233979
H229  H     H_    0.666498 0.881128 0.460658 0.227318
H230  H     H_    0.636652 0.951867 0.443520 0.198081
C221  C     C_3   0.071916 0.679596 0.448378 -0.327488
C222  C     C_3   0.081901 0.704246 0.412291 -0.846827
H231  H     H_    0.037662 0.719189 0.400794 0.265920
H232  H     H_    0.115864 0.741747 0.410409 0.288670
H233  H     H_    0.102259 0.665952 0.397110 0.234898
H234  H     H_    0.117498 0.666667 0.459016 0.227561
H235  H     H_    0.046645 0.635939 0.443211 0.197945
C223  C     C_3   0.320164 0.074349 0.449225 -0.326499
C224  C     C_3   0.295739 0.087096 0.413326 -0.846131
H236  H     H_    0.280744 0.043991 0.400876 0.266718
H237  H     H_    0.258579 0.122107 0.412085 0.288263
H238  H     H_    0.334209 0.107925 0.398665 0.233937
H239  H     H_    0.333608 0.118896 0.460662 0.227317
H240  H     H_    0.363442 0.048171 0.443505 0.198090
I1    I     I_    0.618785 0.665792 0.043274 -0.352744
I2    I     I_    0.668443 0.381186 0.042978 -0.351892
I3    I     I_    0.381327 0.334214 0.043407 -0.352614
I4    I     I_    0.331515 0.618782 0.042982 -0.351872
I5    I     I_    0.381218 0.668485 0.957017 -0.351873
I6    I     I_    0.334208 0.381214 0.956726 -0.352744
I7    I     I_    0.618814 0.331557 0.957022 -0.351892
I8    I     I_    0.665786 0.618672 0.956592 -0.352614
I9    I     I_    0.118785 0.165792 0.543274 -0.352744
I10   I     I_    0.168443 0.881186 0.542978 -0.351892
I11   I     I_    0.881327 0.834214 0.543407 -0.352613
I12   I     I_    0.831515 0.118782 0.542983 -0.351872
I13   I     I_    0.881218 0.168485 0.457017 -0.351872
I14   I     I_    0.834208 0.881214 0.456726 -0.352744
I15   I     I_    0.118814 0.831557 0.457022 -0.351892
I16   I     I_    0.165786 0.118672 0.456593 -0.352613

loop_
_geom_bond_atom_site_label_1
_geom_bond_atom_site_label_2
_ccdc_geom_bond_type
C144  H37   S    
C154  H63   S    
O23   Zn1   S    
C201  C202  S    
C39   C87   S    
C93   N8    A    
C53   C69   A    
C51   C85   A    
C47   C141  S    
C15   C32   S    
C159  H80   S    
C196  H166  S    
C151  C152  S    
C46   C62   A    
C58   C163  S    
C98   C114  A    
C7    O15   A    
C129  H5    S    
C4    O4    A    
C103  C205  S    
C36   O24   A    
C204  H188  S    
C14   C128  A    
C224  H238  S    
C211  H210  S    
N2    N13   A    
O6    Zn2   S    
C79   C90   S    
C158  H73   S    
C149  C150  S    
C222  H231  S    
C56   C72   A    
C166  H93   S    
C3    C19   S    
C47   C83   A    
O2    Zn2   S    
C11   C115  A    
C59   C73   A    
C90   N15   A    
C13   C125  A    
C15   C127  A    
C42   C58   A    
C138  H22   S    
C108  C124  A    
C92   N9    A    
O21   Zn3   S    
C172  H107  S    
C142  H32   S    
C9    C26   S    
C116  I4    S    
C192  H158  S    
C132  H7    S    
C2    O8    A    
C221  H234  S    
C65   C77   A    
C217  H224  S    
C13   C30   S    
C24   C110  A    
O36   Zn9   S    
C65   C177  S    
C130  H1    S    
C118  I6    S    
N1    N14   A    
C215  C216  S    
C141  H34   S    
C106  C211  S    
C138  H23   S    
C33   O17   A    
C181  H135  S    
C62   C171  S    
C136  H16   S    
C54   C70   A    
C207  H200  S    
C23   C107  A    
C171  C172  S    
O48   Zn12  S    
C18   C104  A    
C206  H191  S    
C28   O36   A    
C53   C153  S    
C185  H145  S    
C46   C84   A    
C26   O38   A    
C155  C156  S    
C93   N6    A    
C223  H239  S    
C212  H207  S    
C95   N4    A    
C135  H19   S    
C181  C182  S    
C195  C196  S    
C196  H168  S    
C203  H190  S    
C162  H83   S    
C60   C167  S    
C165  H95   S    
C27   O35   A    
C6    O16   A    
C122  I10   S    
C4    O6    A    
C173  H115  S    
C190  H151  S    
C40   C88   S    
C52   C86   A    
C149  H54   S    
C137  H25   S    
C145  H44   S    
C40   O30   A    
O41   Zn11  S    
C143  H39   S    
C222  H233  S    
C135  H20   S    
O14   Zn6   S    
C61   C169  S    
C176  H118  S    
C130  H2    S    
C16   C124  A    
C210  H201  S    
C194  H162  S    
C90   N13   A    
C216  H217  S    
C183  C184  S    
C203  C204  S    
C91   N12   A    
C4    C20   S    
C70   C187  S    
C131  C132  S    
C63   C173  S    
C166  H92   S    
C174  H111  S    
C173  C174  S    
C120  I8    S    
C223  C224  S    
C140  H27   S    
C188  H146  S    
C202  H182  S    
C92   N11   A    
C175  H119  S    
C55   C71   A    
C54   C155  S    
C96   N1    A    
C105  C209  S    
C10   C27   S    
C54   C88   A    
C3    O3    A    
C171  H110  S    
C1    O1    A    
C67   C77   A    
C14   C31   S    
C55   C157  S    
C71   C79   A    
C185  C186  S    
C193  C194  S    
C155  H70   S    
C153  H65   S    
C38   C86   S    
C11   C28   S    
C33   O19   A    
C34   O20   A    
C37   O25   A    
C145  C146  S    
O10   Zn6   S    
C56   C88   A    
C167  H99   S    
C186  H143  S    
C59   C165  S    
C121  I9    S    
C214  H211  S    
C210  H203  S    
C140  H26   S    
C57   C73   A    
C169  H104  S    
C164  H87   S    
C178  H121  S    
C162  H82   S    
C117  I5    S    
C133  H14   S    
C221  H235  S    
C170  H102  S    
C161  H84   S    
C67   C181  S    
C182  H131  S    
C180  H128  S    
C201  H184  S    
C29   O47   A    
C173  H114  S    
C100  C199  S    
C165  H94   S    
C43   C59   A    
C157  H75   S    
C200  H178  S    
C179  C180  S    
C158  H72   S    
C151  H59   S    
C197  H175  S    
C152  H58   S    
C156  H67   S    
C45   C83   A    
C134  H11   S    
C153  C154  S    
C109  C217  S    
C112  C223  S    
C202  H181  S    
O8    Zn4   S    
O17   Zn1   S    
C190  H153  S    
C10   C120  A    
C166  H91   S    
C39   O31   A    
C40   O32   A    
C163  C164  S    
C163  H89   S    
C198  H171  S    
C178  H123  S    
C27   O37   A    
C209  C210  S    
C91   N10   A    
C13   C121  A    
C68   C183  S    
C123  I11   S    
C106  C122  A    
C94   N7    A    
C179  H130  S    
C53   C87   A    
C51   C67   A    
C187  C188  S    
C188  H148  S    
C220  H227  S    
C56   C159  S    
C110  C126  A    
C96   N3    A    
C136  H17   S    
C22   C112  A    
C160  H77   S    
C191  C192  S    
C43   C81   A    
O33   Zn9   S    
C69   C79   A    
C147  H50   S    
C42   C131  S    
C58   C74   A    
C170  H103  S    
O25   Zn5   S    
C186  H141  S    
C215  H219  S    
C205  C206  S    
C187  H149  S    
O22   Zn2   S    
C34   O18   A    
C139  H29   S    
C37   O27   A    
C21   C109  A    
O20   Zn4   S    
C38   O28   A    
C157  H74   S    
C23   C111  A    
C1    C17   S    
C214  H213  S    
C51   C149  S    
C140  H28   S    
C9    C113  A    
C218  H221  S    
C28   O40   A    
C72   C80   A    
O5    Zn3   S    
C63   C75   A    
C129  H4    S    
C182  H133  S    
C7    C23   S    
C139  C140  S    
C8    C24   S    
C29   O41   A    
O42   Zn11  S    
O28   Zn8   S    
C30   O46   A    
C55   C87   A    
C207  C208  S    
C149  H55   S    
C195  H169  S    
C200  H176  S    
C168  H98   S    
C150  H51   S    
C222  H232  S    
C135  C136  S    
O34   Zn9   S    
C152  H56   S    
C114  I2    S    
C101  C201  S    
C34   C82   S    
C104  C120  A    
C148  H46   S    
C17   C97   A    
C134  H13   S    
C12   C116  A    
C219  H229  S    
C14   C122  A    
O29   Zn7   S    
C64   C175  S    
C208  H196  S    
C100  C116  A    
C206  H193  S    
C107  C123  A    
C39   O29   A    
C8    O14   A    
C146  H43   S    
C172  H106  S    
C208  H198  S    
O11   Zn7   S    
C192  H157  S    
C132  H6    S    
C191  H160  S    
C198  H173  S    
C45   C137  S    
C44   C82   A    
C183  H139  S    
C47   C63   A    
C184  H138  S    
C66   C179  S    
C48   C64   A    
C152  H57   S    
C131  H9    S    
C193  H165  S    
C89   N14   A    
C6    C22   S    
O43   Zn11  S    
C94   N5    A    
C211  C212  S    
C32   O48   A    
C154  H61   S    
C80   C89   S    
C175  C176  S    
O31   Zn5   S    
C199  H180  S    
O35   Zn9   S    
C1    O5    A    
C24   C108  A    
C71   C189  S    
O1    Zn1   S    
C185  H144  S    
C10   C114  A    
N4    N15   A    
C144  H38   S    
N5    N10   A    
C223  H240  S    
C212  H206  S    
C139  H30   S    
C62   C76   A    
C212  H208  S    
O32   Zn8   S    
N8    N11   A    
C205  H195  S    
C134  H12   S    
C38   O26   A    
C159  H79   S    
C196  H167  S    
O45   Zn12  S    
C68   C78   A    
N7    N12   A    
C66   C78   A    
C50   C147  S    
C70   C80   A    
C133  C134  S    
C35   C83   S    
C216  H218  S    
C102  C203  S    
C189  H155  S    
C5    C21   S    
C190  H152  S    
C211  H209  S    
C137  H24   S    
C143  C144  S    
C76   C93   S    
C168  H96   S    
C20   C100  A    
C150  H53   S    
O19   Zn3   S    
C41   C81   A    
C99   C197  S    
C176  H117  S    
N6    N9    A    
C210  H202  S    
C194  H163  S    
C197  H174  S    
C6    O10   A    
C15   C123  A    
C12   C118  A    
C5    O13   A    
C138  H21   S    
C48   C143  S    
C175  H120  S    
C172  H108  S    
C142  H31   S    
C132  H8    S    
C69   C185  S    
C159  C160  S    
C19   C99   A    
C113  I1    S    
C217  H225  S    
O39   Zn10  S    
C43   C133  S    
C115  I3    S    
C184  H136  S    
O38   Zn10  S    
C89   N16   A    
C31   O45   A    
C110  C219  S    
C153  H64   S    
C101  C117  A    
O7    Zn1   S    
C41   C57   A    
C124  I12   S    
C205  H194  S    
C107  C213  S    
C207  H199  S    
C44   C60   A    
C167  H100  S    
C99   C115  A    
C45   C61   A    
C214  H212  S    
C177  H125  S    
C164  H86   S    
C178  H122  S    
C112  C128  A    
C97   C193  S    
O47   Zn12  S    
O15   Zn5   S    
C7    O11   A    
C147  C148  S    
C182  H132  S    
C148  H48   S    
C180  H127  S    
C189  H154  S    
C73   C96   S    
C125  I13   S    
C21   C105  A    
N3    N16   A    
C221  C222  S    
C75   C94   S    
C108  C215  S    
C200  H177  S    
C160  H76   S    
C49   C145  S    
C77   C92   S    
C151  H60   S    
C203  H189  S    
C213  H215  S    
C2    C18   S    
C9    C117  A    
C156  H66   S    
O37   Zn10  S    
C42   C82   A    
C165  C166  S    
C11   C119  A    
C174  H112  S    
C216  H216  S    
O16   Zn8   S    
C129  C130  S    
C61   C75   A    
C49   C65   A    
C30   O42   A    
C37   C85   S    
C206  H192  S    
C145  H45   S    
O9    Zn5   S    
C98   C195  S    
C213  C214  S    
C209  H204  S    
C198  H172  S    
C217  C218  S    
C60   C74   A    
C17   C101  A    
C194  H161  S    
O27   Zn7   S    
C204  H187  S    
C72   C191  S    
O4    Zn4   S    
C199  H179  S    
C219  C220  S    
C202  H183  S    
C147  H49   S    
C35   O23   A    
C224  H236  S    
O3    Zn3   S    
C126  I14   S    
C46   C139  S    
C188  H147  S    
C220  H226  S    
C146  H41   S    
C52   C68   A    
C142  H33   S    
C64   C76   A    
C224  H237  S    
C199  C200  S    
C157  C158  S    
C171  H109  S    
C16   C126  A    
O12   Zn8   S    
C19   C103  A    
C20   C102  A    
C186  H142  S    
C26   O34   A    
C215  H220  S    
C155  H69   S    
C187  H150  S    
O30   Zn6   S    
O40   Zn10  S    
C32   O44   A    
C127  I15   S    
C49   C85   A    
C181  H134  S    
C192  H156  S    
C146  H42   S    
C16   C29   S    
C22   C106  A    
C48   C84   A    
O13   Zn7   S    
C169  H105  S    
C164  H88   S    
C218  H222  S    
C177  H124  S    
C162  H81   S    
C95   N2    A    
C176  H116  S    
C161  H85   S    
C189  C190  S    
C111  C221  S    
O18   Zn2   S    
C36   O22   A    
C204  H186  S    
C201  H185  S    
C105  C121  A    
C133  H15   S    
C57   C161  S    
C50   C66   A    
C195  H170  S    
C141  H35   S    
C109  C125  A    
C158  H71   S    
C168  H97   S    
C150  H52   S    
C213  H214  S    
C111  C127  A    
C156  H68   S    
C218  H223  S    
C143  H40   S    
C97   C113  A    
C144  H36   S    
O46   Zn12  S    
O26   Zn6   S    
C137  C138  S    
C119  I7    S    
C219  H230  S    
C74   C95   S    
C103  C119  A    
C102  C118  A    
C141  C142  S    
C208  H197  S    
C78   C91   S    
C2    O2    A    
O44   Zn11  S    
C3    O7    A    
C12   C25   S    
C209  H205  S    
C148  H47   S    
C197  C198  S    
C183  H140  S    
C177  C178  S    
C184  H137  S    
C130  H3    S    
C170  H101  S    
C180  H126  S    
C163  H90   S    
C44   C135  S    
C193  H164  S    
C36   C84   S    
C5    O9    A    
C104  C207  S    
C35   O21   A    
C179  H129  S    
C128  I16   S    
C154  H62   S    
C174  H113  S    
C41   C129  S    
C161  C162  S    
C8    O12   A    
C220  H228  S    
C50   C86   A    
C52   C151  S    
C191  H159  S    
C136  H18   S    
C167  C168  S    
O24   Zn4   S    
C160  H78   S    
C18   C98   A    
C31   O43   A    
C169  C170  S    
C25   O33   A    
C33   C81   S    
C25   O39   A    
C131  H10   S    
