data_mof_unit_28521.cif
_audit_creation_date              2012-12-10T17:33:57-0500
_audit_creation_method            fapswitch 2.2
_symmetry_space_group_name_H-M    P1
_symmetry_Int_Tables_number       1
_space_group_crystal_system       triclinic
_cell_length_a                    10.661306
_cell_length_b                    11.986766
_cell_length_c                    12.903806
_cell_angle_alpha                 93.713364
_cell_angle_beta                  90.208702
_cell_angle_gamma                 85.945652
_cell_volume                      1641.45549914

loop_
_atom_site_label
_atom_site_type_symbol
_atom_type_description
_atom_site_fract_x
_atom_site_fract_y
_atom_site_fract_z
_atom_type_partial_charge
C1    C     C_R   0.497264 0.522718 0.700603 0.873160
C2    C     C_R   0.521606 0.448957 0.973252 0.159081
C3    C     C_R   0.479461 0.550607 0.026597 0.157990
C4    C     C_R   0.741893 0.499541 0.495751 0.917548
C5    C     C_R   0.471680 0.556084 0.132943 -0.309712
C6    C     C_R   0.548218 0.359101 0.134714 0.103932
C7    C     C_R   0.554836 0.353673 0.026710 -0.248281
C8    C     C_R   0.377094 0.955528 0.406487 -0.049195
C9    C     C_R   0.389702 0.838562 0.415235 0.271771
C10   C     C_R   0.553350 0.857510 0.538976 -0.096014
C11   C     C_R   0.545316 0.975363 0.533252 0.042385
C12   C     C_3   0.121274 0.499270 0.498211 0.028258
C13   C     C_R   0.455559 0.024990 0.466158 -0.017323
C14   C     C_R   0.446996 0.142781 0.460862 -0.051307
C15   C     C_R   0.610325 0.161641 0.584267 -0.031220
C16   C     C_R   0.502976 0.477232 0.299371 0.895875
C17   C     C_R   0.624053 0.044758 0.592834 0.018828
C18   C     C_R   0.257730 0.499890 0.499470 0.835944
C19   C     C_3   0.923740 0.488447 0.607344 -0.509632
C20   C     C_3   0.069490 0.485924 0.612752 0.226738
C21   C     C_3   0.936407 0.395319 0.426647 -0.047743
C22   C     C_3   0.920200 0.613756 0.458036 -0.046829
C23   C     C_3   0.081105 0.400436 0.420804 -0.115100
C24   C     C_3   0.877925 0.499556 0.493867 0.058660
C25   C     C_3   0.063789 0.612286 0.458454 -0.473393
C26   C     C_R   0.507051 0.462143 0.187590 -0.077260
C27   C     C_R   0.493607 0.537591 0.812344 -0.072050
C28   C     C_R   0.445984 0.645890 0.973251 -0.248384
C29   C     C_R   0.452268 0.640519 0.865298 0.106601
C30   C     C_R   0.529587 0.443579 0.866854 -0.306645
H1    H     H_    0.438685 0.634780 0.173128 0.167370
H2    H     H_    0.225303 0.399820 0.312824 0.192996
H3    H     H_    0.095828 0.479296 0.280802 0.188145
H4    H     H_    0.597783 0.190630 0.138926 0.169896
H5    H     H_    0.673318 0.274588 0.223191 0.198474
H6    H     H_    0.413572 0.723738 0.015436 0.131720
H7    H     H_    0.587142 0.275774 0.984575 0.134195
H8    H     H_    0.404734 0.809277 0.861029 0.176345
H9    H     H_    0.325375 0.725901 0.778991 0.179404
H10   H     H_    0.563282 0.364982 0.826479 0.167127
H11   H     H_    0.379933 0.183925 0.410286 0.136116
H12   H     H_    0.669763 0.216245 0.629076 0.123324
H13   H     H_    0.879690 0.558967 0.658355 0.170530
H14   H     H_    0.221614 0.057127 0.379788 0.180805
H15   H     H_    0.329416 0.044338 0.281959 0.193401
H16   H     H_    0.760097 0.060291 0.704646 0.174245
H17   H     H_    0.786995 0.953786 0.615063 0.170192
H18   H     H_    0.217207 0.793010 0.374569 0.165373
H19   H     H_    0.323488 0.779700 0.277227 0.164870
H20   H     H_    0.620403 0.817026 0.590091 0.163310
H21   H     H_    0.202240 0.583044 0.686874 0.168250
H22   H     H_    0.061687 0.654734 0.669700 0.169992
H23   H     H_    0.919452 0.319950 0.469669 0.135200
H24   H     H_    0.091225 0.309708 0.610339 0.157994
H25   H     H_    0.213547 0.375965 0.665674 0.209486
H26   H     H_    0.924893 0.616570 0.295850 0.175076
H27   H     H_    0.855246 0.730795 0.357229 0.181076
H28   H     H_    0.885699 0.680620 0.517597 0.146572
H29   H     H_    0.123329 0.319581 0.446881 0.141892
H30   H     H_    0.092280 0.685369 0.508116 0.168742
H31   H     H_    0.889416 0.411409 0.638314 0.178011
H32   H     H_    0.101965 0.627296 0.381270 0.178249
H33   H     H_    0.910347 0.301245 0.290006 0.192114
H34   H     H_    0.890868 0.439802 0.275961 0.208501
N1    N     N_R   0.523380 0.207800 0.519350 -0.107236
N2    N     N_3   0.104947 0.577253 0.686894 -0.438527
N3    N     N_3   0.116123 0.379810 0.655842 -0.442584
N4    N     N_3   0.865190 0.643380 0.357760 -0.433601
N5    N     N_R   0.476620 0.792180 0.480650 -0.118216
N6    N     N_3   0.874149 0.377580 0.325610 -0.456374
N7    N     N_3   0.127050 0.405329 0.313693 -0.465939
N8    N     N_3   0.585470 0.261855 0.190078 -0.433605
N9    N     N_3   0.414472 0.737731 0.810062 -0.426202
N10   N     N_3   0.284257 0.001024 0.337081 -0.491160
N11   N     N_3   0.716803 0.997006 0.661337 -0.472673
N12   N     N_3   0.310519 0.767304 0.355776 -0.401204
O1    O     O_R   0.506240 0.421700 0.658830 -0.634434
O2    O     O_R   0.491240 0.609310 0.646410 -0.602567
O3    O     O_R   0.692710 0.406190 0.506230 -0.632315
O4    O     O_R   0.677700 0.593810 0.493810 -0.621351
O5    O     O_R   0.508760 0.390690 0.353590 -0.601660
O6    O     O_R   0.493760 0.578300 0.341170 -0.606610
O7    O     O_R   0.322300 0.406190 0.506190 -0.647968
O8    O     O_R   0.307290 0.593810 0.493770 -0.610128
Zn1   Zn    Zn3+2 0.510020 0.374730 0.508290 0.933392
Zn2   Zn    Zn3+2 0.489980 0.625270 0.491710 0.955287

loop_
_geom_bond_atom_site_label_1
_geom_bond_atom_site_label_2
_ccdc_geom_bond_type
C8    C13   A    
C27   C29   A    
C1    O1    A    
H18   N12   S    
C20   N3    S    
C19   C20   S    
C23   H29   S    
C12   C23   S    
C20   N2    S    
C28   C29   A    
C9    N5    A    
C4    O4    A    
C4    C24   S    
C29   N9    S    
C15   N1    A    
O4    Zn2   S    
C11   C17   A    
C2    C7    A    
C8    C9    A    
C22   C25   S    
C18   O8    A    
C25   H30   S    
H34   N6    S    
O2    Zn2   S    
O1    Zn1   S    
C13   C14   A    
C27   C30   A    
C1    O2    A    
C16   O6    A    
H16   N11   S    
C19   H13   S    
H2    N7    S    
C16   C26   S    
C23   N7    S    
C4    O3    A    
H24   N3    S    
O6    Zn2   S    
H15   N10   S    
H21   N2    S    
C6    N8    S    
H33   N6    S    
C12   C20   S    
C8    N10   S    
C18   O7    A    
C7    H7    S    
H19   N12   S    
C30   H10   S    
H14   N10   S    
C22   N4    S    
C14   H11   S    
C9    N12   S    
H5    N8    S    
C21   C23   S    
C22   C24   S    
H27   N4    S    
C10   H20   S    
H4    N8    S    
O3    Zn1   S    
H22   N2    S    
C1    C27   S    
C15   C17   A    
C3    C28   A    
O7    Zn1   S    
C15   H12   S    
O8    Zn2   S    
C3    C5    A    
C22   H28   S    
H25   N3    S    
N1    Zn1   S    
C6    C7    A    
C21   N6    S    
C12   C25   S    
C2    C30   A    
C2    C3    A    
H17   N11   S    
H26   N4    S    
C21   H23   S    
C11   C13   A    
C6    C26   A    
C19   H31   S    
C16   O5    A    
C14   N1    A    
C19   C24   S    
C25   H32   S    
H9    N9    S    
C10   C11   A    
H3    N7    S    
C5    C26   A    
C10   N5    A    
C28   H6    S    
C21   C24   S    
C12   C18   S    
C17   N11   S    
O5    Zn1   S    
N5    Zn2   S    
C5    H1    S    
H8    N9    S    
