data_mof_unit_33871.cif
_audit_creation_date              2012-12-10T19:45:10-0500
_audit_creation_method            fapswitch 2.2
_symmetry_space_group_name_H-M    P1
_symmetry_Int_Tables_number       1
_space_group_crystal_system       triclinic
_cell_length_a                    14.982272
_cell_length_b                    14.246452
_cell_length_c                    10.706512
_cell_angle_alpha                 90.0001
_cell_angle_beta                  91.692922
_cell_angle_gamma                 90.0
_cell_volume                      2284.24562188

loop_
_atom_site_label
_atom_site_type_symbol
_atom_type_description
_atom_site_fract_x
_atom_site_fract_y
_atom_site_fract_z
_atom_type_partial_charge
C1    C     C_R   0.327968 0.500190 0.504748 0.927381
C2    C     C_R   0.543035 0.898733 0.594143 -0.164492
C3    C     C_R   0.456965 0.898733 0.405858 -0.164490
C4    C     C_R   0.543518 0.799412 0.595121 0.493382
C5    C     C_R   0.456481 0.799411 0.404879 0.493384
C6    C     C_R   0.500000 0.949134 0.500000 0.080969
C7    C     C_R   0.497695 0.499728 0.262453 0.962721
C8    C     C_R   0.502306 0.499728 0.737547 0.962723
C9    C     C_2   0.497192 0.419586 0.932810 -0.152097
C10   C     C_2   0.502820 0.419587 0.067190 -0.152091
C11   C     C_2   0.511680 0.498628 0.869654 -0.266816
C12   C     C_R   0.672032 0.500190 0.495252 0.927380
C13   C     C_2   0.488323 0.498627 0.130346 -0.266807
C14   C     C_R   0.091891 0.569392 0.565288 -0.197949
C15   C     C_R   0.908109 0.569391 0.434713 -0.197949
C16   C     C_R   0.184433 0.571887 0.571485 0.444028
C17   C     C_R   0.815567 0.571886 0.428515 0.444026
C18   C     C_R   0.231914 0.500136 0.510028 -0.168904
C19   C     C_R   0.768086 0.500136 0.489973 -0.168902
C20   C     C_R   0.186370 0.425896 0.450356 -0.218666
C21   C     C_R   0.813630 0.425897 0.549647 -0.218666
C22   C     C_R   0.094420 0.423489 0.447868 -0.125794
C23   C     C_R   0.047818 0.495913 0.503642 0.035296
C24   C     C_R   0.905579 0.423490 0.552137 -0.125794
C25   C     C_R   0.952182 0.495913 0.496361 0.035297
C26   C     C_R   0.553490 0.106079 0.416733 0.336944
C27   C     C_R   0.446510 0.106079 0.583268 0.336945
C28   C     C_R   0.551575 0.205072 0.418690 -0.095447
C29   C     C_R   0.448425 0.205073 0.581310 -0.095448
C30   C     C_R   0.500000 0.054772 0.500000 -0.125284
H1    H     H_    0.481666 0.353587 0.886105 0.197816
H2    H     H_    0.940483 0.366660 0.599897 0.171581
H3    H     H_    0.591693 0.244924 0.355205 0.189840
H4    H     H_    0.408307 0.244924 0.644795 0.189841
H5    H     H_    0.575761 0.938413 0.668482 0.223523
H6    H     H_    0.424238 0.938413 0.331519 0.223523
H7    H     H_    0.679399 0.635970 0.792732 0.367523
H8    H     H_    0.320601 0.635970 0.207268 0.367522
H9    H     H_    0.194727 0.765831 0.795737 0.403448
H10   H     H_    0.805275 0.765832 0.204266 0.403446
H11   H     H_    0.706142 0.924578 0.313918 0.410643
H12   H     H_    0.518352 0.353589 0.113896 0.197814
H13   H     H_    0.293866 0.924574 0.686083 0.410647
H14   H     H_    0.533193 0.563241 0.914463 0.204594
H15   H     H_    0.466806 0.563238 0.085536 0.204588
H16   H     H_    0.053477 0.623948 0.609359 0.210735
H17   H     H_    0.946523 0.623946 0.390641 0.210734
H18   H     H_    0.221912 0.370502 0.403413 0.190752
H19   H     H_    0.778087 0.370504 0.596592 0.190751
H20   H     H_    0.059516 0.366658 0.400109 0.171581
N1    N     N_R   0.500000 0.252470 0.500000 -0.146880
N2    N     N_R   0.500000 0.747550 0.500000 -0.197279
O1    O     O_R   0.369060 0.579480 0.500010 -0.516095
O2    O     O_2   0.524599 0.729424 0.823492 -0.251887
O3    O     O_3   0.659387 0.657197 0.708363 -0.534730
O4    O     O_2   0.343558 0.824743 0.207379 -0.250871
O5    O     O_2   0.475401 0.729423 0.176508 -0.251886
O6    O     O_3   0.340613 0.657197 0.291637 -0.534729
O7    O     O_2   0.310114 0.622661 0.742784 -0.296207
O8    O     O_2   0.273737 0.734805 0.574766 -0.253745
O9    O     O_3   0.161206 0.714885 0.752310 -0.532545
O10   O     O_2   0.689886 0.622657 0.257214 -0.296203
O11   O     O_2   0.726263 0.734804 0.425229 -0.253748
O12   O     O_R   0.630940 0.579480 0.499990 -0.516096
O13   O     O_3   0.838795 0.714881 0.247686 -0.532544
O14   O     O_2   0.567143 0.010411 0.203841 -0.245189
O15   O     O_2   0.690111 0.117270 0.259391 -0.269797
O16   O     O_3   0.678847 0.960643 0.382066 -0.511761
O17   O     O_2   0.432858 0.010413 0.796159 -0.245195
O18   O     O_2   0.309889 0.117271 0.740610 -0.269790
O19   O     O_3   0.321154 0.960643 0.617936 -0.511766
O20   O     O_R   0.369050 0.420520 0.500010 -0.640145
O21   O     O_R   0.630950 0.420520 0.499990 -0.640145
O22   O     O_R   0.500000 0.579460 0.319080 -0.530855
O23   O     O_R   0.500000 0.579460 0.680920 -0.530856
O24   O     O_R   0.499990 0.420500 0.319080 -0.644779
O25   O     O_R   0.500010 0.420500 0.680920 -0.644779
O26   O     O_2   0.656442 0.824743 0.792620 -0.250870
S1    S     S_3+6 0.596151 0.752100 0.732812 0.109095
S2    S     S_3+6 0.403849 0.752100 0.267188 0.109096
S3    S     S_3+6 0.236156 0.662699 0.661204 0.056981
S4    S     S_3+6 0.763844 0.662696 0.338794 0.056983
S5    S     S_3+6 0.623662 0.049140 0.310107 0.054739
S6    S     S_3+6 0.376338 0.049141 0.689894 0.054738
Zn1   Zn    Zn3+2 0.500000 0.606140 0.500000 1.177364
Zn2   Zn    Zn3+2 0.500000 0.393860 0.500000 0.966593

loop_
_geom_bond_atom_site_label_1
_geom_bond_atom_site_label_2
_ccdc_geom_bond_type
C2    H5    S    
O15   S5    D    
C26   S5    S    
C10   H12   S    
C15   H17   S    
C3    C6    A    
C21   H19   S    
C14   H16   S    
C1    C18   S    
C4    N2    A    
C27   S6    S    
C19   C21   A    
O2    S1    D    
C12   O12   A    
C28   N1    A    
C15   C25   A    
C27   C29   A    
C17   S4    S    
C1    O1    A    
O14   S5    D    
H8    O6    S    
O23   Zn1   S    
C5    N2    A    
H11   O16   S    
O18   S6    D    
C9    C10   S    
O6    S2    S    
C22   H20   S    
O10   S4    D    
C12   O21   A    
C27   C30   A    
O5    S2    D    
C2    C6    A    
N1    Zn2   S    
C7    O22   A    
H9    O9    S    
C1    O20   A    
O11   S4    D    
C24   C25   A    
C4    S1    S    
O26   S1    D    
C29   H4    S    
C8    O23   A    
C14   C23   A    
C2    C4    A    
C24   H2    S    
O3    S1    S    
O8    S3    D    
C11   H14   S    
C5    S2    S    
C9    C11   D    
C20   H18   S    
C6    C30   S    
C20   C22   A    
C28   H3    S    
C26   C30   A    
H10   O13   S    
C8    O25   A    
C14   C16   A    
O24   Zn2   S    
O12   Zn1   S    
O19   S6    S    
C29   N1    A    
C15   C17   A    
N2    Zn1   S    
H13   O19   S    
O16   S5    S    
O7    S3    D    
C3    C5    A    
C10   C13   D    
O25   Zn2   S    
O20   Zn2   S    
C7    O24   A    
C26   C28   A    
O4    S2    D    
O17   S6    D    
O9    S3    S    
C13   H15   S    
O13   S4    S    
C3    H6    S    
C8    C11   S    
C12   C19   S    
C16   S3    S    
C17   C19   A    
C18   C20   A    
C23   C25   S    
O22   Zn1   S    
O21   Zn2   S    
C9    H1    S    
H7    O3    S    
C7    C13   S    
C16   C18   A    
C21   C24   A    
C22   C23   A    
O1    Zn1   S    
