data_mof_unit_55965.cif
_audit_creation_date              2013-03-05T16:21:22-0500
_audit_creation_method            fapswitch 2.2
_symmetry_space_group_name_H-M    P1
_symmetry_Int_Tables_number       1
_space_group_crystal_system       triclinic
_cell_length_a                    8.791935
_cell_length_b                    15.11605
_cell_length_c                    13.851727
_cell_angle_alpha                 90.70227
_cell_angle_beta                  97.522589
_cell_angle_gamma                 89.976328
_cell_volume                      1824.90291569

loop_
_atom_site_label
_atom_site_type_symbol
_atom_site_description
_atom_site_fract_x
_atom_site_fract_y
_atom_site_fract_z
_atom_type_partial_charge
O1    O     O_R   0.500010 0.371450 0.581430 -0.604622
O2    O     O_R   0.499990 0.628550 0.418570 -0.617437
O3    O     O_R   0.500010 0.371460 0.418560 -0.546412
O4    O     O_R   0.499990 0.628540 0.581440 -0.527425
C1    C     C_R   0.504261 0.329785 0.499572 0.861298
C2    C     C_R   0.504311 0.670119 0.501080 0.866129
O5    O     O_R   0.274840 0.499990 0.562640 -0.570059
O6    O     O_R   0.725160 0.500010 0.437360 -0.545325
O7    O     O_R   0.274840 0.500000 0.399770 -0.565596
O8    O     O_R   0.725160 0.500000 0.600230 -0.571326
C3    C     C_R   0.204274 0.499492 0.475736 0.859761
C4    C     C_R   0.795731 0.500824 0.524244 0.889554
Cu1   Cu    Cu3+1 0.500000 0.499990 0.596430 1.031880
Cu2   Cu    Cu3+1 0.500000 0.500010 0.403570 1.034880
C5    C     C_2   0.041043 0.488141 0.463843 0.093765
C6    C     C_2   0.958887 0.512678 0.535953 0.085682
C7    C     C_R   0.446176 0.094855 0.568609 -0.113645
C8    C     C_R   0.437556 0.904949 0.425463 -0.113963
H1    H     H_    0.390745 0.059973 0.622345 0.188004
H2    H     H_    0.375462 0.939979 0.364829 0.186721
C9    C     C_R   0.442092 0.186508 0.567484 -0.204090
C10   C     C_R   0.433746 0.813296 0.425624 -0.213618
H3    H     H_    0.383047 0.221227 0.620493 0.180582
H4    H     H_    0.368230 0.778603 0.365024 0.183289
C11   C     C_R   0.511648 0.232986 0.498144 -0.165279
C12   C     C_R   0.511925 0.766739 0.503604 -0.160252
C13   C     C_R   0.588231 0.186344 0.429502 0.291455
C14   C     C_R   0.597258 0.813014 0.582020 0.305050
C15   C     C_R   0.591456 0.093416 0.430293 0.311544
C16   C     C_R   0.600306 0.905961 0.582191 0.315321
C17   C     C_R   0.520035 0.048162 0.500552 -0.026309
C18   C     C_R   0.519926 0.951453 0.503110 -0.027002
C19   C     C_R   0.573816 0.567200 0.114882 -0.239222
C20   C     C_R   0.380334 0.460267 0.881683 -0.238649
H5    H     H_    0.629953 0.621814 0.084211 0.153997
H6    H     H_    0.283371 0.430171 0.909264 0.147416
C21   C     C_R   0.573307 0.565698 0.216318 0.131144
C22   C     C_R   0.383106 0.460478 0.780399 0.143711
H7    H     H_    0.631525 0.617676 0.261095 0.139919
H8    H     H_    0.290731 0.429010 0.733067 0.148103
N1    N     N_R   0.500000 0.500020 0.258690 -0.185613
N2    N     N_R   0.500000 0.499980 0.741310 -0.193468
C23   C     C_R   0.427348 0.434017 0.202579 0.172092
C24   C     C_R   0.617157 0.539208 0.800896 0.144212
H9    H     H_    0.369639 0.381957 0.236520 0.154433
H10   H     H_    0.709845 0.570353 0.769811 0.192551
C25   C     C_R   0.426988 0.432299 0.101003 -0.235965
C26   C     C_R   0.620057 0.539303 0.902640 -0.236690
H11   H     H_    0.371085 0.377562 0.059633 0.151913
H12   H     H_    0.717197 0.569244 0.947116 0.156831
C27   C     C_R   0.500321 0.499747 0.054730 0.116344
C28   C     C_R   0.500222 0.499770 0.945372 0.116203
Cl1   Cl    Cl    0.964550 0.429069 0.356648 -0.520366
Cl2   Cl    Cl    0.035234 0.572875 0.642393 -0.556395
Cl3   Cl    Cl    0.694189 0.242550 0.348837 -0.448909
Cl4   Cl    Cl    0.714226 0.755988 0.674837 -0.481774
N3    N     N_R   0.670611 0.045288 0.361897 0.150302
O9    O     O_R   0.771762 0.985484 0.392001 -0.304889
O10   O     O_R   0.638453 0.059228 0.268959 -0.274060
N4    N     N_R   0.688165 0.953807 0.660794 0.152571
O11   O     O_R   0.785930 0.014132 0.642903 -0.300997
O12   O     O_R   0.667651 0.938895 0.750520 -0.267297

loop_
_geom_bond_atom_site_label_1
_geom_bond_atom_site_label_2
_geom_bond_distance
_ccdc_geom_bond_type
C16   N4    1.437414 S    
C16   C18   1.409822 A    
O7    Cu2   1.973392 S    
C11   C13   1.416074 A    
C8    C10   1.385885 A    
N1    C23   1.363465 A    
C12   C14   1.414369 A    
C17   C18   1.462728 S    
O1    C1    1.295107 A    
O5    Cu1   1.973641 S    
O6    C4    1.279707 A    
C6    Cl2   1.777866 S    
C26   H12   1.081428 S    
C14   Cl4   1.770255 S    
C21   H7    1.081332 S    
O2    C2    1.293659 A    
Cu1   Cu2   2.671448 S    
N4    O12   1.301401 A    
O5    C3    1.279952 A    
C23   H9    1.081466 S    
N3    O9    1.301327 A    
C2    C12   1.461857 S    
O3    Cu2   1.956758 S    
N2    C24   1.363721 A    
Cu2   N1    2.006841 S    
C1    C11   1.464645 S    
C5    Cl1   1.777894 S    
C3    C5    1.433089 S    
C14   C16   1.405225 A    
Cu1   N2    2.006840 S    
C22   H8    1.081185 S    
C7    C17   1.397190 A    
C25   H11   1.081439 S    
C19   C21   1.406118 A    
C22   N2    1.363842 A    
C10   H4    1.083646 S    
O7    C3    1.289708 A    
C9    H3    1.083596 S    
C21   N1    1.363593 A    
C4    C6    1.433414 S    
O2    Cu2   1.951562 S    
C13   Cl3   1.770472 S    
N3    O10   1.301123 A    
O4    C2    1.289867 A    
O1    Cu1   1.951561 S    
C15   N3    1.437513 S    
C27   C28   1.514688 S    
C24   C26   1.406195 A    
C26   C28   1.410667 A    
C8    C18   1.397619 A    
C13   C15   1.405136 A    
C20   H6    1.081439 S    
C8    H2    1.083720 S    
C15   C17   1.409266 A    
C10   C12   1.399382 A    
O4    Cu1   1.956760 S    
C9    C11   1.400272 A    
C7    H1    1.083688 S    
C25   C27   1.410944 A    
C20   C28   1.410674 A    
O6    Cu2   1.973639 S    
C19   H5    1.081421 S    
O8    C4    1.290065 A    
C23   C25   1.406525 A    
C7    C9    1.386116 A    
C19   C27   1.410717 A    
C5    C6    1.355220 D    
C24   H10   1.080874 S    
N4    O11   1.301431 A    
O3    C1    1.289882 A    
O8    Cu1   1.973390 S    
C20   C22   1.406408 A    
