data_mof_unit_8379.cif
_audit_creation_date              2013-03-05T16:47:22-0500
_audit_creation_method            fapswitch 2.2
_symmetry_space_group_name_H-M    P1
_symmetry_Int_Tables_number       1
_space_group_crystal_system       triclinic
_cell_length_a                    10.884984
_cell_length_b                    10.930732
_cell_length_c                    9.695143
_cell_angle_alpha                 90.648771
_cell_angle_beta                  90.890836
_cell_angle_gamma                 90.278928
_cell_volume                      1153.30824211

loop_
_atom_site_label
_atom_site_type_symbol
_atom_site_description
_atom_site_fract_x
_atom_site_fract_y
_atom_site_fract_z
_atom_type_partial_charge
O1    O     O_R   0.500020 0.321960 0.617040 -0.589529
O2    O     O_R   0.499980 0.321920 0.382900 -0.525906
C1    C     C_R   0.502377 0.265232 0.498878 0.892020
O3    O     O_R   0.319660 0.500030 0.617070 -0.594482
O4    O     O_R   0.319620 0.499990 0.382930 -0.567822
C2    C     C_R   0.262209 0.502150 0.498661 0.784232
Cu1   Cu    Cu3+1 0.500020 0.500020 0.638630 0.941916
Cu2   Cu    Cu3+1 0.499980 0.499980 0.361370 0.965108
O5    O     O_R   0.500020 0.678080 0.617100 -0.586157
O6    O     O_R   0.499980 0.678040 0.382960 -0.581642
O7    O     O_R   0.680380 0.500010 0.617070 -0.566491
O8    O     O_R   0.680340 0.499970 0.382930 -0.587614
C3    C     C_R   0.503006 0.734652 0.500939 0.874210
C4    C     C_R   0.737718 0.498637 0.501415 0.802164
H1    H     H_    0.244212 0.611891 0.877109 0.151178
C5    C     C_R   0.207688 0.686957 0.078493 -0.139431
H2    H     H_    0.244684 0.776340 0.055259 0.128962
C6    C     C_R   0.160374 0.664227 0.209064 -0.103378
H3    H     H_    0.160538 0.736603 0.286304 0.114928
C7    C     C_R   0.112629 0.548223 0.239203 0.130219
C8    C     C_R   0.112347 0.455611 0.138041 -0.123408
H4    H     H_    0.075356 0.365851 0.159984 0.131673
C9    C     C_R   0.160226 0.478435 0.008219 -0.139832
H5    H     H_    0.161810 0.405518 0.932092 0.119817
C10   C     C_R   0.207192 0.594259 0.977930 -0.120376
C11   C     C_R   0.931411 0.520515 0.380173 -0.228299
H6    H     H_    0.879126 0.536754 0.286376 0.157229
C12   C     C_R   0.871604 0.498519 0.504063 -0.077016
C13   C     C_R   0.941154 0.479308 0.626212 -0.004498
C14   C     C_R   0.068191 0.482640 0.620452 -0.243491
H7    H     H_    0.120522 0.466097 0.713717 0.155079
C15   C     C_R   0.128141 0.504132 0.496459 -0.081434
C16   C     C_R   0.058425 0.524143 0.374674 -0.005911
C17   C     C_R   0.874582 0.549430 0.858956 -0.101380
H8    H     H_    0.905644 0.641089 0.835615 0.125297
C18   C     C_R   0.821919 0.526396 0.986669 -0.173929
H9    H     H_    0.811914 0.600222 0.060847 0.129404
C19   C     C_R   0.782250 0.408282 0.018401 -0.106355
H10   H     H_    0.742203 0.390352 0.117646 0.185597
C20   C     C_R   0.793847 0.313315 0.921732 -0.106337
H11   H     H_    0.762489 0.222081 0.946207 0.165580
C21   C     C_R   0.845654 0.336166 0.793375 -0.136588
H12   H     H_    0.854017 0.262152 0.718920 0.123806
C22   C     C_R   0.886161 0.454486 0.761458 0.129845
C23   C     C_2   0.524746 0.930815 0.389138 -0.192332
C24   C     C_2   0.514315 0.866518 0.505054 -0.396259
H13   H     H_    0.527180 0.884280 0.289568 0.195630
H14   H     H_    0.520358 0.909374 0.606300 0.156663
C25   C     C_2   0.538850 0.064123 0.389962 0.413044
C26   C     C_2   0.498415 0.132771 0.496483 -0.400276
H15   H     H_    0.455825 0.091642 0.585043 0.116134
C27   C     C_2   0.452572 0.412120 0.920316 -0.065670
N1    N     N_2   0.498640 0.498660 0.846910 -0.283117
H16   H     H_    0.409634 0.334680 0.867599 0.152963
H17   H     H_    0.539831 0.572210 0.895509 0.197111
C28   C     C_2   0.452426 0.412165 0.075910 -0.008311
N2    N     N_2   0.498610 0.498630 0.153040 -0.288448
H18   H     H_    0.409486 0.334781 0.125295 0.174388
H19   H     H_    0.539760 0.572186 0.107716 0.187850
Cl1   Cl    Cl    0.610628 0.126392 0.243845 -0.676328

loop_
_geom_bond_atom_site_label_1
_geom_bond_atom_site_label_2
_geom_bond_distance
_ccdc_geom_bond_type
O4    Cu2   1.977541 S    
C19   C20   1.398140 A    
C9    H5    1.080521 S    
C13   C14   1.385112 A    
Cu2   N2    2.019499 S    
C11   C16   1.384790 A    
C11   C12   1.397733 A    
C23   C25   1.464394 S    
Cu2   O8    1.971077 S    
C15   C16   1.413304 A    
C20   C21   1.398760 A    
C26   H15   1.083195 S    
O8    C4    1.299237 A    
Cu1   Cu2   2.688065 S    
C5    C6    1.398435 A    
O1    Cu1   1.955192 S    
C8    H4    1.083310 S    
C27   N1    1.294013 D    
C14   C15   1.398370 A    
C11   H6    1.082087 S    
C14   H7    1.078637 S    
C25   Cl1   1.769638 S    
C21   C22   1.403782 A    
C18   H9    1.081855 S    
O3    Cu1   1.971079 S    
C7    C16   1.474065 S    
C18   C19   1.398449 A    
C12   C13   1.413860 A    
C1    C26   1.448236 S    
C27   H16   1.084024 S    
C17   H8    1.083300 S    
C17   C18   1.397444 A    
C8    C9    1.394367 A    
C13   C22   1.477200 S    
O4    C2    1.292819 A    
O7    C4    1.291713 A    
C24   H14   1.083777 S    
N2    H19   1.025080 S    
H1    C10   1.082001 S    
C21   H12   1.083242 S    
Cu1   N1    2.019815 S    
N1    H17   1.025043 S    
Cu1   O5    1.959836 S    
C9    C10   1.399007 A    
C17   C22   1.403286 A    
C7    C8    1.401479 A    
C6    C7    1.403564 A    
O3    C2    1.299200 A    
C25   C26   1.350236 D    
C23   H13   1.086794 S    
C5    C10   1.398107 A    
C28   N2    1.293389 D    
C6    H3    1.083139 S    
O5    C3    1.291697 A    
C3    C24   1.446093 S    
C20   H11   1.082538 S    
Cu1   O7    1.977540 S    
O2    C1    1.289957 A    
C4    C12   1.457183 S    
C23   C24   1.338241 D    
Cu2   O6    1.955192 S    
O2    Cu2   1.959835 S    
C27   C28   1.508525 S    
C2    C15   1.459411 S    
C28   H18   1.084198 S    
C5    H2    1.082344 S    
O1    C1    1.297125 A    
O6    C3    1.294193 A    
C19   H10   1.082004 S    
