data_mof_unit_21678.cif
_audit_creation_date              2013-03-05T15:51:07-0500
_audit_creation_method            fapswitch 2.2
_symmetry_space_group_name_H-M    P1
_symmetry_Int_Tables_number       1
_space_group_crystal_system       triclinic
_cell_length_a                    10.537818
_cell_length_b                    12.058758
_cell_length_c                    12.857668
_cell_angle_alpha                 92.821082
_cell_angle_beta                  90.523206
_cell_angle_gamma                 85.429922
_cell_volume                      1626.67168547

loop_
_atom_site_label
_atom_site_type_symbol
_atom_site_description
_atom_site_fract_x
_atom_site_fract_y
_atom_site_fract_z
_atom_type_partial_charge
O1    O     O_R   0.506270 0.421700 0.658830 -0.576814
O2    O     O_R   0.493730 0.578300 0.341170 -0.576794
O3    O     O_R   0.491200 0.609310 0.646410 -0.651526
O4    O     O_R   0.508800 0.390690 0.353590 -0.651531
C1    C     C_R   0.497928 0.521699 0.700233 0.919986
C2    C     C_R   0.502074 0.478301 0.299767 0.919961
O5    O     O_R   0.693580 0.406210 0.506230 -0.595162
O6    O     O_R   0.306420 0.593790 0.493770 -0.595165
O7    O     O_R   0.678510 0.593830 0.493810 -0.610991
O8    O     O_R   0.321490 0.406170 0.506190 -0.611013
C3    C     C_R   0.742401 0.499224 0.498162 0.966162
C4    C     C_R   0.257599 0.500776 0.501837 0.966182
Zn1   Zn    Zn3+2 0.510060 0.374730 0.508290 1.025080
Zn2   Zn    Zn3+2 0.489940 0.625270 0.491710 1.025096
C5    C     C_3   0.969450 0.392991 0.501990 -0.192922
C6    C     C_3   0.030550 0.607010 0.498007 -0.192897
C7    C     C_3   0.043356 0.455968 0.586084 0.375233
C8    C     C_3   0.956645 0.544033 0.413913 0.375227
H1    H     H_    0.943702 0.305675 0.503625 0.223328
H2    H     H_    0.056296 0.694325 0.496375 0.223330
C9    C     C_3   0.122941 0.501881 0.502548 -0.139601
C10   C     C_3   0.877059 0.498119 0.497450 -0.139603
C11   C     C_3   0.050313 0.440155 0.416404 -0.303699
C12   C     C_3   0.949688 0.559845 0.583594 -0.303688
H3    H     H_    0.094163 0.393137 0.347630 0.186844
H4    H     H_    0.905837 0.606862 0.652368 0.186833
C13   C     C_R   0.500808 0.465060 0.188591 -0.048176
C14   C     C_R   0.499197 0.534939 0.811409 -0.048171
C15   C     C_R   0.553707 0.637768 0.968191 -0.133203
C16   C     C_R   0.446302 0.362230 0.031808 -0.133198
C17   C     C_R   0.541830 0.631248 0.860855 -0.194072
C18   C     C_R   0.458177 0.368751 0.139145 -0.194064
C19   C     C_R   0.464224 0.446932 0.868252 -0.121788
C20   C     C_R   0.535785 0.553065 0.131748 -0.121814
C21   C     C_R   0.477188 0.452002 0.974861 0.145159
C22   C     C_R   0.522822 0.547995 0.025139 0.145160
H5    H     H_    0.571279 0.626376 0.170594 0.207882
H6    H     H_    0.428731 0.373621 0.829406 0.207875
H7    H     H_    0.430831 0.300392 0.183454 0.159222
H8    H     H_    0.569173 0.699607 0.816546 0.159223
H9    H     H_    0.588160 0.711803 0.006375 0.168474
H10   H     H_    0.411850 0.288195 0.993624 0.168474
N1    N     N_R   0.523490 0.207800 0.519350 -0.164002
N2    N     N_R   0.476510 0.792200 0.480650 -0.164000
C23   C     C_R   0.391427 0.956500 0.393024 -0.191996
C24   C     C_R   0.608574 0.043499 0.606974 -0.192000
C25   C     C_R   0.400422 0.839595 0.405008 0.432049
C26   C     C_R   0.599573 0.160405 0.594995 0.432052
C27   C     C_R   0.545018 0.856996 0.545933 -0.084158
C28   C     C_R   0.454986 0.143003 0.454063 -0.084170
C29   C     C_R   0.538589 0.974870 0.539073 -0.030261
C30   C     C_R   0.461415 0.025129 0.460924 -0.030255
H11   H     H_    0.394316 0.184966 0.397777 0.130219
H12   H     H_    0.605691 0.815032 0.602218 0.130216
N3    N     N_R   0.089526 0.407955 0.682546 0.220576
O9    O     O_R   0.009221 0.370875 0.745998 -0.294980
O10   O     O_R   0.209195 0.406360 0.708241 -0.419796
N4    N     N_R   0.910484 0.592044 0.317448 0.220572
O11   O     O_R   0.990815 0.629029 0.253950 -0.295007
O12   O     O_R   0.790791 0.593735 0.291799 -0.419768
N5    N     N_R   0.665621 0.230196 0.666517 0.246685
O13   O     O_R   0.630661 0.239297 0.763540 -0.384970
O14   O     O_R   0.778704 0.256500 0.642967 -0.328152
N6    N     N_R   0.334359 0.769803 0.333497 0.246689
O15   O     O_R   0.369332 0.760666 0.236476 -0.384955
O16   O     O_R   0.221256 0.743533 0.357049 -0.328167
C31   C     C_2   0.310894 0.005536 0.308463 0.495955
H13   H     H_    0.342422 0.073524 0.265735 0.030953
O17   O     O_2   0.207733 0.971136 0.286199 -0.467548
C32   C     C_2   0.689113 0.994462 0.691533 0.495978
H14   H     H_    0.657591 0.926470 0.734259 0.030947
O18   O     O_2   0.792272 0.028868 0.713796 -0.467546

loop_
_geom_bond_atom_site_label_1
_geom_bond_atom_site_label_2
_geom_bond_distance
_ccdc_geom_bond_type
N2    C27   1.360348 A    
N3    O9    1.300184 A    
C6    C9    1.538819 S    
C20   H5    1.084764 S    
C21   C22   1.413673 A    
O7    Zn2   1.993257 S    
C5    H1    1.109275 S    
C15   C22   1.397315 A    
C16   C21   1.397315 A    
O1    C1    1.290737 A    
C12   H4    1.110540 S    
N4    O12   1.299624 A    
C27   H12   1.079172 S    
C17   H8    1.083604 S    
C18   H7    1.083604 S    
O4    Zn1   2.007598 S    
N5    O14   1.299464 A    
C8    N4    1.457730 S    
C5    C10   1.538826 S    
C27   C29   1.424664 A    
C23   C31   1.489450 S    
C28   C30   1.424666 A    
C32   H14   1.084171 S    
N1    C26   1.372180 A    
C7    N3    1.457726 S    
N2    C25   1.372176 A    
C6    H2    1.109274 S    
C5    C11   1.554508 S    
C6    C12   1.554515 S    
O2    C2    1.290738 A    
C23   C25   1.421235 A    
C13   C20   1.392785 A    
C24   C26   1.421233 A    
C7    C12   1.533206 S    
C8    C11   1.533210 S    
C28   H11   1.079172 S    
O4    C2    1.288113 A    
C25   N6    1.429633 S    
C23   C30   1.416118 A    
N4    O11   1.300271 A    
C24   C29   1.416115 A    
C7    C9    1.520697 S    
C29   C30   1.415915 A    
C31   O17   1.220774 D    
N6    O16   1.299535 A    
O5    C3    1.279795 A    
C31   H13   1.084167 S    
C1    C14   1.430574 S    
C2    C13   1.430574 S    
O6    C4    1.279794 A    
O7    C3    1.281065 A    
O3    Zn2   2.007600 S    
O8    C4    1.281066 A    
C14   C19   1.392785 A    
N3    O10   1.299579 A    
C10   C12   1.536473 S    
O1    Zn1   1.989679 S    
Zn1   N1    2.018590 S    
Zn2   N2    2.018590 S    
C5    C7    1.533108 S    
O6    Zn2   2.000923 S    
C15   H9    1.084035 S    
C13   C18   1.400014 A    
C8    C10   1.520702 S    
C14   C17   1.400014 A    
O3    C1    1.288114 A    
O8    Zn1   1.993257 S    
N1    C28   1.360350 A    
C3    C10   1.418105 S    
C19   H6    1.084765 S    
N6    O15   1.300965 A    
C9    C11   1.536469 S    
C15   C17   1.383559 A    
C16   C18   1.383558 A    
C26   N5    1.429626 S    
C4    C9    1.418104 S    
C19   C21   1.375133 A    
C20   C22   1.375135 A    
C11   H3    1.110541 S    
N5    O13   1.300952 A    
O2    Zn2   1.989677 S    
C24   C32   1.489454 S    
O5    Zn1   2.000921 S    
C6    C8    1.533107 S    
C16   H10   1.084034 S    
C32   O18   1.220779 D    
