data_mof_unit_51814.cif
_audit_creation_date              2012-12-11T14:40:21-0500
_audit_creation_method            fapswitch 2.2
_symmetry_space_group_name_H-M    P1
_symmetry_Int_Tables_number       1
_space_group_crystal_system       triclinic
_cell_length_a                    19.802948
_cell_length_b                    10.876085
_cell_length_c                    19.505915
_cell_angle_alpha                 89.744128
_cell_angle_beta                  97.227617
_cell_angle_gamma                 90.215055
_cell_volume                      4167.71082779

loop_
_atom_site_label
_atom_site_type_symbol
_atom_type_description
_atom_site_fract_x
_atom_site_fract_y
_atom_site_fract_z
_atom_type_partial_charge
C1    C     C_R   0.706963 0.001445 0.365907 0.546483
C2    C     C_3   0.253580 0.400568 0.567089 0.025989
C3    C     C_2   0.622530 0.799124 0.533792 0.609545
C4    C     C_2   0.643173 0.168414 0.001737 0.578879
C5    C     C_2   0.357123 0.168792 0.998339 0.578807
C6    C     C_2   0.143188 0.668403 0.001728 0.578893
C7    C     C_2   0.857138 0.668801 0.998335 0.578594
C8    C     C_1   0.546654 0.384530 0.938813 0.284299
C9    C     C_1   0.454667 0.385202 0.059809 0.282877
C10   C     C_1   0.046675 0.884516 0.938801 0.284308
C11   C     C_1   0.954690 0.885219 0.059791 0.284600
C12   C     C_2   0.462748 0.954651 0.068160 0.639383
C13   C     C_3   0.247887 0.895476 0.433692 0.036274
C14   C     C_2   0.536683 0.954080 0.933279 0.641441
C15   C     C_2   0.962757 0.454657 0.068158 0.640624
C16   C     C_2   0.036692 0.454082 0.933267 0.641071
C17   C     C_3   0.745916 0.912618 0.569084 0.034008
C18   C     C_3   0.716783 0.513128 0.467239 -0.107072
C19   C     C_3   0.290540 0.497686 0.529095 -0.108750
C20   C     C_3   0.250337 0.022489 0.465321 -0.156584
C21   C     C_3   0.736777 0.044962 0.544348 -0.156759
C22   C     C_3   0.786000 0.529347 0.513681 -0.122287
C23   C     C_3   0.222036 0.522339 0.483181 -0.119043
C24   C     C_3   0.310936 0.979192 0.517571 -0.125761
C25   C     C_R   0.275891 0.955961 0.638321 0.541990
C26   C     C_3   0.674286 0.003987 0.493096 -0.147992
C27   C     C_3   0.816385 0.422589 0.476477 0.061730
C28   C     C_3   0.186517 0.423631 0.521996 0.059677
C29   C     C_3   0.308223 0.852075 0.485197 0.077571
C30   C     C_3   0.683794 0.871499 0.518771 0.080644
C31   C     C_3   0.793698 0.328465 0.527707 -0.132918
C32   C     C_3   0.203487 0.323755 0.471819 -0.123143
C33   C     C_3   0.258373 0.805549 0.534106 -0.140585
C34   C     C_3   0.731220 0.842718 0.464531 -0.111793
C35   C     C_3   0.762296 0.433611 0.564489 0.031904
C36   C     C_R   0.225514 0.450289 0.360390 0.533231
C37   C     C_3   0.240164 0.421581 0.433297 0.032105
C38   C     C_3   0.260772 0.932548 0.565748 0.033097
C39   C     C_3   0.722077 0.975526 0.439349 0.020548
C40   C     C_3   0.520692 0.271904 0.968797 -0.069093
C41   C     C_3   0.480048 0.272238 0.030544 -0.069754
C42   C     C_3   0.020710 0.771898 0.968790 -0.069556
C43   C     C_3   0.980067 0.772241 0.030537 -0.069885
C44   C     C_3   0.568002 0.170809 0.002191 -0.005629
C45   C     C_3   0.432306 0.171006 0.997848 -0.006299
C46   C     C_3   0.068018 0.670801 0.002185 -0.006301
C47   C     C_R   0.775598 0.454518 0.638218 0.534251
C48   C     C_3   0.932322 0.671011 0.997845 -0.006099
C49   C     C_3   0.528246 0.172456 0.064914 -0.041649
C50   C     C_3   0.472056 0.171924 0.935102 -0.042491
C51   C     C_3   0.028263 0.672456 0.064910 -0.042689
C52   C     C_3   0.972071 0.671921 0.935099 -0.042542
C53   C     C_R   0.534127 0.179716 0.337215 0.545169
C54   C     C_R   0.436913 0.183847 0.651646 0.541427
C55   C     C_R   0.057721 0.682765 0.348090 0.531035
C56   C     C_R   0.938026 0.683646 0.651597 0.533426
C57   C     C_3   0.480356 0.070772 0.032135 0.002689
C58   C     C_3   0.724490 0.314506 0.481980 -0.157609
C59   C     C_3   0.519532 0.070449 0.968558 0.002563
C60   C     C_3   0.980370 0.570774 0.032132 0.003050
C61   C     C_3   0.019544 0.570445 0.968555 0.002647
C62   C     C_1   0.762458 0.423757 0.903982 0.080988
C63   C     C_1   0.237698 0.424166 0.096079 0.080757
C64   C     C_1   0.262456 0.923750 0.903980 0.081454
C65   C     C_1   0.737697 0.924168 0.096080 0.080318
C66   C     C_1   0.747103 0.410344 0.034744 0.043962
C67   C     C_1   0.252946 0.410038 0.965231 0.043595
C68   C     C_1   0.247098 0.910336 0.034741 0.044325
C69   C     C_3   0.272097 0.300617 0.517442 -0.156341
C70   C     C_1   0.752947 0.910038 0.965232 0.043720
C71   C     C_1   0.753731 0.415300 0.963761 0.045152
C72   C     C_1   0.246396 0.415480 0.036290 0.045357
C73   C     C_1   0.253728 0.915292 0.963758 0.045306
C74   C     C_1   0.746395 0.915483 0.036291 0.044750
C75   C     C_1   0.742691 0.397724 0.095341 0.075303
C76   C     C_1   0.257306 0.397258 0.904641 0.074452
C77   C     C_1   0.242688 0.897717 0.095339 0.073608
C78   C     C_1   0.757307 0.897255 0.904642 0.073925
C79   C     C_R   0.740211 0.367308 0.360021 0.560227
C80   C     C_3   0.197283 0.849887 0.482208 -0.140066
C81   C     C_R   0.260412 0.365656 0.639040 0.561493
C82   C     C_R   0.239041 0.861280 0.362079 0.546277
C83   C     C_R   0.760113 0.863995 0.638563 0.543361
C84   C     C_R   0.721998 0.952115 0.163929 0.580751
C85   C     C_R   0.278042 0.951964 0.836073 0.571571
C86   C     C_R   0.221997 0.452118 0.163926 0.566609
C87   C     C_R   0.778043 0.451967 0.836074 0.567658
C88   C     C_R   0.558844 0.182090 0.135709 0.598925
C89   C     C_R   0.441295 0.181540 0.864330 0.600719
C90   C     C_R   0.058852 0.682091 0.135710 0.601555
C91   C     C_3   0.793560 0.884679 0.514794 -0.140089
C92   C     C_R   0.941302 0.681539 0.864331 0.601317
C93   C     C_R   0.735985 0.361393 0.164669 0.579560
C94   C     C_R   0.264053 0.361208 0.835362 0.580834
C95   C     C_R   0.235984 0.861390 0.164668 0.574657
C96   C     C_R   0.764054 0.861204 0.835364 0.576839
C97   C     C_1   0.457197 0.177434 0.583891 -0.003325
C98   C     C_1   0.505560 0.171698 0.400875 0.008818
C99   C     C_1   0.962256 0.676994 0.585907 -0.011797
C100  C     C_1   0.029372 0.675196 0.411652 0.001114
C101  C     C_1   0.487926 0.170343 0.457677 -0.018872
C102  C     C_3   0.748579 0.407837 0.431018 0.030020
C103  C     C_1   0.471466 0.173175 0.525773 -0.029074
C104  C     C_1   0.007260 0.673127 0.466184 0.022538
C105  C     C_1   0.982575 0.673989 0.530506 0.009175
C106  C     C_3   0.693378 0.419986 0.519721 -0.098728
C107  C     C_3   0.308437 0.398600 0.477788 -0.108996
C108  C     C_3   0.200148 0.978356 0.515330 -0.108132
C109  C     C_3   0.784416 0.018331 0.488642 -0.113791
C110  C     C_2   0.883345 0.423445 0.448627 0.592236
C111  C     C_2   0.120677 0.440054 0.550743 0.584326
C112  C     C_2   0.373820 0.796563 0.469087 0.612989
Cr1   Cr    Cr6+3 0.765830 0.160660 0.268180 1.078186
Cr2   Cr    Cr6+3 0.384070 0.324050 0.751550 1.064976
Cr3   Cr    Cr6+3 0.115930 0.824050 0.248450 1.064260
Cr4   Cr    Cr6+3 0.884070 0.824050 0.751550 1.063819
Cr5   Cr    Cr6+3 0.234170 0.160660 0.731820 1.074428
Cr6   Cr    Cr6+3 0.265830 0.660660 0.268180 1.080199
Cr7   Cr    Cr6+3 0.734170 0.660660 0.731820 1.083027
Cr8   Cr    Cr6+3 0.612110 0.009150 0.248770 1.093772
Cr9   Cr    Cr6+3 0.387890 0.009150 0.751230 1.100411
Cr10  Cr    Cr6+3 0.112110 0.509150 0.248770 1.096053
Cr11  Cr    Cr6+3 0.887890 0.509150 0.751230 1.098885
Cr12  Cr    Cr6+3 0.615930 0.324050 0.248450 1.063819
H1    H     H_    0.695569 0.232164 0.462978 0.113167
H2    H     H_    0.326736 0.561804 0.558269 0.176851
H3    H     H_    0.248879 0.104684 0.431581 0.121931
H4    H     H_    0.737766 0.122713 0.580998 0.127460
H5    H     H_    0.358351 0.029950 0.534351 0.116712
H6    H     H_    0.624914 0.052681 0.482626 0.121092
H7    H     H_    0.811950 0.617207 0.529218 0.093504
H8    H     H_    0.198841 0.609851 0.464005 0.101351
H9    H     H_    0.826354 0.255532 0.554194 0.146463
H10   H     H_    0.167287 0.253862 0.447407 0.148036
H11   H     H_    0.259348 0.723868 0.568039 0.131180
H12   H     H_    0.295699 0.214376 0.538078 0.111514
H13   H     H_    0.730816 0.764103 0.428771 0.139841
H14   H     H_    0.937216 0.484082 0.374344 0.353913
H15   H     H_    0.072055 0.520697 0.623159 0.354580
H16   H     H_    0.456964 0.815822 0.419882 0.354792
H17   H     H_    0.541642 0.788910 0.586881 0.354720
H18   H     H_    0.721235 0.165259 0.944753 0.326934
H19   H     H_    0.279077 0.165983 0.055374 0.326773
H20   H     H_    0.221246 0.665248 0.944738 0.327290
H21   H     H_    0.779092 0.665992 0.055370 0.327358
H22   H     H_    0.391705 0.852925 0.107412 0.346786
H23   H     H_    0.149189 0.799847 0.465823 0.112665
H24   H     H_    0.607577 0.851198 0.895570 0.347113
H25   H     H_    0.891713 0.352960 0.107430 0.346906
H26   H     H_    0.107574 0.351239 0.895511 0.346806
H27   H     H_    0.843097 0.836428 0.525059 0.117345
H28   H     H_    0.643187 0.417310 0.539420 0.157069
H29   H     H_    0.358005 0.386272 0.457760 0.147208
H30   H     H_    0.155959 0.030039 0.530039 0.154506
H31   H     H_    0.825574 0.078723 0.473892 0.158156
H32   H     H_    0.683998 0.581780 0.437555 0.170306
N1    N     N_1   0.567171 0.472971 0.915388 -0.249567
N2    N     N_1   0.434603 0.473913 0.082672 -0.249281
N3    N     N_1   0.067195 0.972951 0.915371 -0.249279
N4    N     N_1   0.934629 0.973942 0.082644 -0.247247
O1    O     O_R   0.783230 0.287800 0.346510 -0.503203
O2    O     O_R   0.454570 0.285140 0.836900 -0.495063
O3    O     O_R   0.045430 0.785140 0.163100 -0.493170
O4    O     O_R   0.954570 0.785140 0.836900 -0.494185
O5    O     O_R   0.677850 0.374730 0.185500 -0.506069
O6    O     O_R   0.322150 0.374730 0.814500 -0.506985
O7    O     O_R   0.177850 0.874730 0.185500 -0.508186
O8    O     O_R   0.822150 0.874730 0.814500 -0.508008
O9    O     O_3   0.664630 0.164620 0.255130 -0.315512
O10   O     O_3   0.335370 0.164620 0.744870 -0.314650
O11   O     O_3   0.164630 0.664620 0.255130 -0.307161
O12   O     O_R   0.216770 0.287800 0.653490 -0.493583
O13   O     O_3   0.835370 0.664620 0.744870 -0.311313
O14   O     O_R   0.760130 0.037060 0.338610 -0.495248
O15   O     O_R   0.239870 0.037060 0.661390 -0.508319
O16   O     O_R   0.260130 0.537060 0.338610 -0.496503
O17   O     O_R   0.739870 0.537060 0.661390 -0.498436
O18   O     O_R   0.666620 0.921370 0.332440 -0.505506
O19   O     O_R   0.333380 0.921370 0.667560 -0.518600
O20   O     O_R   0.166620 0.421370 0.332440 -0.520120
O21   O     O_R   0.833380 0.421370 0.667560 -0.518041
O22   O     O_R   0.557170 0.082420 0.312350 -0.504619
O23   O     O_R   0.283230 0.787800 0.346510 -0.485289
O24   O     O_R   0.442830 0.082420 0.687650 -0.472728
O25   O     O_R   0.057170 0.582420 0.312350 -0.482882
O26   O     O_R   0.942830 0.582420 0.687650 -0.479414
O27   O     O_R   0.548310 0.285980 0.316250 -0.497884
O28   O     O_R   0.451690 0.285980 0.683750 -0.485762
O29   O     O_R   0.048310 0.785980 0.316250 -0.486960
O30   O     O_R   0.951690 0.785980 0.683750 -0.486416
O31   O     O_R   0.680520 0.375500 0.327470 -0.508805
O32   O     O_R   0.319480 0.375500 0.672530 -0.523991
O33   O     O_R   0.180520 0.875500 0.327470 -0.520876
O34   O     O_R   0.716770 0.787800 0.653490 -0.484045
O35   O     O_R   0.819480 0.875500 0.672530 -0.521771
O36   O     O_R   0.780350 0.286970 0.193350 -0.487115
O37   O     O_R   0.219650 0.286970 0.806650 -0.485613
O38   O     O_R   0.280350 0.786970 0.193350 -0.487183
O39   O     O_R   0.719650 0.786970 0.806650 -0.485079
O40   O     O_R   0.757460 0.036290 0.196640 -0.472795
O41   O     O_R   0.242540 0.036290 0.803360 -0.475805
O42   O     O_R   0.257460 0.536290 0.196640 -0.478940
O43   O     O_R   0.742540 0.536290 0.803360 -0.477364
O44   O     O_R   0.663740 0.920540 0.179290 -0.481742
O45   O     O_R   0.554500 0.081650 0.170370 -0.464374
O46   O     O_R   0.336260 0.920540 0.820710 -0.485093
O47   O     O_R   0.163740 0.420540 0.179290 -0.486715
O48   O     O_R   0.836260 0.420540 0.820710 -0.486225
O49   O     O_2   0.928700 0.354461 0.473135 -0.465203
O50   O     O_R   0.892277 0.499323 0.392538 -0.692542
O51   O     O_2   0.071580 0.376155 0.529928 -0.462547
O52   O     O_R   0.116852 0.525506 0.603312 -0.701890
O53   O     O_2   0.393176 0.697968 0.494219 -0.535989
O54   O     O_R   0.413440 0.860727 0.426310 -0.678644
O55   O     O_2   0.607244 0.703445 0.503157 -0.539180
O56   O     O_R   0.445500 0.081650 0.829630 -0.457767
O57   O     O_R   0.582044 0.844196 0.581722 -0.666756
O58   O     O_2   0.680765 0.163195 0.056127 -0.571260
O59   O     O_R   0.669760 0.170592 0.938740 -0.662038
O60   O     O_2   0.319492 0.163239 0.943996 -0.570778
O61   O     O_R   0.330565 0.171492 0.061329 -0.663920
O62   O     O_2   0.180782 0.663185 0.056115 -0.569977
O63   O     O_R   0.169771 0.670581 0.938728 -0.660529
O64   O     O_2   0.819508 0.663243 0.943992 -0.570735
O65   O     O_R   0.830580 0.671504 0.061325 -0.659134
O66   O     O_2   0.507019 0.878316 0.084796 -0.473242
O67   O     O_R   0.054500 0.581650 0.170370 -0.458085
O68   O     O_R   0.396601 0.934255 0.082884 -0.668585
O69   O     O_2   0.491955 0.878342 0.916450 -0.473474
O70   O     O_R   0.602977 0.932654 0.919605 -0.666900
O71   O     O_2   0.007022 0.378307 0.084784 -0.473920
O72   O     O_R   0.896612 0.434285 0.082898 -0.666574
O73   O     O_2   0.991968 0.378329 0.916458 -0.474040
O74   O     O_R   0.102977 0.432687 0.919556 -0.666708
O75   O     O_R   0.945500 0.581650 0.829630 -0.457990
O76   O     O_R   0.545430 0.285140 0.163100 -0.498913

loop_
_geom_bond_atom_site_label_1
_geom_bond_atom_site_label_2
_ccdc_geom_bond_type
C44   C49   S    
C96   O39   A    
C5    O61   S    
C21   C26   S    
C7    O64   D    
C22   H7    S    
C70   C78   T    
C2    C28   S    
C15   C60   S    
C89   O2    A    
C29   C112  S    
C36   O20   A    
C88   O45   A    
C47   O21   A    
C35   C47   S    
C85   O41   A    
C94   O6    A    
C69   C107  S    
Cr2   O28   S    
Cr9   O19   S    
C110  O50   S    
Cr6   O23   S    
C84   O40   A    
Cr10  O20   S    
C22   C35   S    
C32   H10   S    
C45   C57   S    
C6    O62   D    
Cr7   O17   S    
C112  O53   D    
Cr4   O13   S    
C46   C51   S    
Cr7   O39   S    
Cr8   O45   S    
C55   O29   A    
C31   C58   S    
C13   C29   S    
C36   C37   S    
C37   C107  S    
C52   C61   S    
C51   C90   S    
C42   C46   S    
C15   O72   S    
C53   C98   S    
C26   C39   S    
C12   O68   S    
C5    O60   D    
C10   C42   S    
Cr10  O67   S    
C44   C59   S    
C3    O55   D    
C29   C33   S    
C100  C104  T    
C49   C57   S    
C67   C72   S    
C18   C102  S    
C81   O12   A    
C87   O43   A    
Cr8   O18   S    
C34   C91   S    
C14   O69   D    
H17   O57   S    
C24   C29   S    
Cr4   O35   S    
Cr9   O24   S    
Cr5   O10   S    
C80   H23   S    
Cr12  O9    S    
C20   C24   S    
C27   C110  S    
C78   C96   S    
H20   O63   S    
C17   C91   S    
C55   C100  S    
Cr11  O48   S    
C24   C38   S    
C64   C73   T    
C96   O8    A    
C79   C102  S    
C11   C43   S    
C58   C102  S    
C112  O54   S    
C33   H11   S    
C2    C69   S    
C6    C46   S    
C43   C48   S    
C86   O42   A    
C40   C44   S    
C26   H6    S    
C23   H8    S    
C31   H9    S    
C48   C60   S    
C76   C94   S    
Cr5   O15   S    
H18   O59   S    
Cr9   O10   S    
Cr3   O33   S    
C13   C80   S    
C93   O5    A    
C101  C103  S    
C79   O31   A    
Cr3   O3    S    
C17   C30   S    
C49   C88   S    
Cr6   O42   S    
Cr9   O46   S    
C79   O1    A    
Cr5   O41   S    
C8    N1    T    
C24   H5    S    
C41   C49   S    
C104  C105  S    
Cr11  O13   S    
C85   O46   A    
Cr2   O6    S    
C28   C111  S    
C111  O52   S    
C56   O30   A    
C1    O14   A    
C10   N3    T    
Cr2   O32   S    
C30   C34   S    
C46   C61   S    
C27   C31   S    
C34   C39   S    
Cr9   O56   S    
Cr6   O11   S    
C90   O67   A    
C28   C32   S    
C106  H28   S    
H22   O68   S    
C20   H3    S    
Cr3   O11   S    
C83   O35   A    
C65   C84   S    
Cr1   O9    S    
C7    O65   S    
C68   C73   S    
H26   O74   S    
H21   O65   S    
C13   C82   S    
C77   C95   S    
C17   C21   S    
C65   C74   T    
C60   C61   S    
C17   C83   S    
Cr12  O76   S    
C3    C30   S    
C19   C23   S    
C18   C106  S    
C81   O32   A    
C70   C74   S    
C14   C59   S    
C25   C38   S    
C1    O18   A    
C25   O15   A    
C50   C89   S    
C12   O66   D    
C66   C71   S    
C39   C109  S    
C3    O57   S    
C4    O59   S    
C34   H13   S    
Cr7   O43   S    
C54   C97   S    
C97   C103  T    
C32   C37   S    
C21   H4    S    
C107  H29   S    
C89   O56   A    
Cr11  O75   S    
C12   C57   S    
C40   C41   S    
C27   C102  S    
C56   O26   A    
C26   C30   S    
C69   H12   S    
C4    O58   D    
C22   C27   S    
C82   O33   A    
C63   C86   S    
Cr8   O44   S    
C88   O76   A    
C31   C35   S    
C52   C92   S    
C110  O49   D    
C23   C28   S    
C16   C61   S    
C50   C59   S    
Cr3   O7    S    
Cr6   O38   S    
C64   C85   S    
C18   H32   S    
C75   C93   S    
C6    O63   S    
C68   C77   T    
Cr2   O10   S    
Cr4   O30   S    
C92   O75   A    
C13   C20   S    
C15   O71   D    
C2    C19   S    
C18   C22   S    
H25   O72   S    
Cr10  O47   S    
Cr4   O4    S    
C57   C59   S    
C9    N2    T    
Cr10  O25   S    
C95   O7    A    
C86   O47   A    
H19   O61   S    
Cr12  O27   S    
C21   C109  S    
C93   O36   A    
C25   O19   A    
C33   C80   S    
C36   O16   A    
C32   C69   S    
C51   C60   S    
H16   O54   S    
H15   O52   S    
C98   C101  T    
C4    C44   S    
C62   C87   S    
C80   C108  S    
C19   H2    S    
C9    C41   S    
C33   C38   S    
C90   O3    A    
C94   O37   A    
C7    C48   S    
C91   C109  S    
C83   O34   A    
C92   O4    A    
C53   O27   A    
Cr5   O37   S    
Cr11  O21   S    
C35   C106  S    
C23   C37   S    
C53   O22   A    
Cr7   O13   S    
C91   H27   S    
C11   N4    T    
Cr5   O12   S    
C43   C51   S    
C16   O73   D    
C5    C45   S    
C45   C50   S    
Cr11  O26   S    
C95   O38   A    
C40   C50   S    
C66   C75   T    
C82   O23   A    
Cr8   O9    S    
Cr1   O36   S    
Cr1   O40   S    
H14   O50   S    
C62   C71   T    
C54   O24   A    
C55   O25   A    
C38   C108  S    
C109  H31   S    
C99   C105  T    
C111  O51   D    
C87   O48   A    
C14   O70   S    
Cr2   O2    S    
Cr7   O34   S    
C1    C39   S    
Cr1   O1    S    
Cr12  O5    S    
Cr3   O29   S    
C48   C52   S    
H24   O70   S    
C63   C72   T    
C58   H1    S    
C47   O17   A    
Cr10  O11   S    
C42   C43   S    
C108  H30   S    
C41   C45   S    
Cr4   O8    S    
C2    C81   S    
C54   O28   A    
C67   C76   T    
C8    C40   S    
C56   C99   S    
C58   C106  S    
C84   O44   A    
Cr8   O22   S    
C16   O74   S    
Cr6   O16   S    
Cr12  O31   S    
C42   C52   S    
Cr1   O14   S    
C20   C108  S    
C19   C107  S    
