data_mof_unit_43983.cif
_audit_creation_date              2012-12-11T15:55:37-0500
_audit_creation_method            fapswitch 2.2
_symmetry_space_group_name_H-M    P1
_symmetry_Int_Tables_number       1
_space_group_crystal_system       triclinic
_cell_length_a                    6.944934
_cell_length_b                    14.602442
_cell_length_c                    16.016159
_cell_angle_alpha                 90.01567
_cell_angle_beta                  89.745293
_cell_angle_gamma                 89.962914
_cell_volume                      1624.23021582

loop_
_atom_site_label
_atom_site_type_symbol
_atom_type_description
_atom_site_fract_x
_atom_site_fract_y
_atom_site_fract_z
_atom_type_partial_charge
O1    O     O_R   0.505680 0.583900 0.413320 -0.540077
O2    O     O_R   0.176010 0.594950 0.586080 -0.546007
O3    O     O_R   0.005680 0.416100 0.586680 -0.549433
C1    C     C_R   0.344511 0.616336 0.615371 0.680901
O4    O     O_R   0.175960 0.594930 0.413930 -0.513896
O5    O     O_R   0.005640 0.416080 0.413300 -0.500493
C2    C     C_R   0.345307 0.617004 0.385120 0.831964
O6    O     O_R   0.505720 0.583920 0.586700 -0.551395
O7    O     O_3   0.339190 0.441320 0.500000 -0.368296
V1    V     V_3+5 0.064350 0.510890 0.500000 1.550885
O8    O     O_R   0.675920 0.405050 0.413920 -0.533227
C3    C     C_R   0.844854 0.386166 0.382454 0.810601
O9    O     O_R   0.675960 0.405070 0.586070 -0.554772
C4    C     C_R   0.844550 0.383730 0.615406 0.663972
V2    V     V_3+5 0.564340 0.489110 0.500000 1.497514
O10   O     O_3   0.839370 0.558680 0.500000 -0.374061
C5    C     C_R   0.009779 0.317816 0.741600 0.107554
C6    C     C_R   0.852060 0.320043 0.687416 -0.100167
C7    C     C_R   0.696233 0.262311 0.706526 -0.180695
H1    H     H_    0.571370 0.261608 0.666793 0.141655
C8    C     C_R   0.705851 0.200105 0.773479 -0.115933
H2    H     H_    0.584847 0.155826 0.785000 0.163680
C9    C     C_R   0.874507 0.190652 0.821220 -0.100970
C10   C     C_R   0.021396 0.254161 0.806372 0.088086
C11   C     C_3   0.229866 0.238227 0.791305 -0.413969
C12   C     C_3   0.217750 0.308013 0.721196 -0.401668
H3    H     H_    0.258205 0.167430 0.768824 0.183770
H4    H     H_    0.319242 0.261430 0.844677 0.172473
H5    H     H_    0.240617 0.277988 0.658113 0.177951
H6    H     H_    0.299619 0.371850 0.734028 0.164187
C13   C     C_R   0.005185 0.265900 0.179678 0.082031
C14   C     C_R   0.989162 0.334998 0.242311 0.434519
C15   C     C_R   0.855686 0.322575 0.309449 -0.195132
C16   C     C_R   0.729168 0.247659 0.307140 -0.183010
H7    H     H_    0.623677 0.237967 0.356380 0.159740
C17   C     C_R   0.738854 0.183157 0.242926 -0.163293
H8    H     H_    0.639833 0.125851 0.243858 0.177517
C18   C     C_R   0.878905 0.189989 0.180020 -0.125953
C19   C     C_R   0.209812 0.692739 0.743755 -0.108236
H9    H     H_    0.085459 0.648065 0.741788 0.121172
C20   C     C_R   0.225751 0.756460 0.808762 -0.118362
H10   H     H_    0.113885 0.758303 0.856019 0.161613
C21   C     C_R   0.384114 0.816471 0.813594 -0.175401
C22   C     C_R   0.530078 0.809923 0.750982 0.396490
C23   C     C_R   0.515619 0.742967 0.688404 -0.211146
H11   H     H_    0.626806 0.738022 0.641013 0.178582
C24   C     C_R   0.355692 0.684938 0.683421 -0.109598
C25   C     C_R   0.219024 0.755972 0.312242 -0.187585
H12   H     H_    0.105767 0.759137 0.358843 0.174523
C26   C     C_R   0.230942 0.824292 0.250572 0.463991
C27   C     C_R   0.377812 0.819370 0.188287 -0.167285
C28   C     C_R   0.516067 0.749141 0.194315 -0.169322
H13   H     H_    0.631156 0.743973 0.148684 0.157931
C29   C     C_R   0.506876 0.684007 0.258404 -0.107593
H14   H     H_    0.615469 0.630805 0.260963 0.167423
C30   C     C_R   0.356595 0.686044 0.317254 -0.113697
O11   O     O_R   0.229200 0.915950 0.913350 -0.532200
O12   O     O_R   0.559090 0.905000 0.086080 -0.533680
O13   O     O_R   0.729280 0.083880 0.086680 -0.552913
C31   C     C_R   0.389878 0.885360 0.117127 0.764233
O14   O     O_R   0.558920 0.904980 0.913920 -0.507213
O15   O     O_R   0.729110 0.083860 0.913300 -0.535550
C32   C     C_R   0.391264 0.884407 0.883462 0.735049
O16   O     O_R   0.229360 0.915970 0.086730 -0.509187
O17   O     O_3   0.395680 0.058580 0.000030 -0.390623
V3    V     V_3+5 0.670570 0.989070 0.999990 1.614481
O18   O     O_R   0.058820 0.094950 0.913870 -0.551074
C33   C     C_R   0.889524 0.118258 0.886066 0.754944
O19   O     O_R   0.058990 0.094970 0.086020 -0.506075
C34   C     C_R   0.889681 0.118320 0.113887 0.812505
V4    V     V_3+5 0.170560 0.010930 0.999930 1.593286
O20   O     O_3   0.895590 0.941310 0.999960 -0.345095
S1    S     S_3+6 0.719896 0.890251 0.741363 -0.004333
O21   O     O_2   0.857902 0.880059 0.812581 -0.329327
O22   O     O_2   0.828739 0.877418 0.660829 -0.324169
O23   O     O_3   0.625570 0.995853 0.743229 -0.520377
H15   H     H_    0.534950 0.997568 0.695658 0.327474
S2    S     S_3+6 0.071875 0.918816 0.259504 -0.014391
O24   O     O_2   0.915933 0.910928 0.195228 -0.341084
O25   O     O_2   0.980863 0.920776 0.344889 -0.334812
O26   O     O_3   0.196025 0.016380 0.244361 -0.522807
H16   H     H_    0.124824 0.063845 0.276117 0.351983
N1    N     N_3   0.146034 0.271997 0.114181 -0.647338
H17   H     H_    0.104763 0.322916 0.072178 0.270267
H18   H     H_    0.281094 0.286151 0.139679 0.282497
S3    S     S_3+6 0.129675 0.437399 0.235521 -0.049109
O27   O     O_2   0.011753 0.517391 0.265450 -0.362416
O28   O     O_2   0.303306 0.426514 0.290322 -0.355289
O29   O     O_3   0.204771 0.461202 0.137992 -0.527513
H19   H     H_    0.287434 0.516118 0.143730 0.359801

loop_
_geom_bond_atom_site_label_1
_geom_bond_atom_site_label_2
_ccdc_geom_bond_type
C18   C34   S    
C20   C21   A    
S1    O21   D    
C4    C6    S    
C7    H1    S    
C1    O6    A    
O26   H16   S    
C21   C32   S    
C19   C20   A    
C23   H11   S    
C28   H13   S    
C11   H4    S    
C5    C12   S    
C17   H8    S    
C7    C8    A    
C6    C7    A    
O13   V3    S    
O5    C3    A    
S2    O25   D    
O12   C31   A    
V2    O10   S    
C13   N1    S    
C5    C6    A    
C16   H7    S    
C20   H10   S    
O16   V4    S    
O19   V4    S    
O8    V2    S    
O14   V3    S    
O12   V3    S    
V3    O20   S    
C13   C14   A    
C9    C10   A    
O1    V2    S    
O7    V1    S    
O18   V4    S    
C25   C26   A    
O1    C2    A    
O9    C4    A    
S1    O22   D    
C22   S1    S    
C2    C30   S    
C26   S2    S    
C28   C29   A    
O11   C32   A    
C23   C24   A    
C29   C30   A    
C5    C10   A    
O15   V3    S    
S3    O28   D    
C27   C28   A    
C10   C11   S    
O29   H19   S    
C19   H9    S    
O4    C2    A    
S2    O24   D    
C26   C27   A    
C11   C12   S    
O17   V4    S    
O11   V4    S    
O18   C33   A    
C9    C33   S    
O2    C1    A    
C21   C22   A    
N1    H17   S    
C14   S3    S    
O14   C32   A    
C15   C16   A    
O23   H15   S    
O3    C4    A    
C25   H12   S    
N1    H18   S    
C12   H6    S    
O6    V2    S    
O9    V2    S    
S1    O23   S    
O2    V1    S    
C22   C23   A    
C19   C24   A    
C25   C30   A    
C29   H14   S    
S3    O27   D    
S3    O29   S    
O5    V1    S    
O8    C3    A    
C11   H3    S    
C13   C18   A    
O15   C33   A    
C31   O16   A    
C14   C15   A    
C8    C9    A    
O7    V2    S    
V4    O20   S    
O3    V1    S    
V1    O10   S    
S2    O26   S    
C17   C18   A    
C16   C17   A    
O19   C34   A    
O13   C34   A    
O4    V1    S    
C12   H5    S    
O17   V3    S    
C27   C31   S    
C3    C15   S    
C8    H2    S    
C1    C24   S    
