data_mof_unit_57188.cif
_audit_creation_date              2012-12-10T16:57:08-0500
_audit_creation_method            fapswitch 2.2
_symmetry_space_group_name_H-M    P1
_symmetry_Int_Tables_number       1
_space_group_crystal_system       triclinic
_cell_length_a                    8.142026
_cell_length_b                    8.589756
_cell_length_c                    17.143763
_cell_angle_alpha                 102.336429
_cell_angle_beta                  77.508169
_cell_angle_gamma                 92.292366
_cell_volume                      1143.56277231

loop_
_atom_site_label
_atom_site_type_symbol
_atom_type_description
_atom_site_fract_x
_atom_site_fract_y
_atom_site_fract_z
_atom_type_partial_charge
C1    C     C_R   0.543145 0.793219 0.498605 0.933298
C2    C     C_R   0.409135 0.420233 0.223533 -0.217059
C3    C     C_R   0.580836 0.587834 0.858584 -0.155706
C4    C     C_R   0.419164 0.412183 0.141416 -0.155706
C5    C     C_R   0.434542 0.537852 0.906239 0.208438
C6    C     C_R   0.565458 0.462171 0.093762 0.208437
C7    C     C_R   0.292837 0.493699 0.872753 -0.183570
C8    C     C_R   0.707162 0.506322 0.127250 -0.183572
C9    C     C_R   0.302153 0.487474 0.790045 -0.205628
C10   C     C_R   0.697846 0.512539 0.209957 -0.205628
C11   C     C_2   0.431385 0.523446 0.989704 -0.240184
C12   C     C_R   0.456854 0.206781 0.501395 0.933296
C13   C     C_2   0.568615 0.476582 0.010298 -0.240184
C14   C     C_R   0.005286 0.305744 0.416949 0.247164
C15   C     C_R   0.885460 0.217110 0.376130 -0.130882
C16   C     C_R   0.909542 0.060519 0.330803 -0.219007
C17   C     C_R   0.062936 0.986025 0.317265 -0.064673
C18   C     C_R   0.193175 0.073774 0.343922 -0.209703
C19   C     C_R   0.165197 0.230698 0.388814 -0.160222
C20   C     C_R   0.994715 0.694257 0.583051 0.247163
C21   C     C_R   0.114540 0.782892 0.623868 -0.130882
C22   C     C_R   0.090460 0.939484 0.669193 -0.219007
C23   C     C_2   0.566128 0.956133 0.498118 -0.385002
C24   C     C_R   0.937068 0.013980 0.682729 -0.064674
C25   C     C_R   0.806828 0.926230 0.656074 -0.209700
C26   C     C_R   0.834804 0.769303 0.611184 -0.160221
C27   C     C_2   0.433872 0.043866 0.501882 -0.385001
C28   C     C_R   0.472961 0.507216 0.653500 0.811409
C29   C     C_R   0.527038 0.492785 0.346500 0.811408
C30   C     C_R   0.453519 0.525422 0.741211 -0.012259
C31   C     C_R   0.546481 0.474584 0.258789 -0.012257
C32   C     C_R   0.590866 0.579776 0.776466 -0.217060
H1    H     H_    0.707503 0.614027 0.740497 0.158438
H2    H     H_    0.688953 0.629889 0.884212 0.130337
H3    H     H_    0.692794 0.003585 0.494761 0.209224
H4    H     H_    0.307206 0.996415 0.505238 0.209224
H5    H     H_    0.769575 0.261947 0.375001 0.203781
H6    H     H_    0.808946 0.998460 0.304871 0.140175
H7    H     H_    0.083632 0.865355 0.281864 0.134417
H8    H     H_    0.318731 0.022703 0.327077 0.138703
H9    H     H_    0.277720 0.284856 0.391451 0.201411
H10   H     H_    0.230424 0.738053 0.625000 0.203780
H11   H     H_    0.191057 0.001544 0.695124 0.140175
H12   H     H_    0.292499 0.385978 0.259501 0.158439
H13   H     H_    0.916373 0.134652 0.718127 0.134418
H14   H     H_    0.681272 0.977302 0.672917 0.138703
H15   H     H_    0.722280 0.715145 0.608549 0.201409
H16   H     H_    0.805750 0.552720 0.236190 0.153313
H17   H     H_    0.194248 0.447291 0.763813 0.153312
H18   H     H_    0.687293 0.454094 0.966160 0.146016
H19   H     H_    0.312707 0.545933 0.033843 0.146016
H20   H     H_    0.178169 0.457431 0.909639 0.122133
H21   H     H_    0.821829 0.542594 0.090366 0.122133
H22   H     H_    0.311048 0.370130 0.115787 0.130337
N1    N     N_2   0.953500 0.457650 0.478520 -0.109841
N2    N     N_2   0.046500 0.542350 0.521480 -0.109841
O1    O     O_R   0.388470 0.738640 0.505270 -0.629859
O2    O     O_R   0.611530 0.261360 0.494730 -0.629860
O3    O     O_R   0.679650 0.711510 0.491500 -0.632106
O4    O     O_R   0.320350 0.288490 0.508500 -0.632107
O5    O     O_R   0.337210 0.515200 0.623500 -0.650891
O6    O     O_R   0.662790 0.484800 0.376500 -0.650891
O7    O     O_R   0.628380 0.488060 0.609730 -0.639852
O8    O     O_R   0.371620 0.511940 0.390270 -0.639852
Zn1   Zn    Zn3+2 0.305580 0.518120 0.509190 0.908190
Zn2   Zn    Zn3+2 0.694420 0.481880 0.490810 0.908190

loop_
_geom_bond_atom_site_label_1
_geom_bond_atom_site_label_2
_ccdc_geom_bond_type
C8    H21   S    
C7    H20   S    
C2    C4    A    
N1    N2    D    
C24   C25   A    
C1    C23   S    
C1    O1    A    
C27   H4    S    
N2    Zn1   S    
C23   H3    S    
C22   H11   S    
C17   C18   A    
C20   N2    S    
C12   O2    A    
O8    Zn1   S    
C3    C5    A    
C28   C30   S    
C14   N1    S    
O7    Zn2   S    
C29   C31   S    
C21   C22   A    
C28   O5    A    
C6    C13   S    
C30   C32   A    
C11   C13   D    
C16   C17   A    
C20   C26   A    
C9    C30   A    
C6    C8    A    
C24   H13   S    
C26   H15   S    
C4    C6    A    
O4    Zn1   S    
C5    C11   S    
C23   C27   D    
C1    O3    A    
O3    Zn2   S    
C10   H16   S    
C3    C32   A    
C22   C24   A    
C29   O8    A    
C11   H19   S    
C15   C16   A    
O6    Zn2   S    
C12   C27   S    
C13   H18   S    
C12   O4    A    
C28   O7    A    
O5    Zn1   S    
N1    Zn2   S    
C9    H17   S    
C20   C21   A    
C25   H14   S    
C8    C10   A    
C18   C19   A    
C17   H7    S    
C16   H6    S    
C5    C7    A    
C7    C9    A    
C14   C15   A    
C15   H5    S    
C18   H8    S    
C21   H10   S    
C3    H2    S    
C4    H22   S    
C25   C26   A    
C29   O6    A    
C14   C19   A    
O2    Zn2   S    
C19   H9    S    
C32   H1    S    
C2    H12   S    
C2    C31   A    
O1    Zn1   S    
C10   C31   A    
