data_mof_unit_68035.cif
_audit_creation_date              2012-12-11T14:35:58-0500
_audit_creation_method            fapswitch 2.2
_symmetry_space_group_name_H-M    P1
_symmetry_Int_Tables_number       1
_space_group_crystal_system       triclinic
_cell_length_a                    14.719622
_cell_length_b                    16.188745
_cell_length_c                    7.182303
_cell_angle_alpha                 89.383867
_cell_angle_beta                  80.860915
_cell_angle_gamma                 89.855706
_cell_volume                      1689.66241573

loop_
_atom_site_label
_atom_site_type_symbol
_atom_type_description
_atom_site_fract_x
_atom_site_fract_y
_atom_site_fract_z
_atom_type_partial_charge
O1    O     O_R   0.337460 0.413110 0.524760 -0.511619
O2    O     O_R   0.662540 0.913110 0.475240 -0.513702
O3    O     O_R   0.348690 0.587910 0.191230 -0.518257
O4    O     O_R   0.651310 0.087910 0.808770 -0.524925
O5    O     O_R   0.166530 0.586890 0.082470 -0.495517
O6    O     O_R   0.833470 0.086890 0.917530 -0.511587
C1    C     C_R   0.375392 0.611030 0.354782 0.606596
C2    C     C_R   0.624607 0.110816 0.644416 0.589160
O7    O     O_R   0.348700 0.413830 0.191250 -0.531058
O8    O     O_R   0.651300 0.913830 0.808750 -0.532834
O9    O     O_R   0.166530 0.411570 0.082490 -0.529650
O10   O     O_R   0.833470 0.911570 0.917510 -0.529754
C3    C     C_R   0.371420 0.387462 0.355437 0.783019
C4    C     C_R   0.628711 0.887177 0.645379 0.777690
O11   O     O_R   0.337460 0.588430 0.524740 -0.538047
O12   O     O_R   0.662540 0.088430 0.475260 -0.543013
O13   O     O_3   0.192230 0.499460 0.407330 -0.368535
O14   O     O_3   0.807770 0.999460 0.592670 -0.358424
V1    V     V_3+5 0.263080 0.500100 0.108540 1.597312
V2    V     V_3+5 0.736920 0.000100 0.891460 1.584356
O15   O     O_R   0.155290 0.412090 0.756570 -0.534468
O16   O     O_R   0.844710 0.912090 0.243430 -0.523776
C5    C     C_R   0.135248 0.382517 0.933929 0.747326
C6    C     C_R   0.865724 0.883572 0.067064 0.766713
O17   O     O_R   0.155290 0.586170 0.756550 -0.561299
O18   O     O_R   0.844710 0.086170 0.243450 -0.532799
C7    C     C_R   0.134420 0.616503 0.930742 0.734240
C8    C     C_R   0.866139 0.115719 0.067256 0.772444
V3    V     V_3+5 0.240910 0.499900 0.616030 1.548543
V4    V     V_3+5 0.759090 0.999900 0.383970 1.589409
O19   O     O_3   0.311760 0.500540 0.867100 -0.351233
O20   O     O_3   0.688240 0.000540 0.132900 -0.358482
C9    C     C_3   0.084336 0.751885 0.107982 0.316531
C10   C     C_3   0.920198 0.248717 0.880163 0.322569
H1    H     H_    0.148657 0.778690 0.036156 0.154766
H2    H     H_    0.851305 0.266352 0.945772 0.116804
C11   C     C_3   0.009325 0.820224 0.149421 -0.457763
C12   C     C_3   0.990792 0.320678 0.854453 -0.426754
H3    H     H_    0.039180 0.882867 0.136901 0.111031
H4    H     H_    0.954166 0.378175 0.891171 0.092219
H5    H     H_    0.977955 0.815705 0.295826 0.239739
H6    H     H_    0.020280 0.329449 0.706978 0.232794
C13   C     C_3   0.958320 0.653474 0.017078 0.434394
C14   C     C_3   0.040512 0.150284 0.980186 0.436834
C15   C     C_3   0.066070 0.746261 0.783711 0.154681
C16   C     C_3   0.931874 0.246145 0.207229 0.143704
C17   C     C_3   0.061192 0.687809 0.961852 -0.165521
C18   C     C_3   0.939520 0.186386 0.031393 -0.139294
H7    H     H_    0.055598 0.706126 0.664930 0.194226
H8    H     H_    0.939786 0.204775 0.327392 0.221380
C19   C     C_3   0.934597 0.812139 0.027774 -0.122009
C20   C     C_3   0.066601 0.310266 0.975239 -0.082458
C21   C     C_3   0.888569 0.726655 0.072831 0.051832
C22   C     C_3   0.112787 0.223598 0.938907 -0.004377
C23   C     C_3   0.983371 0.810771 0.815741 -0.104405
C24   C     C_3   0.015822 0.308344 0.184094 -0.116246
H9    H     H_    0.002552 0.874018 0.765555 0.138540
H10   H     H_    0.998132 0.370998 0.235609 0.146407
H11   H     H_    0.836115 0.723978 0.978950 0.177911
H12   H     H_    0.160112 0.216799 0.041581 0.156643
C25   C     C_2   0.449795 0.674904 0.353405 0.257318
C26   C     C_2   0.551257 0.175357 0.644994 0.270051
C27   C     C_2   0.460380 0.720092 0.512051 0.016191
C28   C     C_2   0.543786 0.223871 0.488065 0.003855
H13   H     H_    0.561307 0.775674 0.769216 0.173864
H14   H     H_    0.441367 0.277525 0.233379 0.172805
C29   C     C_2   0.565144 0.816055 0.647352 -0.314402
C30   C     C_2   0.436189 0.317417 0.354520 -0.317966
C31   C     C_2   0.519534 0.795619 0.501584 0.223001
C32   C     C_2   0.482872 0.297819 0.499304 0.230939
O21   O     O_3   0.109008 0.721872 0.275353 -0.531467
C33   C     C_3   0.156212 0.787699 0.348566 0.085899
H15   H     H_    0.109130 0.811915 0.466143 0.173529
H16   H     H_    0.169327 0.845822 0.263020 0.058759
C34   C     C_3   0.250655 0.759706 0.372999 -0.562312
H17   H     H_    0.243731 0.708246 0.475707 0.259075
H18   H     H_    0.287429 0.739874 0.233877 0.208814
H19   H     H_    0.290045 0.811165 0.420684 0.189507
O22   O     O_3   0.907488 0.220740 0.704156 -0.525122
C35   C     C_3   0.850734 0.280965 0.633293 0.080076
H20   H     H_    0.891183 0.313341 0.515376 0.189271
H21   H     H_    0.827983 0.335592 0.722424 0.057020
C36   C     C_3   0.762821 0.239745 0.612470 -0.526429
H22   H     H_    0.730373 0.220182 0.755726 0.198292
H23   H     H_    0.714414 0.281946 0.558243 0.199117
H24   H     H_    0.779278 0.186263 0.519157 0.255119
I1    I     I_    0.887060 0.783669 0.632202 -0.357336
I2    I     I_    0.106864 0.277916 0.377571 -0.362159
O23   O     O_3   0.924437 0.619857 0.859280 -0.562058
C37   C     C_3   0.962003 0.545831 0.784644 0.163265
H25   H     H_    0.995583 0.508449 0.883815 0.083938
H26   H     H_    0.012202 0.559971 0.656560 0.185166
C38   C     C_3   0.884272 0.498403 0.720050 -0.695177
H27   H     H_    0.913907 0.448970 0.623607 0.169065
H28   H     H_    0.837792 0.472663 0.843464 0.191189
H29   H     H_    0.842774 0.539894 0.642393 0.280989
O24   O     O_3   0.057475 0.104158 0.141813 -0.551774
C39   C     C_3   0.136405 0.053335 0.105085 0.105552
H30   H     H_    0.195473 0.083209 0.015319 0.139322
H31   H     H_    0.118776 0.997421 0.035795 0.126699
C40   C     C_3   0.166436 0.026300 0.288464 -0.673520
H32   H     H_    0.110246 0.990453 0.373611 0.230204
H33   H     H_    0.227774 0.985675 0.259263 0.161349
H34   H     H_    0.184208 0.081062 0.366967 0.283915
I3    I     I_    0.502210 0.880715 0.278644 -0.374504
I4    I     I_    0.499025 0.381821 0.720723 -0.351453
I5    I     I_    0.387350 0.698751 0.794311 -0.376366
I6    I     I_    0.625367 0.212654 0.210851 -0.396157
O25   O     O_3   0.508523 0.689705 0.184973 -0.526575
C41   C     C_3   0.563088 0.618403 0.137888 0.131663
H35   H     H_    0.520626 0.563363 0.118525 0.116425
H36   H     H_    0.604856 0.603921 0.250385 0.134916
C42   C     C_3   0.627864 0.632828 0.952890 -0.589533
H37   H     H_    0.663173 0.693268 0.953862 0.242287
H38   H     H_    0.680454 0.583030 0.932037 0.190351
H39   H     H_    0.588727 0.631889 0.833037 0.218543
O26   O     O_3   0.491985 0.189267 0.812577 -0.524247
C43   C     C_3   0.440799 0.116622 0.867971 0.144383
H40   H     H_    0.484623 0.060986 0.874258 0.111709
H41   H     H_    0.392259 0.104034 0.767986 0.133186
C44   C     C_3   0.386824 0.127342 0.064728 -0.636123
H42   H     H_    0.340231 0.181561 0.069196 0.237095
H43   H     H_    0.345893 0.070941 0.105425 0.170909
H44   H     H_    0.434654 0.135312 0.167798 0.234616
I7    I     I_    0.952439 0.567097 0.252113 -0.442808
I8    I     I_    0.042152 0.070989 0.734460 -0.406763
I9    I     I_    0.769966 0.711363 0.289518 -0.380521
I10   I     I_    0.231356 0.212485 0.720818 -0.415876
O27   O     O_3   0.158623 0.779852 0.735108 -0.567493
C45   C     C_3   0.171736 0.866931 0.755147 0.053702
H45   H     H_    0.124849 0.892393 0.871687 0.113419
H46   H     H_    0.162585 0.902200 0.626711 0.141187
C46   C     C_3   0.267651 0.886518 0.797775 -0.689507
H47   H     H_    0.321812 0.867131 0.681803 0.242652
H48   H     H_    0.274392 0.954257 0.814264 0.176863
H49   H     H_    0.279147 0.856230 0.931298 0.229457
O28   O     O_3   0.839794 0.282658 0.252342 -0.570802
C47   C     C_3   0.820863 0.366045 0.195032 0.088654
H50   H     H_    0.784574 0.365521 0.071311 0.136701
H51   H     H_    0.879779 0.406658 0.158735 0.131921
C48   C     C_3   0.753317 0.411698 0.341849 -0.692695
H52   H     H_    0.779309 0.416337 0.477146 0.216768
H53   H     H_    0.743670 0.475676 0.290715 0.212201
H54   H     H_    0.684839 0.381644 0.362429 0.236375

loop_
_geom_bond_atom_site_label_1
_geom_bond_atom_site_label_2
_ccdc_geom_bond_type
H14   C30   S    
C15   O27   S    
C38   H27   S    
O13   V3    S    
O4    C2    A    
V1    O19   S    
C13   I7    S    
O24   C39   S    
C21   H11   S    
C22   H12   S    
C14   I8    S    
C13   O23   S    
O7    V1    S    
C12   H6    S    
O3    C1    A    
C48   H53   S    
C11   C19   S    
C24   I2    S    
C12   C20   S    
O12   V4    S    
C2    O12   A    
C25   C27   D    
O7    C3    A    
C43   H40   S    
C1    C25   S    
C26   O26   S    
C26   C28   D    
C21   I9    S    
O13   V1    S    
C41   H35   S    
C13   C21   S    
O6    C8    A    
C27   C31   S    
O8    V2    S    
C44   H44   S    
C46   H49   S    
C4    C29   S    
O3    V1    S    
O14   V4    S    
C28   C32   S    
V4    O20   S    
O25   C41   S    
C10   H2    S    
C42   H39   S    
C6    C19   S    
C1    O11   A    
C25   O25   S    
C38   H28   S    
O5    C7    A    
C23   I1    S    
C35   C36   S    
C20   C22   S    
O11   V3    S    
C41   H36   S    
C15   C17   S    
O17   V3    S    
C16   C18   S    
C40   H32   S    
C33   H16   S    
O8    C4    A    
C48   H54   S    
C31   I3    S    
C35   H20   S    
C19   C23   S    
H13   C29   S    
C22   I10   S    
C9    C11   S    
C29   C31   D    
C43   C44   S    
C5    C20   S    
C45   H46   S    
C34   H17   S    
C10   O22   S    
C14   O24   S    
C37   H26   S    
C36   H22   S    
C15   H7    S    
V3    O19   S    
O9    V1    S    
O10   V2    S    
O1    V3    S    
C34   H18   S    
C41   C42   S    
C44   H42   S    
C47   H51   S    
C16   O28   S    
C35   H21   S    
C36   H23   S    
O18   V4    S    
C38   H29   S    
C39   H31   S    
O15   C5    A    
C32   I4    S    
C46   H47   S    
C9    C17   S    
O16   C6    A    
C45   C46   S    
O1    C3    A    
C27   I5    S    
C37   C38   S    
C42   H37   S    
V2    O20   S    
C7    C17   S    
O10   C6    A    
C8    C18   S    
O16   V4    S    
C10   C12   S    
C33   H15   S    
C47   C48   S    
O5    V1    S    
O17   C7    A    
C39   C40   S    
O6    V2    S    
O28   C47   S    
C16   H8    S    
O18   C8    A    
C40   H33   S    
O2    V4    S    
C23   H9    S    
C45   H45   S    
O27   C45   S    
O21   C33   S    
C11   H3    S    
C14   C18   S    
C48   H52   S    
C12   H4    S    
C33   C34   S    
C37   H25   S    
O15   V3    S    
O9    C5    A    
C9    H1    S    
C24   H10   S    
O14   V2    S    
C11   H5    S    
O2    C4    A    
C34   H19   S    
C43   H41   S    
C44   H43   S    
C47   H50   S    
C9    O21   S    
O22   C35   S    
O4    V2    S    
C14   C22   S    
C36   H24   S    
C10   C18   S    
C15   C23   S    
C30   C32   D    
C39   H30   S    
C16   C24   S    
C46   H48   S    
C40   H34   S    
C19   C21   S    
O23   C37   S    
O26   C43   S    
C13   C17   S    
C20   C24   S    
C28   I6    S    
C2    C26   S    
C42   H38   S    
C3    C30   S    
