data_mof_unit_65181.cif
_audit_creation_date              2012-12-11T14:15:46-0500
_audit_creation_method            fapswitch 2.2
_symmetry_space_group_name_H-M    P1
_symmetry_Int_Tables_number       1
_space_group_crystal_system       triclinic
_cell_length_a                    8.289752
_cell_length_b                    15.033373
_cell_length_c                    16.411511
_cell_angle_alpha                 96.417414
_cell_angle_beta                  92.673174
_cell_angle_gamma                 99.24583
_cell_volume                      2001.67447716

loop_
_atom_site_label
_atom_site_type_symbol
_atom_type_description
_atom_site_fract_x
_atom_site_fract_y
_atom_site_fract_z
_atom_type_partial_charge
Ba1   Ba    Ba6+2 0.854080 0.543710 0.461380 1.774640
Ba2   Ba    Ba6+2 0.335760 0.456360 0.538630 1.786597
Br1   Br    Br    0.740146 0.816498 0.846887 -0.255728
Br2   Br    Br    0.651190 0.617303 0.884902 -0.542837
Br3   Br    Br    0.598909 0.095436 0.829199 -0.383374
Br4   Br    Br    0.433725 0.062266 0.354215 -0.503820
Br5   Br    Br    0.399379 0.832688 0.668223 -0.508267
C1    C     C_3   0.719429 0.881627 0.251219 -0.235239
C2    C     C_R   0.159162 0.490212 0.240251 0.073772
C3    C     C_R   0.105994 0.482131 0.155815 -0.031272
C4    C     C_3   0.148983 0.751956 0.245594 0.870994
C5    C     C_R   0.211189 0.520851 0.098020 0.338546
C6    C     C_R   0.370333 0.564108 0.126825 -0.091982
C7    C     C_R   0.422445 0.570743 0.210240 -0.074996
C8    C     C_R   0.083387 0.516483 0.844364 0.005461
C9    C     C_R   0.029596 0.510345 0.760233 0.082754
C10   C     C_R   0.979777 0.474708 0.901387 0.320862
C11   C     C_R   0.872647 0.464419 0.733947 -0.236483
C12   C     C_3   0.670549 0.788213 0.278663 0.326011
C13   C     C_R   0.766766 0.426707 0.789380 -0.030950
C14   C     C_R   0.821587 0.429837 0.872098 -0.102943
C15   C     C_R   0.750554 0.231274 0.530074 -0.238180
C16   C     C_3   0.165257 0.792385 0.164135 1.104103
C17   C     C_R   0.844842 0.172018 0.560058 0.020611
C18   C     C_R   0.783350 0.078862 0.550953 -0.082008
C19   C     C_R   0.638425 0.042752 0.500821 -0.002165
C20   C     C_R   0.564440 0.103663 0.456532 0.183860
C21   C     C_R   0.610819 0.197857 0.478114 0.111007
C22   C     C_R   0.400246 0.913158 0.469129 -0.046914
C23   C     C_3   0.453838 0.337252 0.288478 0.396362
C24   C     C_R   0.337940 0.820997 0.451185 0.005871
C25   C     C_R   0.588214 0.785115 0.508463 0.108565
C26   C     C_R   0.659751 0.877123 0.515554 -0.080155
C27   C     C_R   0.567342 0.943207 0.493606 0.004957
C28   C     C_3   0.193340 0.750829 0.665196 0.402095
C29   C     C_R   0.432262 0.756789 0.470430 -0.282722
C30   C     C_3   0.075555 0.811768 0.699056 1.165551
C31   C     C_3   0.979212 0.261432 0.349444 0.771247
C32   C     C_3   0.009098 0.164779 0.323352 0.495747
C33   C     C_3   0.681835 0.663332 0.718811 0.295884
C34   C     C_3   0.451087 0.321202 0.194966 0.616959
C35   C     C_3   0.623820 0.696729 0.802919 0.390800
C36   C     C_3   0.035569 0.240491 0.759773 0.945565
C37   C     C_3   0.041401 0.199369 0.840540 0.621066
C38   C     C_3   0.515286 0.208146 0.709362 0.348604
C39   C     C_3   0.472296 0.111626 0.730798 0.191572
C40   C     C_R   0.315204 0.536606 0.266455 -0.277005
F1    F     F_    0.140729 0.866107 0.770933 -0.592408
F2    F     F_    0.120734 0.725362 0.098257 -0.640002
F3    F     F_    0.034307 0.866177 0.641406 -0.711540
F4    F     F_    0.817029 0.258128 0.365338 -0.745828
F5    F     F_    0.982204 0.113544 0.387927 -0.704748
F6    F     F_    0.333726 0.246832 0.165435 -0.632948
F7    F     F_    0.325587 0.833077 0.157894 -0.697854
F8    F     F_    0.123114 0.327829 0.771564 -0.684343
F9    F     F_    0.194396 0.226271 0.881894 -0.600141
F10   F     F_    0.027138 0.676547 0.235135 -0.672653
H1    H     H_    0.735938 0.787314 0.339132 0.053992
H2    H     H_    0.536645 0.777143 0.285610 -0.026997
H3    H     H_    0.652968 0.930798 0.285003 0.137471
H4    H     H_    0.332138 0.350184 0.306692 -0.126891
H5    H     H_    0.548230 0.397615 0.309684 -0.057427
H6    H     H_    0.421797 0.381535 0.168008 -0.145839
H7    H     H_    0.573345 0.308870 0.175865 0.040203
H8    H     H_    0.687076 0.879243 0.184543 0.198530
H9    H     H_    0.905794 0.242750 0.742235 -0.292131
H10   H     H_    0.947771 0.222974 0.879988 -0.014752
H11   H     H_    0.014897 0.123728 0.829202 0.041566
H12   H     H_    0.967179 0.768911 0.715407 -0.037695
H13   H     H_    0.646480 0.220677 0.696709 -0.125529
H14   H     H_    0.440442 0.213224 0.652657 0.022504
H15   H     H_    0.499542 0.062757 0.679030 0.029176
H16   H     H_    0.339587 0.095856 0.741124 0.154909
H17   H     H_    0.203590 0.554179 0.864806 0.126292
H18   H     H_    0.454966 0.591134 0.083838 0.146217
H19   H     H_    0.985458 0.444706 0.135674 0.101286
H20   H     H_    0.738778 0.400037 0.914566 0.120859
H21   H     H_    0.357515 0.540801 0.330370 0.055117
H22   H     H_    0.829346 0.462166 0.670412 0.046441
H23   H     H_    0.058686 0.290636 0.405946 0.004032
H24   H     H_    0.316513 0.960499 0.464220 0.139844
H25   H     H_    0.852608 0.036178 0.581760 0.111536
H26   H     H_    0.783895 0.895708 0.541556 0.156724
H27   H     H_    0.266155 0.730183 0.263143 -0.201325
H28   H     H_    0.379591 0.685444 0.462040 0.065581
H29   H     H_    0.794396 0.303669 0.540712 0.059060
H30   H     H_    0.083312 0.844068 0.160398 -0.000024
H31   H     H_    0.155161 0.718891 0.601195 -0.049984
H32   H     H_    0.923046 0.132232 0.269707 0.077822
H33   H     H_    0.138477 0.166040 0.305493 0.064774
H34   H     H_    0.801932 0.640986 0.727396 -0.109581
H35   H     H_    0.595219 0.603826 0.689507 0.043437
H36   H     H_    0.852780 0.905725 0.263905 0.129857
H37   H     H_    0.492080 0.701075 0.796310 0.120741
N1    N     N_2   0.167327 0.516183 0.011285 -0.164082
N2    N     N_2   0.023730 0.478777 0.988068 -0.190998
O1    O     O_2   0.870790 0.455700 0.303190 -0.433956
O2    O     O_2   0.177834 0.176077 0.547521 -0.438368
O3    O     O_3   0.105083 0.187233 0.699462 -0.646826
O4    O     O_3   0.120480 0.453880 0.403310 -0.512961
O5    O     O_3   0.582150 0.607760 0.542240 -0.512399
O6    O     O_2   0.333990 0.280210 0.458400 -0.490082
O7    O     O_3   0.489990 0.259472 0.320581 -0.535618
O8    O     O_2   0.432229 0.438747 0.791127 -0.372641
O9    O     O_3   0.481499 0.270459 0.774453 -0.497459
O10   O     O_3   0.662860 0.618850 0.354340 -0.504658
O11   O     O_2   0.748678 0.551588 0.208653 -0.408557
O12   O     O_3   0.697164 0.736939 0.672101 -0.588136
O13   O     O_3   0.008094 0.311535 0.283449 -0.673983
O14   O     O_3   0.712692 0.721865 0.219851 -0.519043
O15   O     O_2   0.855710 0.719820 0.541650 -0.467145
O16   O     O_3   0.086210 0.664250 0.395340 -0.452064
O17   O     O_2   0.003283 0.823477 0.453127 -0.444806
O18   O     O_3   0.107866 0.817368 0.305643 -0.661422
O19   O     O_2   0.318910 0.544330 0.696860 -0.457622
O20   O     O_3   0.069240 0.546190 0.596700 -0.512326
O21   O     O_3   0.526850 0.381230 0.645670 -0.513165
O22   O     O_3   0.210936 0.688248 0.720861 -0.656182
O23   O     O_3   0.607560 0.392310 0.457770 -0.476016
O24   O     O_3   0.103510 0.335820 0.604670 -0.447067
P1    P     P_3+3 0.037890 0.428670 0.315390 1.048523
P2    P     P_3+3 0.680030 0.705880 0.565670 1.036871
P3    P     P_3+3 0.132416 0.782270 0.403054 1.047932
P4    P     P_3+3 0.151830 0.571400 0.684620 0.995665
P5    P     P_3+3 0.055844 0.217672 0.602570 1.053149
P6    P     P_3+3 0.635885 0.614775 0.247500 1.067629
P7    P     P_3+3 0.510997 0.280376 0.427924 1.105634
P8    P     P_3+3 0.552668 0.380553 0.751746 1.091822

loop_
_geom_bond_atom_site_label_1
_geom_bond_atom_site_label_2
_ccdc_geom_bond_type
Br1   C35   S    
C30   H12   S    
C38   H14   S    
N1    N2    D    
O3    P5    S    
C38   C39   S    
C19   C20   A    
Br2   C35   S    
C25   C29   A    
C28   C30   S    
C36   O3    S    
O4    P1    S    
Ba1   O16   S    
C31   C32   S    
C16   F2    S    
Ba2   O6    S    
C8    C9    A    
Ba1   Ba2   S    
Ba1   O23   S    
C4    O18   S    
Ba1   P2    S    
O1    P1    D    
C3    H19   S    
C19   C27   S    
O2    P5    D    
C6    H18   S    
C11   H22   S    
O17   P3    D    
C23   O7    S    
C2    P1    S    
C23   C34   S    
Ba1   O20   S    
O7    P7    S    
C2    C3    A    
C32   H33   S    
C39   H15   S    
C21   P7    S    
Ba1   O10   S    
C33   O12   S    
C33   C35   S    
C32   F5    S    
Ba2   O4    S    
C1    H8    S    
C16   H30   S    
C6    C7    A    
O15   P2    D    
Ba2   O20   S    
Ba1   O4    S    
Ba2   O21   S    
C38   O9    S    
C12   H1    S    
C1    C12   S    
C25   P2    S    
C17   C18   A    
O16   P3    S    
O6    P7    D    
Ba1   O1    S    
Ba2   O24   S    
O24   P5    S    
C31   F4    S    
Ba2   O5    S    
C12   H2    S    
C18   C19   A    
C22   C27   A    
C10   C14   A    
C30   F1    S    
C28   H31   S    
C36   C37   S    
C22   H24   S    
Ba2   O19   S    
C37   F9    S    
Br4   C20   S    
O8    P8    D    
C13   C14   A    
C26   C27   A    
C5    N1    S    
C10   N2    S    
O22   P4    S    
C40   H21   S    
C33   H35   S    
C31   O13   S    
C26   H26   S    
C34   F6    S    
C3    C5    A    
O14   P6    S    
O18   P3    S    
C36   F8    S    
C2    C40   A    
C23   H5    S    
C18   H25   S    
C29   H28   S    
C15   C17   A    
C37   H11   S    
C34   H6    S    
Ba1   O5    S    
C16   F7    S    
C12   O14   S    
C8    C10   A    
O19   P4    D    
O20   P4    S    
O9    P8    S    
C38   H13   S    
C35   H37   S    
Br5   C28   S    
C1    H36   S    
O11   P6    D    
O12   P2    S    
C37   H10   S    
Ba2   O23   S    
C13   P8    S    
C7    C40   A    
Ba2   P4    S    
C4    H27   S    
Br3   C39   S    
O10   P6    S    
O5    P2    S    
C7    P6    S    
C25   C26   A    
C9    P4    S    
C24   P3    S    
C22   C24   A    
C1    H3    S    
C30   F3    S    
O13   P1    S    
C17   P5    S    
C31   H23   S    
C36   H9    S    
C4    C16   S    
C11   C13   A    
C15   H29   S    
C33   H34   S    
O21   P8    S    
Ba1   P1    S    
C8    H17   S    
C5    C6    A    
C9    C11   A    
C23   H4    S    
C14   H20   S    
C20   C21   A    
C24   C29   A    
C28   O22   S    
C15   C21   A    
C34   H7    S    
C4    F10   S    
C32   H32   S    
C39   H16   S    
Ba1   O15   S    
O23   P7    S    
