data_mof_unit_45735.cif
_audit_creation_date              2012-12-10T18:45:11-0500
_audit_creation_method            fapswitch 2.2
_symmetry_space_group_name_H-M    P1
_symmetry_Int_Tables_number       1
_space_group_crystal_system       triclinic
_cell_length_a                    10.7366
_cell_length_b                    9.9237
_cell_length_c                    10.839677
_cell_angle_alpha                 91.490209
_cell_angle_beta                  92.904355
_cell_angle_gamma                 92.128106
_cell_volume                      1152.20374847

loop_
_atom_site_label
_atom_site_type_symbol
_atom_type_description
_atom_site_fract_x
_atom_site_fract_y
_atom_site_fract_z
_atom_type_partial_charge
C1    C     C_R   0.261045 0.498015 0.507939 0.897031
C2    C     C_R   0.740287 0.502750 0.495004 0.898460
C3    C     C_R   0.946716 0.627178 0.527087 -0.116417
C4    C     C_R   0.072453 0.612708 0.560551 -0.076853
C5    C     C_R   0.590397 0.079465 0.563358 -0.011512
C6    C     C_R   0.411650 0.066832 0.432222 -0.012512
C7    C     C_R   0.585889 0.937162 0.574122 -0.060498
C8    C     C_R   0.414556 0.923873 0.427206 0.022640
C9    C     C_R   0.505326 0.498493 0.260648 0.951594
C10   C     C_R   0.503945 0.502458 0.740707 0.992349
C11   C     C_R   0.624022 0.727267 0.137949 -0.058814
C12   C     C_R   0.514493 0.760412 0.903755 -0.134882
C13   C     C_R   0.621985 0.854917 0.088900 -0.047342
C14   C     C_R   0.559086 0.871944 0.975759 -0.075903
C15   C     C_R   0.528797 0.628522 0.947543 0.055607
C16   C     C_R   0.562170 0.616598 0.073194 0.042090
C17   C     C_R   0.523539 0.496361 0.129886 -0.331651
C18   C     C_R   0.516560 0.506646 0.874937 -0.322665
C19   C     C_R   0.496171 0.378795 0.056398 0.383426
C20   C     C_R   0.527181 0.383258 0.935149 0.378396
C21   C     C_R   0.059059 0.382858 0.472939 -0.127252
C22   C     C_R   0.931663 0.387546 0.464397 -0.136375
C23   C     C_R   0.874444 0.508595 0.491105 -0.103065
C24   C     C_R   0.129113 0.495343 0.519510 -0.091488
H1    H     H_    0.670854 0.716451 0.227490 0.189697
H2    H     H_    0.467001 0.781927 0.817237 0.180435
H3    H     H_    0.663340 0.940960 0.141388 0.189494
H4    H     H_    0.546732 0.971314 0.942721 0.253247
H5    H     H_    0.102571 0.291796 0.442542 0.185796
H6    H     H_    0.878118 0.297173 0.433284 0.175627
H7    H     H_    0.662875 0.141773 0.611522 0.226141
H8    H     H_    0.340834 0.117402 0.378279 0.178854
N1    N     N_R   0.500000 0.857200 0.500000 -0.159630
N2    N     N_R   0.500000 0.142810 0.500000 -0.108617
O1    O     O_R   0.316770 0.614620 0.499990 -0.619830
O2    O     O_R   0.683230 0.614620 0.500010 -0.577569
O3    O     O_R   0.316800 0.385290 0.500000 -0.618014
O4    O     O_R   0.683200 0.385290 0.500000 -0.627800
O5    O     O_R   0.500010 0.614690 0.316770 -0.620364
O6    O     O_R   0.499990 0.614690 0.683230 -0.608779
O7    O     O_R   0.500040 0.385360 0.316770 -0.551841
O8    O     O_R   0.499960 0.385360 0.683230 -0.547442
Zn1   Zn    Zn3+2 0.500000 0.653120 0.500000 1.015106
Zn2   Zn    Zn3+2 0.500000 0.346880 0.500000 1.071158
S1    S     S_3+6 0.411462 0.232815 0.103470 0.060251
O9    O     O_2   0.497584 0.146304 0.177593 -0.304175
O10   O     O_2   0.305698 0.273742 0.180321 -0.318958
O11   O     O_3   0.351215 0.143221 0.979309 -0.506111
H9    H     H_    0.317927 0.057919 0.012650 0.382767
S2    S     S_3+6 0.619981 0.253375 0.880500 0.061022
O12   O     O_2   0.535951 0.153187 0.807642 -0.296391
O13   O     O_2   0.717670 0.310496 0.799722 -0.306373
O14   O     O_3   0.691492 0.178277 0.000517 -0.547586
H10   H     H_    0.755394 0.122538 0.963677 0.400118
C25   C     C_2   0.898832 0.765026 0.513178 1.016017
O15   O     O_2   0.920064 0.851680 0.594366 -0.582771
O16   O     O_R   0.834424 0.797478 0.403286 -0.806966
H11   H     H_    0.807594 0.894377 0.403543 0.328418
C26   C     C_2   0.143407 0.712180 0.645148 0.996840
O17   O     O_2   0.161186 0.829034 0.615460 -0.545721
O18   O     O_R   0.194674 0.668428 0.757531 -0.809627
H12   H     H_    0.239844 0.744086 0.808364 0.339237
C27   C     C_2   0.672822 0.887047 0.674344 0.956012
O19   O     O_2   0.729770 0.968494 0.745143 -0.589527
O20   O     O_R   0.693120 0.751679 0.691143 -0.759427
H13   H     H_    0.753888 0.734753 0.763343 0.344676
C28   C     C_2   0.325487 0.850791 0.339811 0.983710
O21   O     O_2   0.217230 0.831576 0.366505 -0.594972
O22   O     O_R   0.362225 0.814776 0.222148 -0.785769
H14   H     H_    0.292344 0.767977 0.168925 0.345275

loop_
_geom_bond_atom_site_label_1
_geom_bond_atom_site_label_2
_ccdc_geom_bond_type
C21   H5    S    
C5    H7    S    
C15   C18   A    
S2    O13   D    
C25   O15   D    
C27   O20   S    
O4    Zn2   S    
C10   O8    A    
O1    Zn1   S    
C11   C16   A    
C2    O4    A    
C9    O7    A    
C19   C20   A    
C12   C15   A    
C1    O3    A    
C6    N2    A    
C5    N2    A    
O6    Zn1   S    
O3    Zn2   S    
S1    O10   D    
S2    O12   D    
C3    C4    A    
C8    C28   S    
C26   O17   D    
C22   H6    S    
C13   C14   A    
C7    N1    A    
C7    C27   S    
O16   H11   S    
O22   H14   S    
O8    Zn2   S    
C10   C18   S    
C6    C8    A    
C4    C26   S    
C9    C17   S    
O11   H9    S    
C17   C19   A    
C12   C14   A    
C21   C22   A    
C18   C20   A    
C8    N1    A    
C25   O16   S    
O5    Zn1   S    
O18   H12   S    
C4    C24   A    
O7    Zn2   S    
C26   O18   S    
S2    O14   S    
C11   H1    S    
C27   O19   D    
C28   O21   D    
N1    Zn1   S    
S1    O9    D    
C11   C13   A    
N2    Zn2   S    
C1    O1    A    
C1    C24   S    
C10   O6    A    
O20   H13   S    
C21   C24   A    
C2    O2    A    
C2    C23   S    
C5    C7    A    
C22   C23   A    
C13   H3    S    
O2    Zn1   S    
C20   S2    S    
S1    O11   S    
C14   H4    S    
C3    C23   A    
O14   H10   S    
C3    C25   S    
C9    O5    A    
C19   S1    S    
C15   C16   A    
C6    H8    S    
C12   H2    S    
C16   C17   A    
C28   O22   S    
