data_mof_unit_66819.cif
_audit_creation_date              2013-03-05T15:41:43-0500
_audit_creation_method            fapswitch 2.2
_symmetry_space_group_name_H-M    P1
_symmetry_Int_Tables_number       1
_space_group_crystal_system       triclinic
_cell_length_a                    8.652024
_cell_length_b                    15.191412
_cell_length_c                    15.426933
_cell_angle_alpha                 97.414157
_cell_angle_beta                  100.596101
_cell_angle_gamma                 98.049088
_cell_volume                      1948.33263549

loop_
_atom_site_label
_atom_site_type_symbol
_atom_site_description
_atom_site_fract_x
_atom_site_fract_y
_atom_site_fract_z
_atom_type_partial_charge
P1    P     P_3+3 0.004200 0.709230 0.580350 0.542938
O1    O     O_2   0.174080 0.723060 0.553930 -0.383408
O2    O     O_3   0.901570 0.609580 0.550840 -0.353373
O3    O     O_3   0.370350 0.665080 0.388270 -0.381893
O4    O     O_2   0.284090 0.819777 0.437428 -0.348641
O5    O     O_3   0.042745 0.723121 0.697830 -0.512267
O6    O     O_3   0.432860 0.823827 0.302737 -0.578514
H1    H     H_    0.188967 0.777110 0.261699 0.172675
C1    C     C_3   0.274071 0.860775 0.168689 -0.618268
P2    P     P_3+3 0.305000 0.425570 0.290900 0.544590
P3    P     P_3+3 0.859227 0.612124 0.224618 0.491536
O7    O     O_2   0.134790 0.452800 0.278150 -0.328785
O8    O     O_3   0.937650 0.618620 0.340860 -0.360552
O9    O     O_2   0.952995 0.551347 0.173704 -0.360710
O10   O     O_3   0.257214 0.308168 0.256357 -0.558854
O11   O     O_3   0.908030 0.718023 0.194529 -0.525272
C2    C     C_3   0.787926 0.770559 0.205086 0.398565
H2    H     H_    0.673762 0.732099 0.211470 0.032724
C3    C     C_3   0.753648 0.817223 0.123097 -0.865448
H3    H     H_    0.857208 0.868389 0.120979 0.253836
H4    H     H_    0.727162 0.766946 0.061101 0.247669
C4    C     C_3   0.657226 0.282643 0.241635 0.696040
C5    C     C_3   0.542237 0.197530 0.187309 -0.753525
H5    H     H_    0.443934 0.217742 0.142213 0.221384
H6    H     H_    0.483133 0.161582 0.232255 0.241105
Ba1   Ba    Ba6+2 0.154730 0.543770 0.458180 1.686885
C6    C     C_3   0.206238 0.734359 0.734235 0.384327
H7    H     H_    0.269304 0.800079 0.725015 0.107650
H8    H     H_    0.257305 0.679754 0.701862 0.063490
C7    C     C_3   0.229339 0.729580 0.833978 0.055755
H9    H     H_    0.354214 0.722541 0.861881 0.095773
H10   H     H_    0.150496 0.669467 0.844748 0.179166
C8    C     C_3   0.158608 0.261996 0.304138 0.360505
H11   H     H_    0.088778 0.306025 0.338200 0.101022
C9    C     C_3   0.262504 0.219993 0.371952 -0.984047
H12   H     H_    0.344758 0.183699 0.340396 0.286694
H13   H     H_    0.190038 0.168453 0.398512 0.241132
H14   H     H_    0.330881 0.273661 0.426413 0.292738
P4    P     P_3+3 0.806080 0.290760 0.419570 0.602072
O12   O     O_2   0.636200 0.276890 0.446040 -0.325223
O13   O     O_3   0.908720 0.390410 0.449080 -0.349518
O14   O     O_3   0.439930 0.334910 0.611650 -0.362700
O15   O     O_3   0.783041 0.258393 0.301592 -0.580443
P5    P     P_3+3 0.929132 0.388430 0.775816 0.580273
O16   O     O_3   0.402060 0.547860 0.609750 -0.379538
O17   O     O_3   0.872630 0.381370 0.659060 -0.302104
O18   O     O_2   0.814526 0.444450 0.811697 -0.314787
O19   O     O_3   0.875863 0.281423 0.805180 -0.535423
Ba2   Ba    Ba6+2 0.655430 0.456220 0.541750 1.690244
P6    P     P_3+3 0.425751 0.783361 0.405487 0.505828
C10   C     C_3   0.297585 0.790350 0.233849 0.149942
H15   H     H_    0.388636 0.878441 0.146946 0.195007
O20   O     O_3   0.408220 0.452130 0.390170 -0.379421
C11   C     C_3   0.688519 0.738123 0.752862 0.802929
H16   H     H_    0.721774 0.718460 0.687743 0.057384
C12   C     C_3   0.686217 0.841641 0.767428 0.390936
P7    P     P_3+3 0.505928 0.575473 0.723725 0.466301
O21   O     O_2   0.675490 0.547140 0.721820 -0.273585
O22   O     O_3   0.533891 0.693475 0.751816 -0.651922
H17   H     H_    0.648378 0.850978 0.124691 0.248371
C13   C     C_3   0.872016 0.212907 0.732780 0.895076
H18   H     H_    0.983230 0.221991 0.707484 -0.000382
C14   C     C_3   0.853316 0.119027 0.761592 -0.157994
H19   H     H_    0.727652 0.094779 0.764637 0.168570
H20   H     H_    0.883336 0.070026 0.709962 0.127214
P8    P     P_3+3 0.379599 0.217922 0.604680 0.506493
C15   C     C_3   0.464928 0.238262 0.783718 0.812056
O23   O     O_2   0.466758 0.176150 0.535151 -0.352707
O24   O     O_3   0.464549 0.180246 0.703779 -0.555829
C16   C     C_3   0.529255 0.193045 0.864500 -0.604703
H21   H     H_    0.524839 0.236551 0.927477 0.250529
H22   H     H_    0.656792 0.189648 0.868607 0.195745
C17   C     C_R   0.159852 0.173659 0.565260 0.206313
C18   C     C_R   0.089128 0.083061 0.566276 -0.078632
C19   C     C_R   0.956009 0.895316 0.554032 -0.027724
C20   C     C_R   0.112662 0.930557 0.598841 -0.017517
C21   C     C_R   0.173640 0.022704 0.609108 -0.133316
C22   C     C_R   0.889445 0.801227 0.544233 0.218791
H23   H     H_    0.189195 0.887872 0.628577 0.165653
H24   H     H_    0.291782 0.044676 0.648071 0.228966
C23   C     C_R   0.723920 0.776014 0.514071 -0.346323
C24   C     C_R   0.908811 0.202822 0.477739 0.312385
C25   C     C_R   0.840456 0.109111 0.474315 -0.133974
C26   C     C_R   0.929979 0.050410 0.520671 -0.076087
C27   C     C_R   0.683852 0.071494 0.429753 0.577149
C28   C     C_R   0.608337 0.990573 0.450196 -0.280309
C29   C     C_R   0.697573 0.926959 0.482241 -0.066624
C30   C     C_R   0.861302 0.957326 0.518884 0.029118
C31   C     C_R   0.626937 0.834925 0.479205 0.312358
C32   C     C_R   0.066480 0.231262 0.523895 -0.479334
H25   H     H_    0.669193 0.708512 0.517292 0.181017
H26   H     H_    0.123325 0.297068 0.518196 0.174760
C33   C     C_R   0.225872 0.491987 0.773361 -0.477606
C34   C     C_R   0.134120 0.451797 0.827710 0.262334
C35   C     C_R   0.197936 0.459280 0.918867 -0.244721
C36   C     C_R   0.362869 0.489630 0.953812 0.061415
C37   C     C_R   0.461676 0.512153 0.891722 -0.236180
C38   C     C_R   0.391849 0.520527 0.802162 0.050433
C39   C     C_R   0.571957 0.561386 0.094156 -0.084271
C40   C     C_R   0.644171 0.565360 0.183042 0.118118
C41   C     C_R   0.407466 0.476700 0.208390 0.273037
C42   C     C_R   0.354910 0.451437 0.113603 -0.162339
C43   C     C_R   0.429249 0.500675 0.054724 0.116587
C44   C     C_R   0.554280 0.533289 0.240716 -0.380036
H27   H     H_    0.631146 0.606131 0.057450 0.120015
H28   H     H_    0.116696 0.440966 0.961304 0.139016
C45   C     C_2   0.617742 0.133017 0.132559 1.213358
O25   O     O_2   0.686908 0.158314 0.075578 -0.624295
O26   O     O_R   0.600154 0.042605 0.143612 -0.756669
H29   H     H_    0.649911 0.005150 0.100521 0.318391
O27   O     O_3   0.190357 0.806532 0.879203 -0.654136
H30   H     H_    0.284587 0.854778 0.888105 0.346569
C46   C     C_2   0.046625 0.186334 0.240049 1.062105
O28   O     O_2   0.048903 0.175905 0.160347 -0.529419
O29   O     O_R   0.943658 0.125890 0.272908 -0.826496
H31   H     H_    0.884949 0.073674 0.225523 0.349714
C47   C     C_2   0.147135 0.827829 0.083982 1.049856
O30   O     O_2   0.113633 0.880864 0.032992 -0.555194
O31   O     O_R   0.069681 0.738316 0.062445 -0.735292
H32   H     H_    0.989984 0.726003 0.003528 0.364011
C48   C     C_2   0.326068 0.705105 0.182209 1.050733
O32   O     O_2   0.402898 0.708627 0.123520 -0.660424
O33   O     O_R   0.256024 0.621876 0.195799 -0.758835
H33   H     H_    0.203437 0.626548 0.248823 0.350860
O34   O     O_3   0.801000 0.715307 0.820659 -0.704696
H34   H     H_    0.772403 0.735862 0.878381 0.302164
O35   O     O_3   0.581032 0.862619 0.824181 -0.725978
H35   H     H_    0.616917 0.842652 0.882232 0.300867
C49   C     C_2   0.851844 0.895188 0.806038 1.041907
O36   O     O_2   0.883176 0.937731 0.881796 -0.541426
O37   O     O_R   0.968526 0.896242 0.754633 -0.798801
H36   H     H_    0.072724 0.935999 0.786575 0.352747
O38   O     O_3   0.629510 0.866049 0.684138 -0.773241
H37   H     H_    0.616508 0.930228 0.694800 0.368736
C50   C     C_2   0.235146 0.946136 0.212923 1.186519
O39   O     O_2   0.298398 0.018528 0.199294 -0.625933
O40   O     O_R   0.114834 0.942603 0.261141 -0.815468
H38   H     H_    0.096744 0.004311 0.285551 0.345851
O41   O     O_3   0.745368 0.215440 0.663051 -0.647298
H39   H     H_    0.742431 0.164162 0.615982 0.261534
O42   O     O_3   0.955467 0.118218 0.843096 -0.633720
H40   H     H_    0.902242 0.140784 0.891143 0.382607
C51   C     C_2   0.301238 0.259262 0.790659 0.728094
O43   O     O_2   0.237818 0.305110 0.740342 -0.739101
O44   O     O_R   0.227961 0.231956 0.857808 -0.739303
H41   H     H_    0.142498 0.267923 0.869606 0.360102
O45   O     O_3   0.573848 0.317590 0.790556 -0.640471
H42   H     H_    0.518894 0.366305 0.770126 0.325365
C52   C     C_2   0.441198 0.099804 0.863288 1.120588
O46   O     O_2   0.447638 0.037853 0.805805 -0.642703
O47   O     O_R   0.355856 0.084137 0.929979 -0.715698
H43   H     H_    0.302152 0.019176 0.922730 0.347602
C53   C     C_2   0.842223 0.838028 0.288604 1.022193
O48   O     O_2   0.775793 0.903250 0.300019 -0.637391
O49   O     O_R   0.971123 0.826585 0.352548 -0.740147
H44   H     H_    0.015688 0.883416 0.396796 0.333697
C54   C     C_2   0.450845 0.991296 0.471820 1.153297
O50   O     O_2   0.429446 0.969727 0.542725 -0.659996
O51   O     O_R   0.329716 0.019460 0.415006 -0.797251
H45   H     H_    0.226683 0.014529 0.437335 0.320982
O52   O     O_3   0.603494 0.113724 0.367250 -0.714192
H46   H     H_    0.521165 0.067314 0.326887 0.360924
C55   C     C_2   0.258690 0.361948 0.077755 1.046714
O53   O     O_2   0.123809 0.343660 0.089506 -0.591987
O54   O     O_R   0.323739 0.297491 0.030289 -0.754432
H47   H     H_    0.253908 0.236003 0.018756 0.387279
C56   C     C_2   0.635018 0.515820 0.918680 1.084618
O55   O     O_2   0.727708 0.580729 0.910088 -0.614767
O56   O     O_R   0.692304 0.447587 0.961718 -0.726123
H48   H     H_    0.812393 0.460087 0.983430 0.344890
C57   C     C_2   0.630250 0.551153 0.333845 1.106040
O57   O     O_2   0.643248 0.625891 0.375931 -0.695156
O58   O     O_R   0.717241 0.488961 0.367041 -0.715786
H49   H     H_    0.798706 0.517036 0.421700 0.385690
C58   C     C_2   0.137901 0.504588 0.686819 1.078635
O59   O     O_2   0.033851 0.550475 0.686046 -0.548203
O60   O     O_R   0.143630 0.449647 0.608928 -0.709869
H50   H     H_    0.223731 0.408682 0.621230 0.306224
O61   O     O_3   0.574774 0.338535 0.285670 -0.753361
H51   H     H_    0.509888 0.300664 0.316513 0.374315
C59   C     C_2   0.722647 0.334373 0.176402 1.016659
O62   O     O_2   0.632154 0.360053 0.118204 -0.631455
O63   O     O_R   0.884633 0.351057 0.179548 -0.728425
H52   H     H_    0.907060 0.389694 0.133285 0.384900

loop_
_geom_bond_atom_site_label_1
_geom_bond_atom_site_label_2
_geom_bond_distance
_ccdc_geom_bond_type
P8    O23   1.541976 D    
C29   C30   1.412188 A    
C14   H20   1.110499 S    
C41   C42   1.433187 A    
C6    H8    1.099832 S    
C47   O30   1.223525 D    
C1    C47   1.521107 S    
C17   C18   1.429053 A    
C39   C43   1.416062 A    
C35   C36   1.417113 A    
C1    C10   1.568353 S    
C20   H23   1.074557 S    
O45   H42   0.988282 S    
C57   O57   1.212613 D    
C15   C51   1.514095 S    
C12   O38   1.404009 S    
O2    Ba2   2.898116 S    
O33   H33   1.006026 S    
C58   O60   1.384779 S    
O54   H47   1.014267 S    
C59   O62   1.220113 D    
C57   O58   1.379701 S    
O17   Ba2   2.824588 S    
O16   P7    1.788321 S    
C54   O50   1.219885 D    
C25   C26   1.435583 A    
C6    H7    1.107866 S    
C9    H13   1.101734 S    
C17   C32   1.406445 A    
C46   O28   1.223444 D    
C4    C59   1.496552 S    
P2    O10   1.761525 S    
C52   O47   1.397762 S    
O51   H45   1.009867 S    
O44   H41   1.007664 S    
C7    H9    1.112305 S    
P3    O9    1.544186 D    
P7    O22   1.760486 S    
P8    O24   1.770718 S    
O29   H31   1.011218 S    
C37   C38   1.431790 A    
C40   C44   1.376269 A    
C27   O52   1.364798 S    
C51   O44   1.387758 S    
P1    O1    1.589506 D    
O56   H48   1.013974 S    
C12   O35   1.413704 S    
C13   C14   1.543741 S    
P2    O20   1.594453 S    
Ba1   O16   2.852297 S    
C8    C9    1.515494 S    
C3    H3    1.109206 S    
C42   C55   1.471988 S    
C18   C21   1.406554 A    
O47   H43   1.013060 S    
C16   H21   1.112280 S    
C53   O49   1.393210 S    
C12   C49   1.518096 S    
P5    O18   1.526583 D    
C23   C31   1.401019 A    
P2    Ba1   3.502289 S    
O34   H34   0.991245 S    
C2    C53   1.494322 S    
C54   O51   1.390715 S    
C6    C7    1.527317 S    
P1    C22   1.906700 S    
C45   O26   1.396475 S    
C34   C35   1.396780 A    
C1    H15   1.112686 S    
O13   Ba2   3.040185 S    
C19   C22   1.441959 A    
P5    O17   1.762497 S    
O52   H46   0.987481 S    
P7    O21   1.589900 D    
C11   O22   1.408996 S    
C59   O63   1.379547 S    
C39   H27   1.074000 S    
C11   O34   1.405294 S    
C11   C12   1.563042 S    
P2    C41   1.867303 S    
C48   O33   1.382176 S    
P1    O5    1.760593 S    
C50   O39   1.219249 D    
C9    H14   1.107211 S    
C20   C21   1.402933 A    
O6    P6    1.780746 S    
P4    O13   1.607643 S    
O26   H29   1.013516 S    
Ba1   Ba2   4.793205 S    
P4    O12   1.589871 D    
C28   C29   1.402238 A    
O11   C2    1.415719 S    
P4    O15   1.789470 S    
O14   Ba2   2.885386 S    
O58   H49   0.997068 S    
P8    C17   1.883604 S    
C33   C58   1.459946 S    
Ba2   O21   2.901733 S    
O61   H51   0.975180 S    
C56   O56   1.400491 S    
O7    Ba1   2.901640 S    
P3    C40   1.857810 S    
C15   O24   1.419434 S    
C9    H12   1.102482 S    
C19   C20   1.399358 A    
O63   H52   1.009292 S    
C16   C52   1.507614 S    
C35   H28   1.077739 S    
P3    O11   1.748264 S    
P6    C31   1.896589 S    
C32   H26   1.072318 S    
O5    C6    1.400342 S    
O16   Ba2   3.027801 S    
C45   O25   1.222609 D    
C5    C45   1.506392 S    
C36   C37   1.438468 A    
C2    H2    1.102599 S    
C14   O42   1.400201 S    
O1    Ba1   2.893328 S    
C33   C34   1.395397 A    
H1    C10   1.107284 S    
O12   Ba2   2.893797 S    
C48   O32   1.219982 D    
P2    O7    1.569587 D    
C44   C57   1.439413 S    
C1    C50   1.496363 S    
C25   C27   1.405068 A    
O60   H50   1.003233 S    
C41   C44   1.397074 A    
C29   C31   1.436574 A    
C15   O45   1.401462 S    
O38   H37   0.993176 S    
C10   C48   1.505877 S    
O4    P6    1.546842 D    
O37   H36   1.013749 S    
Ba1   O20   3.028750 S    
C56   O55   1.218358 D    
O41   H39   0.988131 S    
C49   O36   1.223336 D    
C21   H24   1.069700 S    
C50   O40   1.385338 S    
C11   H16   1.110910 S    
O27   H30   0.993100 S    
C3    H4    1.110161 S    
O2    Ba1   3.039139 S    
C13   O41   1.395824 S    
C26   C30   1.449845 A    
P4    C24   1.930930 S    
C18   C26   1.413997 A    
C4    O61   1.374886 S    
C27   C28   1.410118 A    
O3    Ba1   2.886124 S    
O31   H32   1.012950 S    
P4    Ba2   3.488262 S    
C3    H17   1.108541 S    
O40   H38   1.008343 S    
C8    C46   1.509954 S    
C24   C32   1.397475 A    
C39   C40   1.388274 A    
C7    O27   1.397706 S    
C15   C16   1.551623 S    
C47   O31   1.398186 S    
C51   O43   1.215996 D    
O6    C10   1.412183 S    
C58   O59   1.212617 D    
C37   C56   1.471922 S    
C52   O46   1.221743 D    
C7    H10   1.110522 S    
P3    O8    1.781573 S    
C22   C23   1.403397 A    
O19   C13   1.417253 S    
P1    Ba1   3.487585 S    
C46   O29   1.396751 S    
Ba2   O20   2.851782 S    
P7    C38   1.898501 S    
C2    C3    1.530557 S    
C8    H11   1.108029 S    
C5    H6    1.091063 S    
C13   H18   1.100910 S    
O8    Ba1   2.824047 S    
C28   C54   1.462388 S    
C42   C43   1.433087 A    
C55   O53   1.213234 D    
P5    C34   1.874537 S    
C5    H5    1.101043 S    
C14   H19   1.109540 S    
C23   H25   1.078916 S    
P5    O19   1.765553 S    
C19   C30   1.427389 A    
C24   C25   1.453448 A    
C36   C43   1.535670 S    
O3    P6    1.765732 S    
O49   H44   1.008897 S    
O14   P8    1.764297 S    
C4    C5    1.554825 S    
C55   O54   1.390186 S    
C16   H22   1.102439 S    
P1    O2    1.607614 S    
C53   O48   1.222590 D    
O42   H40   0.991533 S    
C33   C38   1.410272 A    
O10   C8    1.400111 S    
C4    O15   1.416394 S    
O35   H35   0.992290 S    
Ba1   O13   2.897400 S    
C49   O37   1.393371 S    
