data_mof_unit_52655.cif
_audit_creation_date              2012-12-10T17:53:41-0500
_audit_creation_method            fapswitch 2.2
_symmetry_space_group_name_H-M    P1
_symmetry_Int_Tables_number       1
_space_group_crystal_system       triclinic
_cell_length_a                    21.600086
_cell_length_b                    30.840113
_cell_length_c                    30.424921
_cell_angle_alpha                 90.000011
_cell_angle_beta                  90.000082
_cell_angle_gamma                 89.998666
_cell_volume                      20267.5335247

loop_
_atom_site_label
_atom_site_type_symbol
_atom_type_description
_atom_site_fract_x
_atom_site_fract_y
_atom_site_fract_z
_atom_type_partial_charge
C1    C     C_R   0.249081 0.059732 0.939817 0.944960
C2    C     C_R   0.750919 0.940268 0.939817 0.944959
C3    C     C_R   0.249638 0.940311 0.060148 0.948028
C4    C     C_R   0.750363 0.059689 0.060147 0.948043
C5    C     C_R   0.749637 0.559689 0.939852 0.948005
C6    C     C_R   0.250367 0.440311 0.939852 0.948014
C7    C     C_R   0.749083 0.440268 0.060183 0.944974
C8    C     C_R   0.250918 0.559732 0.060183 0.945005
C9    C     C_R   0.749081 0.059732 0.439817 0.944965
C10   C     C_R   0.250918 0.940268 0.439817 0.944964
C11   C     C_R   0.749639 0.940311 0.560148 0.948030
C12   C     C_R   0.250361 0.059689 0.560147 0.948039
C13   C     C_R   0.249637 0.559689 0.439852 0.948012
C14   C     C_R   0.750366 0.440311 0.439852 0.948016
C15   C     C_R   0.249083 0.440268 0.560183 0.944982
C16   C     C_R   0.750919 0.559732 0.560183 0.944980
C17   C     C_R   0.249690 0.155854 0.842882 -0.185411
C18   C     C_R   0.750311 0.844146 0.842882 -0.185383
C19   C     C_R   0.249004 0.843670 0.156374 -0.182647
C20   C     C_R   0.750994 0.156331 0.156372 -0.182669
C21   C     C_R   0.749007 0.656328 0.843623 -0.182635
C22   C     C_R   0.250990 0.343673 0.843619 -0.182617
C23   C     C_R   0.749680 0.344146 0.157118 -0.185353
C24   C     C_R   0.250316 0.655855 0.157117 -0.185368
C25   C     C_R   0.749688 0.155854 0.342882 -0.185392
C26   C     C_R   0.250313 0.844146 0.342882 -0.185377
C27   C     C_R   0.749003 0.843669 0.656373 -0.182664
C28   C     C_R   0.250997 0.156332 0.656371 -0.182684
C29   C     C_R   0.249007 0.656328 0.343623 -0.182643
C30   C     C_R   0.750991 0.343673 0.343622 -0.182632
C31   C     C_R   0.249679 0.344146 0.657117 -0.185338
C32   C     C_R   0.750317 0.655854 0.657117 -0.185364
C33   C     C_R   0.294075 0.156692 0.877131 -0.016087
C34   C     C_R   0.705921 0.843311 0.877127 -0.016128
C35   C     C_R   0.297119 0.845046 0.124678 -0.010148
C36   C     C_R   0.702858 0.154937 0.124691 -0.010134
C37   C     C_R   0.797111 0.654958 0.875326 -0.010104
C38   C     C_R   0.202906 0.345028 0.875340 -0.009913
C39   C     C_R   0.794090 0.343321 0.122885 -0.016123
C40   C     C_R   0.205914 0.656684 0.122879 -0.016123
C41   C     C_R   0.794076 0.156690 0.377128 -0.016108
C42   C     C_R   0.205918 0.843314 0.377124 -0.016128
C43   C     C_R   0.797125 0.845051 0.624683 -0.010109
C44   C     C_R   0.202860 0.154938 0.624691 -0.010114
C45   C     C_R   0.297116 0.654955 0.375324 -0.010103
C46   C     C_R   0.702886 0.345045 0.375325 -0.010094
C47   C     C_R   0.294096 0.343325 0.622889 -0.016110
C48   C     C_R   0.705912 0.656682 0.622881 -0.016121
C49   C     C_R   0.292119 0.124954 0.908970 -0.312078
C50   C     C_R   0.707878 0.875049 0.908967 -0.312065
C51   C     C_R   0.296029 0.877466 0.093407 -0.328204
C52   C     C_R   0.703954 0.122518 0.093419 -0.328219
C53   C     C_R   0.796019 0.622541 0.906600 -0.328191
C54   C     C_R   0.204005 0.377443 0.906617 -0.328134
C55   C     C_R   0.792140 0.375059 0.091046 -0.312081
C56   C     C_R   0.207867 0.624945 0.091040 -0.312079
C57   C     C_R   0.792121 0.124952 0.408968 -0.312067
C58   C     C_R   0.207873 0.875052 0.408964 -0.312068
C59   C     C_R   0.796037 0.877472 0.593413 -0.328199
C60   C     C_R   0.203949 0.122516 0.593422 -0.328206
C61   C     C_R   0.296023 0.622537 0.406597 -0.328189
C62   C     C_R   0.703982 0.377462 0.406599 -0.328194
C63   C     C_R   0.292146 0.375064 0.591050 -0.312128
C64   C     C_R   0.707865 0.624943 0.591042 -0.312089
C65   C     C_R   0.248640 0.091959 0.906332 -0.147484
C66   C     C_R   0.751360 0.908041 0.906332 -0.147504
C67   C     C_R   0.249221 0.908226 0.093620 -0.141565
C68   C     C_R   0.750781 0.091773 0.093618 -0.141520
C69   C     C_R   0.749221 0.591774 0.906379 -0.141575
C70   C     C_R   0.250782 0.408226 0.906378 -0.141599
C71   C     C_R   0.748639 0.408042 0.093668 -0.147480
C72   C     C_R   0.251360 0.591958 0.093668 -0.147499
C73   C     C_R   0.748640 0.091959 0.406332 -0.147496
C74   C     C_R   0.251360 0.908041 0.406332 -0.147500
C75   C     C_R   0.749221 0.908226 0.593619 -0.141534
C76   C     C_R   0.250780 0.091774 0.593617 -0.141498
C77   C     C_R   0.249220 0.591774 0.406380 -0.141566
C78   C     C_R   0.750782 0.408226 0.406379 -0.141563
C79   C     C_R   0.248640 0.408043 0.593668 -0.147450
C80   C     C_R   0.751361 0.591958 0.593668 -0.147481
C81   C     C_R   0.031978 0.960495 0.999821 -0.168301
C82   C     C_R   0.968021 0.039505 0.999836 -0.168282
C83   C     C_R   0.031994 0.039488 0.000503 -0.181949
C84   C     C_R   0.968005 0.960511 0.000488 -0.181956
C85   C     C_R   0.531998 0.460512 0.999519 -0.181874
C86   C     C_R   0.468003 0.539488 0.999501 -0.181855
C87   C     C_R   0.531976 0.539505 0.000167 -0.168362
C88   C     C_R   0.468025 0.460495 0.000186 -0.168384
C89   C     C_R   0.531978 0.960495 0.499822 -0.168281
C90   C     C_R   0.468021 0.039505 0.499835 -0.168262
C91   C     C_R   0.531994 0.039488 0.500502 -0.181968
C92   C     C_R   0.468005 0.960511 0.500489 -0.181981
C93   C     C_R   0.031998 0.460511 0.499513 -0.181888
C94   C     C_R   0.968002 0.539488 0.499506 -0.181893
C95   C     C_R   0.031976 0.539505 0.500173 -0.168354
C96   C     C_R   0.968024 0.460495 0.500180 -0.168351
C97   C     C_R   0.936349 0.000016 0.000102 -0.009638
C98   C     C_R   0.063650 0.999984 0.000102 -0.009617
C99   C     C_R   0.436350 0.499984 0.999901 -0.009541
C100  C     C_R   0.563651 0.500016 0.999901 -0.009599
C101  C     C_R   0.436349 0.000016 0.500103 -0.009684
C102  C     C_R   0.563650 0.999984 0.500103 -0.009652
C103  C     C_R   0.936349 0.499984 0.499901 -0.009604
C104  C     C_R   0.063651 0.500016 0.499901 -0.009616
C105  C     C_R   0.250082 0.810159 0.310292 0.884388
C106  C     C_R   0.749918 0.189841 0.310292 0.884385
C107  C     C_R   0.250247 0.189669 0.689801 0.880296
C108  C     C_R   0.749753 0.810332 0.689802 0.880307
C109  C     C_R   0.750245 0.310333 0.310196 0.880296
C110  C     C_R   0.249754 0.689667 0.310197 0.880309
C111  C     C_R   0.750084 0.689840 0.689708 0.884375
C112  C     C_R   0.249915 0.310160 0.689708 0.884347
C113  C     C_R   0.750082 0.810159 0.810292 0.884397
C114  C     C_R   0.249918 0.189841 0.810292 0.884389
C115  C     C_R   0.750246 0.189669 0.189800 0.880284
C116  C     C_R   0.249753 0.810332 0.189802 0.880309
C117  C     C_R   0.250245 0.310334 0.810195 0.880312
C118  C     C_R   0.749754 0.689667 0.810196 0.880314
C119  C     C_R   0.250084 0.689841 0.189707 0.884385
C120  C     C_R   0.749916 0.310160 0.189709 0.884335
C121  C     C_R   0.369940 0.000256 0.999770 0.876471
C122  C     C_R   0.630061 0.999745 0.999770 0.876465
C123  C     C_R   0.869939 0.499746 0.000227 0.876478
C124  C     C_R   0.130060 0.500254 0.000227 0.876523
C125  C     C_R   0.869939 0.000255 0.499771 0.876475
C126  C     C_R   0.130061 0.999745 0.499771 0.876467
C127  C     C_R   0.369939 0.499745 0.500228 0.876467
C128  C     C_R   0.630060 0.500255 0.500228 0.876474
C129  C     C_R   0.129807 0.999983 0.000030 0.910394
C130  C     C_R   0.870192 0.000017 0.000030 0.910400
C131  C     C_R   0.629808 0.500017 0.999971 0.910394
C132  C     C_R   0.370192 0.499983 0.999971 0.910394
C133  C     C_R   0.629807 0.999983 0.500030 0.910406
C134  C     C_R   0.370192 0.000017 0.500030 0.910411
C135  C     C_R   0.129808 0.500017 0.499971 0.910399
C136  C     C_R   0.870192 0.499983 0.499971 0.910387
C137  C     C_R   0.436457 0.920261 0.009896 -0.376617
C138  C     C_R   0.563547 0.079738 0.009900 -0.376926
C139  C     C_R   0.437307 0.080619 0.993568 -0.380761
C140  C     C_R   0.562695 0.919386 0.993549 -0.380443
C141  C     C_R   0.937307 0.419391 0.006483 -0.380832
C142  C     C_R   0.062691 0.580613 0.006447 -0.380485
C143  C     C_R   0.936453 0.579740 0.990101 -0.376765
C144  C     C_R   0.063545 0.420254 0.990141 -0.377351
C145  C     C_R   0.936459 0.920260 0.509889 -0.376786
C146  C     C_R   0.063544 0.079740 0.509893 -0.376911
C147  C     C_R   0.937304 0.080616 0.493556 -0.380651
C148  C     C_R   0.062697 0.919387 0.493543 -0.380515
C149  C     C_R   0.437310 0.419386 0.506456 -0.380623
C150  C     C_R   0.562691 0.580613 0.506454 -0.380539
C151  C     C_R   0.436453 0.579741 0.490109 -0.376789
C152  C     C_R   0.563548 0.420259 0.490110 -0.376844
C153  C     C_R   0.467746 0.880595 0.007894 0.431368
C154  C     C_R   0.532264 0.119407 0.007900 0.431662
C155  C     C_R   0.468731 0.119901 0.999850 0.443034
C156  C     C_R   0.531274 0.880105 0.999826 0.442740
C157  C     C_R   0.968735 0.380103 0.000250 0.443375
C158  C     C_R   0.031266 0.619896 0.000179 0.442840
C159  C     C_R   0.967737 0.619408 0.992115 0.431424
C160  C     C_R   0.032267 0.380582 0.992200 0.431694
C161  C     C_R   0.967746 0.880592 0.507876 0.431439
C162  C     C_R   0.032258 0.119409 0.507885 0.431574
C163  C     C_R   0.968727 0.119898 0.499829 0.442984
C164  C     C_R   0.031275 0.880105 0.499812 0.442869
C165  C     C_R   0.468737 0.380102 0.500192 0.442941
C166  C     C_R   0.531266 0.619896 0.500187 0.442876
C167  C     C_R   0.467736 0.619408 0.492124 0.431457
C168  C     C_R   0.532266 0.380591 0.492130 0.431536
C169  C     C_R   0.531956 0.959777 0.998333 0.019508
C170  C     C_R   0.468045 0.040226 0.998342 0.019639
C171  C     C_R   0.532385 0.039925 0.002642 0.021142
C172  C     C_R   0.467616 0.960076 0.002637 0.021059
C173  C     C_R   0.032384 0.460074 0.997375 0.021350
C174  C     C_R   0.967614 0.539925 0.997357 0.021103
C175  C     C_R   0.031954 0.540224 0.001660 0.019493
C176  C     C_R   0.968045 0.459777 0.001679 0.019562
C177  C     C_R   0.031956 0.959777 0.498331 0.019516
C178  C     C_R   0.968044 0.040225 0.498336 0.019577
C179  C     C_R   0.032384 0.039925 0.502638 0.021154
C180  C     C_R   0.967617 0.960076 0.502634 0.021127
C181  C     C_R   0.532386 0.460075 0.497362 0.021133
C182  C     C_R   0.467614 0.539925 0.497362 0.021124
C183  C     C_R   0.531953 0.540224 0.501665 0.019534
C184  C     C_R   0.468047 0.459776 0.501666 0.019572
C185  C     C_R   0.563867 0.999801 0.999942 -0.107866
C186  C     C_R   0.436134 0.000201 0.999943 -0.107882
C187  C     C_R   0.063866 0.500199 0.000055 -0.107884
C188  C     C_R   0.936133 0.499801 0.000056 -0.107857
C189  C     C_R   0.063867 0.999801 0.499941 -0.107867
C190  C     C_R   0.936134 0.000200 0.499942 -0.107878
C191  C     C_R   0.563867 0.500199 0.500055 -0.107876
C192  C     C_R   0.436134 0.499801 0.500056 -0.107874
C193  C     C_R   0.205248 0.089691 0.872258 0.410722
C194  C     C_R   0.794757 0.910307 0.872261 0.410713
C195  C     C_R   0.201746 0.908021 0.124757 0.408264
C196  C     C_R   0.798275 0.091995 0.124738 0.408214
C197  C     C_R   0.701760 0.591971 0.875232 0.408294
C198  C     C_R   0.298215 0.408047 0.875208 0.408322
C199  C     C_R   0.705221 0.410299 0.127726 0.410694
C200  C     C_R   0.294771 0.589698 0.127730 0.410694
C201  C     C_R   0.705243 0.089692 0.372261 0.410718
C202  C     C_R   0.294762 0.910305 0.372264 0.410708
C203  C     C_R   0.701734 0.908012 0.624746 0.408235
C204  C     C_R   0.298284 0.092001 0.624730 0.408202
C205  C     C_R   0.201754 0.591975 0.375236 0.408275
C206  C     C_R   0.798243 0.408028 0.375232 0.408278
C207  C     C_R   0.205214 0.410296 0.627721 0.410672
C208  C     C_R   0.794775 0.589699 0.627729 0.410691
C209  C     C_R   0.203723 0.122905 0.841092 -0.149135
C210  C     C_R   0.796284 0.877092 0.841096 -0.149124
C211  C     C_R   0.199981 0.874551 0.155532 -0.145062
C212  C     C_R   0.800039 0.125466 0.155513 -0.145050
C213  C     C_R   0.699995 0.625441 0.844455 -0.145073
C214  C     C_R   0.299979 0.374578 0.844431 -0.145124
C215  C     C_R   0.703688 0.377083 0.158890 -0.149084
C216  C     C_R   0.296301 0.622914 0.158894 -0.149117
C217  C     C_R   0.703717 0.122907 0.341095 -0.149117
C218  C     C_R   0.296290 0.877089 0.341100 -0.149122
C219  C     C_R   0.699970 0.874542 0.655522 -0.145051
C220  C     C_R   0.300046 0.125470 0.655508 -0.145029
C221  C     C_R   0.199990 0.625444 0.344459 -0.145066
C222  C     C_R   0.800005 0.374560 0.344454 -0.145056
C223  C     C_R   0.203678 0.377078 0.658883 -0.149108
C224  C     C_R   0.796304 0.622915 0.658893 -0.149111
H1    H     H_    0.387950 0.919330 0.018208 0.175258
H2    H     H_    0.612055 0.080665 0.018212 0.175199
H3    H     H_    0.388830 0.082382 0.985207 0.174243
H4    H     H_    0.611173 0.917621 0.985191 0.174336
H5    H     H_    0.888826 0.417633 0.014834 0.174317
H6    H     H_    0.111169 0.582378 0.014804 0.174353
H7    H     H_    0.887946 0.580670 0.981785 0.175185
H8    H     H_    0.112042 0.419331 0.981796 0.174970
H9    H     H_    0.887953 0.919330 0.518208 0.175188
H10   H     H_    0.112050 0.080668 0.518209 0.175172
H11   H     H_    0.888827 0.082379 0.485197 0.174298
H12   H     H_    0.111175 0.917624 0.485187 0.174341
H13   H     H_    0.388833 0.417625 0.514816 0.174283
H14   H     H_    0.611169 0.582376 0.514812 0.174326
H15   H     H_    0.387947 0.580670 0.481791 0.175193
H16   H     H_    0.612053 0.419331 0.481789 0.175184
H17   H     H_    0.325056 0.125776 0.935881 0.177509
H18   H     H_    0.674938 0.874228 0.935876 0.177664
H19   H     H_    0.331386 0.878345 0.068183 0.180598
H20   H     H_    0.668582 0.121625 0.068207 0.180527
H21   H     H_    0.831367 0.621667 0.931831 0.180552
H22   H     H_    0.168677 0.378305 0.931862 0.180319
H23   H     H_    0.825095 0.374244 0.064147 0.177640
H24   H     H_    0.174918 0.625762 0.064136 0.177668
H25   H     H_    0.825061 0.125773 0.435877 0.177594
H26   H     H_    0.174930 0.874232 0.435871 0.177669
H27   H     H_    0.831402 0.878357 0.568194 0.180518
H28   H     H_    0.168574 0.121622 0.568212 0.180490
H29   H     H_    0.331373 0.621660 0.431825 0.180540
H30   H     H_    0.668634 0.378337 0.431829 0.180531
H31   H     H_    0.325107 0.374252 0.564153 0.177583
H32   H     H_    0.674914 0.625759 0.564140 0.177641
H33   H     H_    0.056728 0.929926 0.999770 0.144152
H34   H     H_    0.943271 0.070074 0.999796 0.144164
H35   H     H_    0.056760 0.070050 0.000587 0.143254
H36   H     H_    0.943238 0.929950 0.000561 0.143248
H37   H     H_    0.556766 0.429950 0.999448 0.143248
H38   H     H_    0.443235 0.570050 0.999415 0.143237
H39   H     H_    0.556725 0.570074 0.000206 0.144140
H40   H     H_    0.443277 0.429926 0.000239 0.144129
H41   H     H_    0.556728 0.929926 0.499772 0.144164
H42   H     H_    0.443271 0.070074 0.499795 0.144179
H43   H     H_    0.556760 0.070050 0.500586 0.143258
H44   H     H_    0.443239 0.929950 0.500563 0.143257
H45   H     H_    0.056766 0.429950 0.499437 0.143251
H46   H     H_    0.943234 0.570050 0.499425 0.143249
H47   H     H_    0.056724 0.570074 0.500216 0.144146
H48   H     H_    0.943276 0.429926 0.500228 0.144147
O1    O     O_R   0.250000 0.071660 0.980070 -0.643073
O2    O     O_R   0.750000 0.928340 0.980070 -0.642994
O3    O     O_R   0.250000 0.928340 0.019930 -0.636865
O4    O     O_R   0.750000 0.071660 0.019930 -0.636895
O5    O     O_R   0.750000 0.571660 0.980070 -0.636916
O6    O     O_R   0.250000 0.428340 0.980070 -0.637083
O7    O     O_R   0.750000 0.428340 0.019930 -0.642989
O8    O     O_R   0.250000 0.571660 0.019930 -0.642973
O9    O     O_R   0.750000 0.071660 0.480070 -0.643030
O10   O     O_R   0.250000 0.928340 0.480070 -0.642989
O11   O     O_R   0.750000 0.928340 0.519930 -0.636891
O12   O     O_R   0.250000 0.071660 0.519930 -0.636889
O13   O     O_R   0.250000 0.571660 0.480070 -0.636911
O14   O     O_R   0.750000 0.428340 0.480070 -0.636922
O15   O     O_R   0.250000 0.428340 0.519930 -0.643004
O16   O     O_R   0.750000 0.571660 0.519930 -0.642987
O17   O     O_R   0.250010 0.019960 0.928320 -0.616366
O18   O     O_R   0.749990 0.980040 0.928320 -0.616377
O19   O     O_R   0.250010 0.980040 0.071680 -0.626769
O20   O     O_R   0.749990 0.019960 0.071680 -0.626812
O21   O     O_R   0.750010 0.519960 0.928320 -0.626736
O22   O     O_R   0.249990 0.480040 0.928320 -0.626631
O23   O     O_R   0.750010 0.480040 0.071680 -0.616398
O24   O     O_R   0.249990 0.519960 0.071680 -0.616383
O25   O     O_R   0.750010 0.019960 0.428320 -0.616373
O26   O     O_R   0.249990 0.980040 0.428320 -0.616381
O27   O     O_R   0.750010 0.980040 0.571680 -0.626818
O28   O     O_R   0.249990 0.019960 0.571680 -0.626868
O29   O     O_R   0.250010 0.519960 0.428320 -0.626757
O30   O     O_R   0.749990 0.480040 0.428320 -0.626749
O31   O     O_R   0.250010 0.480040 0.571680 -0.616406
O32   O     O_R   0.749990 0.519960 0.571680 -0.616398
O33   O     O_R   0.341630 0.025860 0.025880 -0.636766
O34   O     O_R   0.658370 0.974140 0.025880 -0.636765
O35   O     O_R   0.341630 0.974140 0.974120 -0.634395
O36   O     O_R   0.658370 0.025860 0.974120 -0.634407
O37   O     O_R   0.841630 0.525860 0.025880 -0.634404
O38   O     O_R   0.158370 0.474140 0.025880 -0.634434
O39   O     O_R   0.841630 0.474140 0.974120 -0.636756
O40   O     O_R   0.158370 0.525860 0.974120 -0.636771
O41   O     O_R   0.841630 0.025860 0.525880 -0.636766
O42   O     O_R   0.158370 0.974140 0.525880 -0.636763
O43   O     O_R   0.841630 0.974140 0.474120 -0.634405
O44   O     O_R   0.158370 0.025860 0.474120 -0.634412
O45   O     O_R   0.341630 0.525860 0.525880 -0.634405
O46   O     O_R   0.658370 0.474140 0.525880 -0.634405
O47   O     O_R   0.341630 0.474140 0.474120 -0.636761
O48   O     O_R   0.658370 0.525860 0.474120 -0.636764
O49   O     O_R   0.158400 0.025850 0.025870 -0.630555
O50   O     O_R   0.841600 0.974150 0.025870 -0.630534
O51   O     O_R   0.158400 0.974150 0.974130 -0.627652
O52   O     O_R   0.841600 0.025850 0.974130 -0.627644
O53   O     O_R   0.658400 0.525850 0.025870 -0.627648
O54   O     O_R   0.341600 0.474150 0.025870 -0.627650
O55   O     O_R   0.658400 0.474150 0.974130 -0.630570
O56   O     O_R   0.341600 0.525850 0.974130 -0.630631
O57   O     O_R   0.658400 0.025850 0.525870 -0.630526
O58   O     O_R   0.341600 0.974150 0.525870 -0.630504
O59   O     O_R   0.658400 0.974150 0.474130 -0.627648
O60   O     O_R   0.341600 0.025850 0.474130 -0.627636
O61   O     O_R   0.158400 0.525850 0.525870 -0.627641
O62   O     O_R   0.841600 0.474150 0.525870 -0.627650
O63   O     O_R   0.158400 0.474150 0.474130 -0.630556
O64   O     O_R   0.841600 0.525850 0.474130 -0.630571
O65   O     O_R   0.198320 0.795840 0.295890 -0.618938
O66   O     O_R   0.801680 0.204160 0.295890 -0.618957
O67   O     O_R   0.198320 0.204160 0.704110 -0.612406
O68   O     O_R   0.801680 0.795840 0.704110 -0.612417
O69   O     O_R   0.698320 0.295840 0.295890 -0.612457
O70   O     O_R   0.301680 0.704160 0.295890 -0.612442
O71   O     O_R   0.698320 0.704160 0.704110 -0.618903
O72   O     O_R   0.301680 0.295840 0.704110 -0.618842
O73   O     O_R   0.698320 0.795840 0.795890 -0.618958
O74   O     O_R   0.301680 0.204160 0.795890 -0.618974
O75   O     O_R   0.698320 0.204160 0.204110 -0.612425
O76   O     O_R   0.301680 0.795840 0.204110 -0.612435
O77   O     O_R   0.198320 0.295840 0.795890 -0.612460
O78   O     O_R   0.801680 0.704160 0.795890 -0.612447
O79   O     O_R   0.198320 0.704160 0.204110 -0.618922
O80   O     O_R   0.801680 0.295840 0.204110 -0.618863
O81   O     O_R   0.301770 0.795830 0.295870 -0.610288
O82   O     O_R   0.698230 0.204170 0.295870 -0.610283
O83   O     O_R   0.301770 0.204170 0.704130 -0.609941
O84   O     O_R   0.698230 0.795830 0.704130 -0.609946
O85   O     O_R   0.801770 0.295830 0.295870 -0.609934
O86   O     O_R   0.198230 0.704170 0.295870 -0.609945
O87   O     O_R   0.801770 0.704170 0.704130 -0.610299
O88   O     O_R   0.198230 0.295830 0.704130 -0.610325
O89   O     O_R   0.801770 0.795830 0.795870 -0.610279
O90   O     O_R   0.198230 0.204170 0.795870 -0.610272
O91   O     O_R   0.801770 0.204170 0.204130 -0.609938
O92   O     O_R   0.198230 0.795830 0.204130 -0.609945
O93   O     O_R   0.301770 0.295830 0.795870 -0.609935
O94   O     O_R   0.698230 0.704170 0.795870 -0.609943
O95   O     O_R   0.301770 0.704170 0.204130 -0.610289
O96   O     O_R   0.698230 0.295830 0.204130 -0.610331
Zn1   Zn    Zn3+2 0.250010 0.034530 0.034550 0.916066
Zn2   Zn    Zn3+2 0.749990 0.965470 0.034550 0.916128
Zn3   Zn    Zn3+2 0.250010 0.965470 0.965450 0.922941
Zn4   Zn    Zn3+2 0.749990 0.034530 0.965450 0.922907
Zn5   Zn    Zn3+2 0.750010 0.534530 0.034550 0.922902
Zn6   Zn    Zn3+2 0.249990 0.465470 0.034550 0.922719
Zn7   Zn    Zn3+2 0.750010 0.465470 0.965450 0.916132
Zn8   Zn    Zn3+2 0.249990 0.534530 0.965450 0.916110
Zn9   Zn    Zn3+2 0.750010 0.034530 0.534550 0.916100
Zn10  Zn    Zn3+2 0.249990 0.965470 0.534550 0.916136
Zn11  Zn    Zn3+2 0.750010 0.965470 0.465450 0.922902
Zn12  Zn    Zn3+2 0.249990 0.034530 0.465450 0.922904
Zn13  Zn    Zn3+2 0.250010 0.534530 0.534550 0.922908
Zn14  Zn    Zn3+2 0.749990 0.465470 0.534550 0.922887
Zn15  Zn    Zn3+2 0.250010 0.465470 0.465450 0.916115
Zn16  Zn    Zn3+2 0.749990 0.534530 0.465450 0.916120
Zn17  Zn    Zn3+2 0.180950 0.750000 0.250000 0.977953
Zn18  Zn    Zn3+2 0.819050 0.250000 0.250000 0.977985
Zn19  Zn    Zn3+2 0.180950 0.250000 0.750000 0.987070
Zn20  Zn    Zn3+2 0.819050 0.750000 0.750000 0.987074
Zn21  Zn    Zn3+2 0.680950 0.250000 0.250000 0.987059
Zn22  Zn    Zn3+2 0.319050 0.750000 0.250000 0.987073
Zn23  Zn    Zn3+2 0.680950 0.750000 0.750000 0.977961
Zn24  Zn    Zn3+2 0.319050 0.250000 0.750000 0.977980
O97   O     O_3   0.438313 0.159278 0.996820 -0.589944
C225  C     C_3   0.397022 0.163517 0.032591 0.132565
H49   H     H_    0.418965 0.153684 0.064283 0.120913
H50   H     H_    0.354803 0.143616 0.026950 0.138583
C226  C     C_3   0.377602 0.210715 0.036860 -0.836586
H51   H     H_    0.352643 0.221198 0.006831 0.256709
H52   H     H_    0.346373 0.214604 0.065581 0.192401
H53   H     H_    0.419042 0.231532 0.041609 0.261335
O98   O     O_3   0.561708 0.840738 0.996785 -0.590068
C227  C     C_3   0.602787 0.836429 0.032668 0.132717
H54   H     H_    0.580582 0.846070 0.064328 0.121064
H55   H     H_    0.644951 0.856452 0.027266 0.138426
C228  C     C_3   0.622399 0.789257 0.036783 -0.836579
H56   H     H_    0.647649 0.778979 0.006804 0.256600
H57   H     H_    0.653416 0.785303 0.065610 0.192382
H58   H     H_    0.581023 0.768320 0.041262 0.261439
O99   O     O_3   0.437551 0.842363 0.017940 -0.596399
C229  C     C_3   0.400553 0.829969 0.981865 0.118458
H59   H     H_    0.429894 0.823797 0.952386 0.150330
H60   H     H_    0.365345 0.855192 0.973956 0.130244
C230  C     C_3   0.366425 0.788349 0.993346 -0.815653
H61   H     H_    0.334885 0.794087 0.021573 0.255797
H62   H     H_    0.338605 0.777395 0.964737 0.192688
H63   H     H_    0.400068 0.762538 0.002185 0.266228
O100  O     O_3   0.562461 0.157643 0.017935 -0.596238
C231  C     C_3   0.599569 0.169979 0.981897 0.118397
H64   H     H_    0.570325 0.176072 0.952351 0.150135
H65   H     H_    0.634832 0.144760 0.974107 0.130329
C232  C     C_3   0.633609 0.211644 0.993342 -0.815513
H66   H     H_    0.665056 0.205985 0.021638 0.255803
H67   H     H_    0.661519 0.222549 0.964759 0.192672
H68   H     H_    0.599906 0.237456 0.002064 0.266207
O101  O     O_3   0.937543 0.657647 0.982087 -0.596361
C233  C     C_3   0.900443 0.669982 0.018130 0.118412
H69   H     H_    0.929692 0.676066 0.047674 0.150153
H70   H     H_    0.865175 0.644766 0.025916 0.130338
C234  C     C_3   0.866411 0.711654 0.006694 -0.815576
H71   H     H_    0.900118 0.737463 0.997977 0.266194
H72   H     H_    0.834959 0.706005 0.978399 0.255827
H73   H     H_    0.838507 0.722558 0.035282 0.192671
O102  O     O_3   0.062444 0.342317 0.982229 -0.596144
C235  C     C_3   0.099943 0.330199 0.018142 0.118246
H74   H     H_    0.071064 0.324469 0.047943 0.149423
H75   H     H_    0.135459 0.355380 0.025447 0.130689
C236  C     C_3   0.133574 0.288324 0.006876 -0.815215
H76   H     H_    0.164658 0.293615 0.978309 0.255970
H77   H     H_    0.161819 0.277614 0.035371 0.192599
H78   H     H_    0.099597 0.262531 0.998650 0.266031
O103  O     O_3   0.938303 0.340739 0.003327 -0.589702
C237  C     C_3   0.897198 0.336406 0.967461 0.132518
H79   H     H_    0.919366 0.346049 0.935789 0.120971
H80   H     H_    0.855021 0.356414 0.972877 0.138427
C238  C     C_3   0.877623 0.289226 0.963363 -0.836348
H81   H     H_    0.852404 0.278944 0.993354 0.256645
H82   H     H_    0.846586 0.285254 0.934549 0.192352
H83   H     H_    0.919013 0.268303 0.958873 0.261453
O104  O     O_3   0.061699 0.659262 0.003232 -0.589992
C239  C     C_3   0.102763 0.663584 0.967342 0.132685
H84   H     H_    0.080538 0.653971 0.935681 0.121057
H85   H     H_    0.144920 0.643545 0.972720 0.138403
C240  C     C_3   0.122398 0.710753 0.963256 -0.836527
H86   H     H_    0.147678 0.721001 0.993233 0.256590
H87   H     H_    0.153395 0.714719 0.934420 0.192375
H88   H     H_    0.081031 0.731707 0.958810 0.261458
O105  O     O_3   0.938299 0.159269 0.496788 -0.589944
C241  C     C_3   0.897123 0.163550 0.532619 0.132622
H89   H     H_    0.919207 0.153825 0.564295 0.120985
H90   H     H_    0.854934 0.143582 0.527110 0.138487
C242  C     C_3   0.877598 0.210734 0.536798 -0.836523
H91   H     H_    0.852479 0.221102 0.506795 0.256653
H92   H     H_    0.846484 0.214662 0.565577 0.192380
H93   H     H_    0.919003 0.231618 0.541397 0.261403
O106  O     O_3   0.061711 0.840739 0.496763 -0.589987
C243  C     C_3   0.102781 0.836422 0.532650 0.132701
H94   H     H_    0.080569 0.846052 0.564310 0.121054
H95   H     H_    0.144944 0.856449 0.527259 0.138408
C244  C     C_3   0.122400 0.789250 0.536754 -0.836530
H96   H     H_    0.147665 0.778984 0.506777 0.256591
H97   H     H_    0.153405 0.785289 0.565586 0.192371
H98   H     H_    0.081026 0.768308 0.541217 0.261459
O107  O     O_3   0.937557 0.842353 0.517909 -0.596331
C245  C     C_3   0.900445 0.830019 0.481872 0.118419
H99   H     H_    0.929683 0.823940 0.452321 0.150126
H100  H     H_    0.865169 0.855233 0.474096 0.130345
C246  C     C_3   0.866427 0.788343 0.493311 -0.815554
H101  H     H_    0.834987 0.793987 0.521614 0.255833
H102  H     H_    0.838512 0.777441 0.464728 0.192670
H103  H     H_    0.900144 0.762535 0.502018 0.266181
O108  O     O_3   0.062450 0.157648 0.517915 -0.596260
C247  C     C_3   0.099591 0.169967 0.481888 0.118407
H104  H     H_    0.070380 0.176024 0.452319 0.150065
H105  H     H_    0.134882 0.144753 0.474143 0.130367
C248  C     C_3   0.133587 0.211653 0.493317 -0.815505
H106  H     H_    0.165002 0.206031 0.521638 0.255830
H107  H     H_    0.161526 0.222542 0.464741 0.192665
H108  H     H_    0.099855 0.237462 0.501992 0.266175
O109  O     O_3   0.437543 0.657648 0.482095 -0.596338
C249  C     C_3   0.400434 0.669980 0.518135 0.118409
H109  H     H_    0.429676 0.676062 0.547683 0.150138
H110  H     H_    0.365165 0.644763 0.525915 0.130339
C250  C     C_3   0.366403 0.711652 0.506698 -0.815568
H111  H     H_    0.400112 0.737462 0.497986 0.266191
H112  H     H_    0.334959 0.706005 0.478398 0.255828
H113  H     H_    0.338492 0.722553 0.535283 0.192669
O110  O     O_3   0.562460 0.342351 0.482104 -0.596307
C251  C     C_3   0.599596 0.330033 0.518135 0.118380
H114  H     H_    0.570374 0.323954 0.547694 0.150116
H115  H     H_    0.634862 0.355257 0.525899 0.130348
C252  C     C_3   0.633633 0.288363 0.506698 -0.815556
H116  H     H_    0.665059 0.294010 0.478388 0.255827
H117  H     H_    0.661565 0.277473 0.535277 0.192667
H118  H     H_    0.599927 0.262547 0.498001 0.266197
O111  O     O_3   0.438314 0.340732 0.503252 -0.589971
C253  C     C_3   0.397147 0.336431 0.467419 0.132593
H119  H     H_    0.419249 0.346119 0.435738 0.121006
H120  H     H_    0.354967 0.356419 0.472900 0.138486
C254  C     C_3   0.377594 0.289249 0.463282 -0.836481
H121  H     H_    0.352458 0.278919 0.493291 0.256672
H122  H     H_    0.346488 0.285305 0.434502 0.192385
H123  H     H_    0.418987 0.268348 0.458711 0.261397
O112  O     O_3   0.561696 0.659263 0.503241 -0.589987
C255  C     C_3   0.602794 0.663577 0.467370 0.132660
H124  H     H_    0.580611 0.653936 0.435703 0.121040
H125  H     H_    0.644960 0.643557 0.472784 0.138432
C256  C     C_3   0.622399 0.710751 0.463263 -0.836515
H126  H     H_    0.647628 0.721029 0.493251 0.256619
H127  H     H_    0.653434 0.714709 0.434446 0.192377
H128  H     H_    0.581021 0.731685 0.458772 0.261437
O113  O     O_3   0.160067 0.057738 0.872800 -0.615590
C257  C     C_3   0.175494 0.025159 0.841990 0.119665
H129  H     H_    0.224292 0.014007 0.845755 0.138638
H130  H     H_    0.168806 0.036946 0.807844 0.134362
C258  C     C_3   0.133074 0.986400 0.848900 -0.800526
H131  H     H_    0.084013 0.996311 0.844530 0.256470
H132  H     H_    0.144253 0.960658 0.824647 0.184877
H133  H     H_    0.139348 0.973203 0.882560 0.271586
O114  O     O_3   0.839941 0.942258 0.872806 -0.615597
C259  C     C_3   0.824522 0.974835 0.841993 0.119657
H134  H     H_    0.775726 0.985992 0.845756 0.138643
H135  H     H_    0.831209 0.963045 0.807847 0.134351
C260  C     C_3   0.866949 0.013591 0.848901 -0.800522
H136  H     H_    0.916008 0.003675 0.844533 0.256472
H137  H     H_    0.855776 0.039333 0.824645 0.184881
H138  H     H_    0.860675 0.026791 0.882559 0.271583
O115  O     O_3   0.152377 0.936510 0.120486 -0.617787
C261  C     C_3   0.159375 0.971085 0.150581 0.109670
H139  H     H_    0.204681 0.987763 0.146522 0.147883
H140  H     H_    0.155767 0.959651 0.185025 0.130687
C262  C     C_3   0.107969 0.003929 0.142888 -0.795652
H141  H     H_    0.062143 0.988340 0.147884 0.254681
H142  H     H_    0.112763 0.031317 0.166337 0.189718
H143  H     H_    0.110560 0.016722 0.108840 0.271554
O116  O     O_3   0.847660 0.063522 0.120451 -0.617827
C263  C     C_3   0.840709 0.028948 0.150552 0.109617
H144  H     H_    0.795431 0.012235 0.146488 0.147937
H145  H     H_    0.844285 0.040391 0.184996 0.130664
C264  C     C_3   0.892170 0.996144 0.142874 -0.795631
H146  H     H_    0.937970 0.011774 0.147860 0.254706
H147  H     H_    0.887425 0.968764 0.166336 0.189754
H148  H     H_    0.889597 0.983333 0.108831 0.271502
O117  O     O_3   0.652401 0.563473 0.879490 -0.617771
C265  C     C_3   0.659429 0.528899 0.849398 0.109623
H149  H     H_    0.704756 0.512246 0.853448 0.147835
H150  H     H_    0.655793 0.540329 0.814954 0.130724
C266  C     C_3   0.608065 0.496027 0.857101 -0.795496
H151  H     H_    0.562218 0.511591 0.852115 0.254665
H152  H     H_    0.612881 0.468643 0.833651 0.189688
H153  H     H_    0.610686 0.483235 0.891149 0.271559
O118  O     O_3   0.347548 0.436572 0.879437 -0.617719
C267  C     C_3   0.340446 0.471142 0.849348 0.109698
H154  H     H_    0.295057 0.487723 0.853366 0.147686
H155  H     H_    0.344172 0.459721 0.814906 0.130819
C268  C     C_3   0.391690 0.504096 0.857091 -0.795551
H156  H     H_    0.437596 0.488608 0.852137 0.254667
H157  H     H_    0.386816 0.531475 0.833640 0.189627
H158  H     H_    0.388977 0.516882 0.891136 0.271637
O119  O     O_3   0.660025 0.442243 0.127168 -0.615620
C269  C     C_3   0.675412 0.474821 0.157988 0.119635
H159  H     H_    0.724198 0.485998 0.154227 0.138676
H160  H     H_    0.668736 0.463022 0.192131 0.134327
C270  C     C_3   0.632949 0.513560 0.151086 -0.800527
H161  H     H_    0.583900 0.503623 0.155454 0.256468
H162  H     H_    0.644100 0.539303 0.175346 0.184896
H163  H     H_    0.639209 0.526768 0.117429 0.271575
O120  O     O_3   0.339963 0.557751 0.127177 -0.615610
C271  C     C_3   0.324566 0.525174 0.157995 0.119653
H164  H     H_    0.275777 0.514004 0.154234 0.138664
H165  H     H_    0.331247 0.536970 0.192139 0.134333
C272  C     C_3   0.367018 0.486429 0.151091 -0.800538
H166  H     H_    0.416070 0.496359 0.155457 0.256468
H167  H     H_    0.355861 0.460687 0.175350 0.184890
H168  H     H_    0.360751 0.473223 0.117434 0.271577
O121  O     O_3   0.660059 0.057742 0.372806 -0.615594
C273  C     C_3   0.675478 0.025163 0.341994 0.119661
H169  H     H_    0.724275 0.014007 0.345756 0.138640
H170  H     H_    0.668789 0.036952 0.307848 0.134357
C274  C     C_3   0.633052 0.986407 0.348904 -0.800529
H171  H     H_    0.583993 0.996322 0.344537 0.256471
H172  H     H_    0.644225 0.960665 0.324649 0.184880
H173  H     H_    0.639329 0.973208 0.382563 0.271584
O122  O     O_3   0.339947 0.942254 0.372812 -0.615601
C275  C     C_3   0.324536 0.974831 0.341996 0.119653
H174  H     H_    0.275742 0.985993 0.345758 0.138650
H175  H     H_    0.331220 0.963038 0.307851 0.134342
C276  C     C_3   0.366972 0.013583 0.348901 -0.800518
H176  H     H_    0.416029 0.003661 0.344534 0.256471
H177  H     H_    0.355804 0.039324 0.324644 0.184885
H178  H     H_    0.360701 0.026786 0.382559 0.271578
O123  O     O_3   0.652350 0.936486 0.620460 -0.617810
C277  C     C_3   0.659308 0.971065 0.650554 0.109658
H179  H     H_    0.704580 0.987782 0.646476 0.147961
H180  H     H_    0.655751 0.959628 0.685001 0.130639
C278  C     C_3   0.607836 0.003862 0.642883 -0.795708
H181  H     H_    0.562043 0.988231 0.647898 0.254692
H182  H     H_    0.612598 0.031254 0.666329 0.189754
H183  H     H_    0.610375 0.016657 0.608833 0.271521
O124  O     O_3   0.347684 0.063544 0.620426 -0.617847
C279  C     C_3   0.340774 0.028962 0.650523 0.109603
H184  H     H_    0.295531 0.012209 0.646436 0.148025
H185  H     H_    0.344296 0.040403 0.684970 0.130614
C280  C     C_3   0.392304 0.996207 0.642863 -0.795675
H186  H     H_    0.438069 0.011878 0.647880 0.254702
H187  H     H_    0.387584 0.968815 0.666313 0.189789
H188  H     H_    0.389795 0.983405 0.608814 0.271481
O125  O     O_3   0.152390 0.563482 0.379500 -0.617781
C281  C     C_3   0.159404 0.528907 0.349408 0.109650
H189  H     H_    0.204716 0.512237 0.353468 0.147869
H190  H     H_    0.155792 0.540338 0.314963 0.130699
C282  C     C_3   0.108011 0.496055 0.357100 -0.795586
H191  H     H_    0.062178 0.511635 0.352101 0.254672
H192  H     H_    0.112819 0.468666 0.333654 0.189706
H193  H     H_    0.110604 0.483265 0.391150 0.271556
O126  O     O_3   0.847606 0.436523 0.379493 -0.617777
C283  C     C_3   0.840584 0.471100 0.349403 0.109652
H194  H     H_    0.795263 0.487760 0.353459 0.147850
H195  H     H_    0.844209 0.459672 0.314958 0.130721
C284  C     C_3   0.891961 0.503962 0.357104 -0.795592
H196  H     H_    0.937801 0.488391 0.352112 0.254678
H197  H     H_    0.887149 0.531350 0.333657 0.189698
H198  H     H_    0.889352 0.516752 0.391153 0.271564
O127  O     O_3   0.160013 0.442236 0.627158 -0.615628
C285  C     C_3   0.175386 0.474812 0.657984 0.119631
H199  H     H_    0.224165 0.486002 0.654222 0.138691
H200  H     H_    0.168719 0.463006 0.692126 0.134300
C286  C     C_3   0.132902 0.513542 0.651090 -0.800533
H201  H     H_    0.083858 0.503592 0.655460 0.256468
H202  H     H_    0.144043 0.539284 0.675353 0.184903
H203  H     H_    0.139152 0.526756 0.617435 0.271564
O128  O     O_3   0.839969 0.557754 0.627173 -0.615615
C287  C     C_3   0.824577 0.525176 0.657991 0.119644
H204  H     H_    0.775791 0.514001 0.654229 0.138672
H205  H     H_    0.831253 0.536973 0.692136 0.134329
C288  C     C_3   0.867038 0.486435 0.651089 -0.800538
H206  H     H_    0.916088 0.496370 0.655458 0.256465
H207  H     H_    0.855884 0.460693 0.675348 0.184895
H208  H     H_    0.860777 0.473229 0.617432 0.271575
C289  C     C_R   0.152475 0.123268 0.808405 0.176972
C290  C     C_R   0.091324 0.130519 0.822316 -0.067560
C291  C     C_R   0.043036 0.131408 0.791711 -0.167218
C292  C     C_R   0.055370 0.124856 0.747097 -0.126561
C293  C     C_R   0.115977 0.117241 0.733054 -0.106543
C294  C     C_R   0.164353 0.116445 0.763543 -0.152748
H209  H     H_    0.081185 0.135747 0.856772 0.121558
H210  H     H_    0.996053 0.137212 0.802584 0.124713
H211  H     H_    0.017979 0.125600 0.723427 0.118439
H212  H     H_    0.125530 0.111986 0.698550 0.126954
H213  H     H_    0.210860 0.110557 0.752228 0.088799
C295  C     C_R   0.847544 0.876723 0.808417 0.176958
C296  C     C_R   0.908690 0.869475 0.822340 -0.067575
C297  C     C_R   0.956989 0.868580 0.791743 -0.167223
C298  C     C_R   0.944669 0.875121 0.747126 -0.126598
C299  C     C_R   0.884066 0.882733 0.733070 -0.106539
C300  C     C_R   0.835681 0.883536 0.763552 -0.152684
H214  H     H_    0.918818 0.864255 0.856799 0.121567
H215  H     H_    0.003968 0.862779 0.802626 0.124712
H216  H     H_    0.982068 0.874373 0.723462 0.118440
H217  H     H_    0.874524 0.887978 0.698563 0.126947
H218  H     H_    0.789176 0.889420 0.752227 0.088805
C301  C     C_R   0.144504 0.871272 0.184146 0.200290
C302  C     C_R   0.088926 0.855066 0.166790 -0.049620
C303  C     C_R   0.036176 0.852120 0.193245 -0.169439
C304  C     C_R   0.038350 0.866011 0.236951 -0.130476
C305  C     C_R   0.093294 0.882819 0.254215 -0.124882
C306  C     C_R   0.146378 0.885060 0.228099 -0.159791
H219  H     H_    0.086620 0.844843 0.132803 0.116691
H220  H     H_    0.993525 0.839375 0.179767 0.119892
H221  H     H_    0.997356 0.864113 0.257315 0.117117
H222  H     H_    0.094670 0.894573 0.287691 0.117791
H223  H     H_    0.188140 0.898701 0.241740 0.087284
C307  C     C_R   0.855533 0.128757 0.184109 0.200277
C308  C     C_R   0.911109 0.144936 0.166723 -0.049671
C309  C     C_R   0.963879 0.147883 0.193157 -0.169464
C310  C     C_R   0.961729 0.134016 0.236872 -0.130493
C311  C     C_R   0.906789 0.117234 0.254166 -0.124909
C312  C     C_R   0.853684 0.114993 0.228070 -0.159640
H224  H     H_    0.913398 0.155134 0.132728 0.116689
H225  H     H_    0.006529 0.160606 0.179656 0.119914
H226  H     H_    0.002739 0.135914 0.257219 0.117139
H227  H     H_    0.905432 0.105497 0.287648 0.117776
H228  H     H_    0.811924 0.101372 0.241734 0.087302
C313  C     C_R   0.644531 0.628711 0.815829 0.200288
C314  C     C_R   0.588943 0.644922 0.833167 -0.049611
C315  C     C_R   0.536206 0.647862 0.806699 -0.169418
C316  C     C_R   0.538401 0.633959 0.762997 -0.130437
C317  C     C_R   0.593354 0.617147 0.745750 -0.124862
C318  C     C_R   0.646427 0.614913 0.771879 -0.159878
H229  H     H_    0.586621 0.655155 0.867151 0.116686
H230  H     H_    0.493548 0.660610 0.820163 0.119888
H231  H     H_    0.497417 0.635853 0.742623 0.117111
H232  H     H_    0.594747 0.605384 0.712278 0.117799
H233  H     H_    0.688195 0.601267 0.758252 0.087279
C319  C     C_R   0.355417 0.371327 0.815777 0.200289
C320  C     C_R   0.411022 0.355110 0.833080 -0.049598
C321  C     C_R   0.463732 0.352181 0.806583 -0.169396
C322  C     C_R   0.461491 0.366102 0.762887 -0.130394
C323  C     C_R   0.406520 0.382921 0.745677 -0.124817
C324  C     C_R   0.353475 0.385144 0.771835 -0.160055
H234  H     H_    0.413379 0.344860 0.867057 0.116654
H235  H     H_    0.506405 0.339427 0.820019 0.119876
H236  H     H_    0.502453 0.364217 0.742491 0.117089
H237  H     H_    0.405090 0.394699 0.712210 0.117817
H238  H     H_    0.311693 0.398798 0.758237 0.087261
C325  C     C_R   0.652407 0.376705 0.191553 0.176889
C326  C     C_R   0.591266 0.369478 0.177605 -0.067663
C327  C     C_R   0.542946 0.368579 0.208185 -0.167227
C328  C     C_R   0.555238 0.375095 0.252809 -0.126672
C329  C     C_R   0.615834 0.382685 0.266890 -0.106544
C330  C     C_R   0.664241 0.383495 0.236426 -0.152509
H239  H     H_    0.581159 0.364278 0.143140 0.121625
H240  H     H_    0.495972 0.362794 0.197283 0.124731
H241  H     H_    0.517822 0.374343 0.276460 0.118466
H242  H     H_    0.625355 0.387910 0.301403 0.126942
H243  H     H_    0.710739 0.389360 0.247770 0.088819
C331  C     C_R   0.347576 0.623290 0.191562 0.176927
C332  C     C_R   0.408717 0.630529 0.177621 -0.067606
C333  C     C_R   0.457031 0.631428 0.208205 -0.167228
C334  C     C_R   0.444733 0.624902 0.252828 -0.126649
C335  C     C_R   0.384137 0.617300 0.266901 -0.106539
C336  C     C_R   0.335736 0.616490 0.236432 -0.152582
H244  H     H_    0.418829 0.635737 0.143158 0.121594
H245  H     H_    0.504005 0.637223 0.197309 0.124718
H246  H     H_    0.482144 0.625655 0.276482 0.118452
H247  H     H_    0.374611 0.612068 0.301412 0.126939
H248  H     H_    0.289237 0.610616 0.247771 0.088815
C337  C     C_R   0.652462 0.123274 0.308413 0.176968
C338  C     C_R   0.591314 0.130526 0.322331 -0.067568
C339  C     C_R   0.543020 0.131418 0.291731 -0.167220
C340  C     C_R   0.555345 0.124870 0.247115 -0.126573
C341  C     C_R   0.615948 0.117253 0.233065 -0.106535
C342  C     C_R   0.664330 0.116453 0.263550 -0.152724
H249  H     H_    0.581182 0.135752 0.356788 0.121561
H250  H     H_    0.496040 0.137224 0.302609 0.124714
H251  H     H_    0.517949 0.125616 0.223449 0.118450
H252  H     H_    0.625495 0.112001 0.198560 0.126947
H253  H     H_    0.710835 0.110564 0.252229 0.088798
C343  C     C_R   0.347558 0.876717 0.308426 0.176940
C344  C     C_R   0.408702 0.869475 0.322358 -0.067597
C345  C     C_R   0.457008 0.868578 0.291768 -0.167220
C346  C     C_R   0.444699 0.875111 0.247148 -0.126628
C347  C     C_R   0.384099 0.882716 0.233083 -0.106545
C348  C     C_R   0.335705 0.883522 0.263558 -0.152622
H254  H     H_    0.418822 0.864261 0.356819 0.121583
H255  H     H_    0.503985 0.862781 0.302657 0.124717
H256  H     H_    0.482104 0.874360 0.223488 0.118444
H257  H     H_    0.374564 0.887954 0.198574 0.126939
H258  H     H_    0.289204 0.889400 0.252226 0.088810
C349  C     C_R   0.644483 0.871256 0.684126 0.200290
C350  C     C_R   0.588910 0.855057 0.666755 -0.049614
C351  C     C_R   0.536149 0.852108 0.693199 -0.169465
C352  C     C_R   0.538308 0.865991 0.736908 -0.130501
C353  C     C_R   0.593246 0.882792 0.754187 -0.124901
C354  C     C_R   0.646342 0.885036 0.728082 -0.159719
H259  H     H_    0.586616 0.844843 0.632765 0.116707
H260  H     H_    0.493502 0.839370 0.679709 0.119897
H261  H     H_    0.497306 0.864091 0.757263 0.117125
H262  H     H_    0.594609 0.894540 0.787666 0.117781
H263  H     H_    0.688100 0.898671 0.741734 0.087293
C355  C     C_R   0.355544 0.128766 0.684098 0.200278
C356  C     C_R   0.411113 0.144953 0.666709 -0.049621
C357  C     C_R   0.463887 0.147905 0.693138 -0.169481
C358  C     C_R   0.461748 0.134036 0.736853 -0.130520
C359  C     C_R   0.406815 0.117246 0.754150 -0.124923
C360  C     C_R   0.353706 0.114999 0.728059 -0.159632
H264  H     H_    0.413393 0.155154 0.632714 0.116721
H265  H     H_    0.506530 0.160635 0.679634 0.119907
H266  H     H_    0.502761 0.135938 0.757196 0.117140
H267  H     H_    0.405467 0.105508 0.787632 0.117773
H268  H     H_    0.311951 0.101372 0.741726 0.087309
C361  C     C_R   0.144523 0.628717 0.315836 0.200293
C362  C     C_R   0.088937 0.644925 0.333179 -0.049610
C363  C     C_R   0.036196 0.647866 0.306715 -0.169433
C364  C     C_R   0.038387 0.633968 0.263011 -0.130459
C365  C     C_R   0.093338 0.617158 0.245759 -0.124877
C366  C     C_R   0.146414 0.614923 0.271885 -0.159844
H269  H     H_    0.086619 0.655154 0.367164 0.116685
H270  H     H_    0.993539 0.660612 0.320183 0.119890
H271  H     H_    0.997400 0.635862 0.242640 0.117115
H272  H     H_    0.094727 0.605398 0.212286 0.117800
H273  H     H_    0.188182 0.601279 0.258254 0.087281
C367  C     C_R   0.855463 0.371292 0.315822 0.200279
C368  C     C_R   0.911056 0.355083 0.333154 -0.049601
C369  C     C_R   0.963787 0.352146 0.306679 -0.169443
C370  C     C_R   0.961581 0.366051 0.262978 -0.130425
C371  C     C_R   0.906623 0.382863 0.245738 -0.124811
C372  C     C_R   0.853557 0.385093 0.271874 -0.159912
H274  H     H_    0.913386 0.344849 0.367137 0.116685
H275  H     H_    0.006450 0.339400 0.320138 0.119893
H276  H     H_    0.002561 0.364161 0.242600 0.117111
H277  H     H_    0.905222 0.394629 0.212267 0.117798
H278  H     H_    0.811785 0.398740 0.258252 0.087277
C373  C     C_R   0.152377 0.376689 0.691532 0.176873
C374  C     C_R   0.091245 0.369469 0.677563 -0.067682
C375  C     C_R   0.042906 0.368559 0.708127 -0.167244
C376  C     C_R   0.055170 0.375057 0.752758 -0.126722
C377  C     C_R   0.115758 0.382639 0.766861 -0.106522
C378  C     C_R   0.164183 0.383462 0.736411 -0.152402
H279  H     H_    0.081158 0.364282 0.643093 0.121648
H280  H     H_    0.995938 0.362779 0.697208 0.124739
H281  H     H_    0.017740 0.374295 0.776397 0.118487
H282  H     H_    0.125258 0.387846 0.801380 0.126947
H283  H     H_    0.210674 0.389318 0.747774 0.088826
C379  C     C_R   0.847582 0.623293 0.691558 0.176918
C380  C     C_R   0.908722 0.630528 0.677615 -0.067620
C381  C     C_R   0.957039 0.631428 0.708198 -0.167231
C382  C     C_R   0.944743 0.624905 0.752821 -0.126663
C383  C     C_R   0.884148 0.617306 0.766897 -0.106542
C384  C     C_R   0.835745 0.616496 0.736430 -0.152557
H284  H     H_    0.918832 0.635734 0.643152 0.121603
H285  H     H_    0.004012 0.637220 0.697300 0.124718
H286  H     H_    0.982156 0.625659 0.776474 0.118449
H287  H     H_    0.874624 0.612077 0.801409 0.126935
H288  H     H_    0.789246 0.610624 0.747771 0.088816
C385  C     C_R   0.340792 0.191422 0.882686 0.165471
C386  C     C_R   0.398119 0.188750 0.861136 -0.075371
C387  C     C_R   0.443052 0.220716 0.867728 -0.142599
C388  C     C_R   0.431375 0.255175 0.896362 -0.088887
C389  C     C_R   0.374807 0.257654 0.918516 -0.116572
C390  C     C_R   0.329923 0.225587 0.912153 -0.174370
H289  H     H_    0.407980 0.161944 0.839399 0.111102
H290  H     H_    0.487053 0.218630 0.850843 0.110180
H291  H     H_    0.466358 0.279748 0.901642 0.109751
H292  H     H_    0.366044 0.284111 0.941048 0.126809
H293  H     H_    0.287185 0.227000 0.930667 0.117932
C391  C     C_R   0.659200 0.808584 0.882681 0.165529
C392  C     C_R   0.601867 0.811267 0.861139 -0.075378
C393  C     C_R   0.556922 0.779311 0.867742 -0.142655
C394  C     C_R   0.568593 0.744853 0.896379 -0.088962
C395  C     C_R   0.625167 0.742363 0.918523 -0.116453
C396  C     C_R   0.670065 0.774418 0.912147 -0.174265
H294  H     H_    0.592009 0.838074 0.839405 0.111108
H295  H     H_    0.512915 0.781405 0.850866 0.110174
H296  H     H_    0.533599 0.720289 0.901668 0.109734
H297  H     H_    0.633925 0.715907 0.941057 0.126808
H298  H     H_    0.712808 0.772998 0.930654 0.117860
C397  C     C_R   0.346984 0.811917 0.120969 0.153358
C398  C     C_R   0.409507 0.824619 0.120403 -0.095575
C399  C     C_R   0.456279 0.793643 0.115417 -0.075266
C400  C     C_R   0.441088 0.749838 0.110715 -0.127913
C401  C     C_R   0.379096 0.736936 0.110991 -0.127550
C402  C     C_R   0.332277 0.767810 0.115975 -0.113270
H299  H     H_    0.421992 0.858469 0.123782 0.109600
H300  H     H_    0.504305 0.803621 0.115062 0.115245
H301  H     H_    0.477331 0.725914 0.106803 0.116696
H302  H     H_    0.367235 0.703040 0.107268 0.130962
H303  H     H_    0.284601 0.757417 0.116284 0.102211
C403  C     C_R   0.652953 0.188039 0.120998 0.153350
C404  C     C_R   0.590445 0.175299 0.120417 -0.095733
C405  C     C_R   0.543635 0.206245 0.115423 -0.075166
C406  C     C_R   0.558772 0.250060 0.110734 -0.127845
C407  C     C_R   0.620746 0.263003 0.111029 -0.127500
C408  C     C_R   0.667604 0.232158 0.116016 -0.113153
H304  H     H_    0.578001 0.141441 0.123784 0.109612
H305  H     H_    0.495623 0.196235 0.115047 0.115365
H306  H     H_    0.522499 0.273962 0.106816 0.116667
H307  H     H_    0.632565 0.296907 0.107315 0.130922
H308  H     H_    0.715266 0.242582 0.116333 0.102154
C409  C     C_R   0.846967 0.688092 0.879041 0.153304
C410  C     C_R   0.909493 0.675396 0.879618 -0.095649
C411  C     C_R   0.956256 0.706376 0.884609 -0.075251
C412  C     C_R   0.941052 0.750180 0.889304 -0.127835
C413  C     C_R   0.879058 0.763078 0.889015 -0.127530
C414  C     C_R   0.832248 0.732199 0.884026 -0.113389
H309  H     H_    0.921987 0.641547 0.876245 0.109618
H310  H     H_    0.004284 0.696403 0.884972 0.115238
H311  H     H_    0.977289 0.774108 0.893219 0.116688
H312  H     H_    0.867188 0.796973 0.892733 0.130977
H313  H     H_    0.784570 0.742588 0.883708 0.102255
C415  C     C_R   0.153062 0.311885 0.879067 0.153068
C416  C     C_R   0.090534 0.324576 0.879706 -0.096097
C417  C     C_R   0.043784 0.293590 0.884726 -0.075167
C418  C     C_R   0.059003 0.249785 0.889387 -0.127580
C419  C     C_R   0.120998 0.236892 0.889035 -0.127436
C420  C     C_R   0.167795 0.267776 0.884016 -0.113726
H314  H     H_    0.078028 0.358426 0.876360 0.109726
H315  H     H_    0.995756 0.303561 0.885140 0.115336
H316  H     H_    0.022777 0.225853 0.893326 0.116654
H317  H     H_    0.132880 0.202996 0.892727 0.131009
H318  H     H_    0.215474 0.257391 0.883653 0.102356
C421  C     C_R   0.840831 0.308605 0.117350 0.165761
C422  C     C_R   0.898200 0.311350 0.138834 -0.075490
C423  C     C_R   0.943161 0.279400 0.132252 -0.142134
C424  C     C_R   0.931466 0.244882 0.103696 -0.088536
C425  C     C_R   0.874850 0.242325 0.081612 -0.116738
C426  C     C_R   0.829936 0.274374 0.087967 -0.174217
H319  H     H_    0.908077 0.338204 0.160504 0.110994
H320  H     H_    0.987198 0.281546 0.149081 0.110149
H321  H     H_    0.966472 0.220323 0.098420 0.109660
H322  H     H_    0.866072 0.215821 0.059140 0.126811
H323  H     H_    0.787164 0.272905 0.069499 0.117777
C427  C     C_R   0.159184 0.691407 0.117330 0.165583
C428  C     C_R   0.101845 0.688710 0.138860 -0.075421
C429  C     C_R   0.056891 0.720662 0.132261 -0.142557
C430  C     C_R   0.068561 0.755132 0.103640 -0.088882
C431  C     C_R   0.125144 0.757638 0.081507 -0.116494
C432  C     C_R   0.170050 0.725587 0.087881 -0.174234
H324  H     H_    0.091986 0.661893 0.160582 0.111103
H325  H     H_    0.012879 0.718556 0.149128 0.110171
H326  H     H_    0.033561 0.779693 0.098352 0.109718
H327  H     H_    0.133901 0.784103 0.058985 0.126807
H328  H     H_    0.212799 0.727018 0.069381 0.117832
C433  C     C_R   0.840796 0.191418 0.382682 0.165541
C434  C     C_R   0.898135 0.188730 0.361150 -0.075396
C435  C     C_R   0.943077 0.220689 0.367749 -0.142528
C436  C     C_R   0.931394 0.255157 0.396371 -0.088848
C437  C     C_R   0.874812 0.257653 0.418505 -0.116567
C438  C     C_R   0.829919 0.225594 0.412134 -0.174315
H329  H     H_    0.908001 0.161916 0.339426 0.111073
H330  H     H_    0.987089 0.218590 0.350880 0.110176
H331  H     H_    0.966385 0.279724 0.401658 0.109730
H332  H     H_    0.866045 0.284117 0.441027 0.126812
H333  H     H_    0.787170 0.227019 0.430634 0.117888
C439  C     C_R   0.159194 0.808589 0.382676 0.165565
C440  C     C_R   0.101856 0.811280 0.361142 -0.075397
C441  C     C_R   0.056909 0.779325 0.367742 -0.142554
C442  C     C_R   0.068584 0.744859 0.396367 -0.088884
C443  C     C_R   0.125164 0.742359 0.418502 -0.116487
C444  C     C_R   0.170064 0.774413 0.412129 -0.174252
H334  H     H_    0.091995 0.838094 0.339417 0.111098
H335  H     H_    0.012898 0.781427 0.350872 0.110170
H336  H     H_    0.033589 0.720295 0.401655 0.109721
H337  H     H_    0.133925 0.715896 0.441028 0.126810
H338  H     H_    0.212812 0.772986 0.430630 0.117844
C445  C     C_R   0.846997 0.811926 0.620976 0.153361
C446  C     C_R   0.909517 0.824633 0.620407 -0.095715
C447  C     C_R   0.956295 0.793662 0.615420 -0.075279
C448  C     C_R   0.941111 0.749855 0.610720 -0.127779
C449  C     C_R   0.879123 0.736947 0.611000 -0.127514
C450  C     C_R   0.832298 0.767817 0.615985 -0.113338
H339  H     H_    0.921997 0.858485 0.623784 0.109600
H340  H     H_    0.004319 0.803644 0.615062 0.115225
H341  H     H_    0.977359 0.725934 0.606807 0.116677
H342  H     H_    0.867267 0.703050 0.607278 0.130953
H343  H     H_    0.784624 0.757420 0.616295 0.102211
C451  C     C_R   0.152970 0.188050 0.620993 0.153391
C452  C     C_R   0.090456 0.175325 0.620422 -0.095771
C453  C     C_R   0.043660 0.206282 0.615432 -0.075240
C454  C     C_R   0.058818 0.250093 0.610732 -0.127736
C455  C     C_R   0.120798 0.263020 0.611015 -0.127486
C456  C     C_R   0.167642 0.232163 0.616001 -0.113275
H344  H     H_    0.077996 0.141470 0.623798 0.109594
H345  H     H_    0.995643 0.196284 0.615070 0.115277
H346  H     H_    0.022556 0.274003 0.606817 0.116661
H347  H     H_    0.132634 0.296920 0.607292 0.130925
H348  H     H_    0.215309 0.242575 0.616309 0.102175
C457  C     C_R   0.346977 0.688084 0.379037 0.153302
C458  C     C_R   0.409501 0.675382 0.379619 -0.095691
C459  C     C_R   0.456270 0.706358 0.384613 -0.075234
C460  C     C_R   0.441074 0.750163 0.389305 -0.127831
C461  C     C_R   0.379083 0.763067 0.389012 -0.127527
C462  C     C_R   0.332267 0.732193 0.384020 -0.113352
H349  H     H_    0.421989 0.641532 0.376248 0.109624
H350  H     H_    0.504295 0.696379 0.384982 0.115258
H351  H     H_    0.477315 0.774088 0.393223 0.116685
H352  H     H_    0.367219 0.796964 0.392727 0.130970
H353  H     H_    0.284591 0.742587 0.383700 0.102240
C463  C     C_R   0.653021 0.311917 0.379038 0.153252
C464  C     C_R   0.590499 0.324623 0.379634 -0.095722
C465  C     C_R   0.543727 0.293651 0.384635 -0.075178
C466  C     C_R   0.558918 0.249844 0.389321 -0.127865
C467  C     C_R   0.620908 0.236936 0.389013 -0.127539
C468  C     C_R   0.667727 0.267807 0.384015 -0.113323
H354  H     H_    0.578014 0.358475 0.376269 0.109646
H355  H     H_    0.495704 0.303634 0.385017 0.115310
H356  H     H_    0.522676 0.225922 0.393244 0.116691
H357  H     H_    0.632768 0.203038 0.392724 0.130973
H358  H     H_    0.715401 0.257410 0.383686 0.102251
C469  C     C_R   0.340838 0.308609 0.617350 0.165709
C470  C     C_R   0.398198 0.311344 0.638847 -0.075509
C471  C     C_R   0.443162 0.279398 0.632257 -0.142481
C472  C     C_R   0.431480 0.244895 0.603680 -0.088760
C473  C     C_R   0.374874 0.242349 0.581583 -0.116654
C474  C     C_R   0.329957 0.274395 0.587945 -0.174204
H359  H     H_    0.408066 0.338187 0.660534 0.111065
H360  H     H_    0.487193 0.281535 0.649097 0.110156
H361  H     H_    0.466490 0.220339 0.598399 0.109696
H362  H     H_    0.366107 0.215858 0.559094 0.126801
H363  H     H_    0.287191 0.272934 0.569468 0.117799
C475  C     C_R   0.659178 0.691402 0.617336 0.165623
C476  C     C_R   0.601832 0.688692 0.638856 -0.075445
C477  C     C_R   0.556874 0.720641 0.632259 -0.142532
C478  C     C_R   0.568546 0.755121 0.603651 -0.088841
C479  C     C_R   0.625136 0.757641 0.581530 -0.116544
C480  C     C_R   0.670047 0.725593 0.587900 -0.174226
H364  H     H_    0.591972 0.661867 0.660566 0.111085
H365  H     H_    0.512855 0.718524 0.649117 0.110166
H366  H     H_    0.533542 0.779680 0.598365 0.109710
H367  H     H_    0.633895 0.784114 0.559018 0.126804
H368  H     H_    0.712801 0.727034 0.569407 0.117820

loop_
_geom_bond_atom_site_label_1
_geom_bond_atom_site_label_2
_ccdc_geom_bond_type
C450  H343  S    
C113  O89   A    
C430  H326  S    
O14   Zn14  S    
C463  C468  A    
C104  C135  S    
C223  C373  S    
C26   C218  A    
C263  C264  S    
O121  C273  S    
C373  C374  A    
C164  O106  S    
C125  O43   A    
C53   C69   A    
C42   C58   A    
C126  O44   A    
C303  C304  A    
C437  C438  A    
C317  H232  S    
C30   C222  A    
C23   C215  A    
C274  H171  S    
C134  O60   A    
C56   H24   S    
C369  C370  A    
C148  C177  A    
C388  H291  S    
C9    C73   S    
C344  H254  S    
C46   C62   A    
O30   Zn16  S    
C371  C372  A    
C18   C210  A    
C120  O96   A    
C162  C163  A    
O13   Zn13  S    
C431  H327  S    
C284  H197  S    
C397  C402  A    
C67   C195  A    
C274  H173  S    
C281  H189  S    
O56   Zn8   S    
C153  O99   S    
C320  H234  S    
C22   C38   A    
C254  H121  S    
C419  C420  A    
C259  H134  S    
O117  C265  S    
C318  H233  S    
C138  H2    S    
C474  H363  S    
C155  O97   S    
C110  O70   A    
O97   C225  S    
C25   C217  A    
C346  C347  A    
C268  H158  S    
C56   C72   A    
C326  H239  S    
C17   C114  S    
C149  H13   S    
C31   C112  S    
C15   O15   A    
C436  H331  S    
C11   O11   A    
C144  C160  A    
C147  H11   S    
O27   Zn9   S    
O19   Zn1   S    
C212  C307  S    
C444  H338  S    
C22   C214  A    
C195  O115  S    
O31   Zn13  S    
C193  O113  S    
C116  O92   A    
C269  C270  S    
C276  H177  S    
C480  H368  S    
C230  H62   S    
C387  C388  A    
C28   C220  A    
C42   C439  S    
C459  H350  S    
C361  C362  A    
O40   Zn8   S    
C168  O110  S    
C428  H324  S    
C265  H150  S    
O81   Zn22  S    
C142  C158  A    
C7    O7    A    
C26   C105  S    
C35   C397  S    
C415  C416  A    
C66   C194  A    
C382  H286  S    
C451  C452  A    
C130  O52   A    
C307  C312  A    
O36   Zn4   S    
C452  C453  A    
O43   Zn11  S    
C446  H339  S    
O17   Zn3   S    
C171  C185  A    
C30   C109  S    
C178  C179  A    
C385  C390  A    
C400  C401  A    
C41   C433  S    
C449  C450  A    
C241  H89   S    
C25   C41   A    
C256  H127  S    
C323  C324  A    
C253  H119  S    
C266  H151  S    
C109  O85   A    
C270  H161  S    
C28   C44   A    
O35   Zn3   S    
C29   C45   A    
C388  C389  A    
C16   C80   S    
C265  C266  S    
C106  O66   A    
O126  C283  S    
C240  H88   S    
C220  C355  S    
C296  H214  S    
C105  O81   A    
C326  C327  A    
C2    O2    A    
O74   Zn24  S    
C277  H180  S    
C301  C302  A    
C54   C70   A    
C118  O94   A    
C251  H114  S    
C275  H175  S    
C1    O17   A    
C14   O30   A    
C367  C368  A    
C153  C156  A    
C95   H47   S    
C86   C99   A    
C154  C155  A    
O92   Zn17  S    
C377  H282  S    
C380  H284  S    
C114  O74   A    
C165  O111  S    
C390  H293  S    
C141  C157  A    
C157  C160  A    
C279  H185  S    
C260  H137  S    
C35   C51   A    
C288  H206  S    
C282  H193  S    
C262  H141  S    
C295  C300  A    
C203  O123  S    
C57   H25   S    
C340  C341  A    
O62   Zn14  S    
C126  O42   A    
C221  C361  S    
C453  C454  A    
C277  C278  S    
C4    C68   S    
C449  H342  S    
C266  H153  S    
C45   C457  S    
C334  H246  S    
C345  C346  A    
C61   H29   S    
C138  C171  A    
C476  H364  S    
O106  C243  S    
O100  C231  S    
C359  H267  S    
C365  H272  S    
C398  C399  A    
C49   H17   S    
C291  C292  A    
C37   C409  S    
C11   O27   A    
C142  C175  A    
C248  H108  S    
C279  C280  S    
O125  C281  S    
C337  C342  A    
C288  H208  S    
C10   O10   A    
C226  H52   S    
C287  H204  S    
O115  C261  S    
C358  H266  S    
C264  H147  S    
C19   C35   A    
C477  H365  S    
C460  C461  A    
C47   C63   A    
O25   Zn11  S    
C353  H262  S    
C412  H311  S    
C166  C167  A    
C145  C161  A    
C27   C108  S    
C151  C167  A    
C310  C311  A    
C98   C129  S    
C405  C406  A    
C111  O71   A    
C20   C212  A    
C238  H81   S    
C88   C99   A    
C290  C291  A    
O41   Zn9   S    
C434  H329  S    
C92   H44   S    
C14   O14   A    
C93   H45   S    
C246  H102  S    
C275  H174  S    
C448  C449  A    
C34   C391  S    
C411  C412  A    
O79   Zn17  S    
C213  C313  S    
O10   Zn10  S    
O99   C229  S    
C282  H191  S    
C269  H160  S    
C86   H38   S    
C125  O41   A    
C55   C71   A    
C418  C419  A    
C217  C337  S    
C130  O50   A    
C343  C348  A    
C271  H165  S    
C289  C294  A    
C207  C223  A    
C278  H181  S    
C32   C111  S    
C82   H34   S    
C207  O127  S    
O24   Zn6   S    
C46   C463  S    
C305  C306  A    
C230  H61   S    
O98   C227  S    
O12   Zn12  S    
C235  H75   S    
O2    Zn2   S    
C417  C418  A    
C90   C91   A    
O26   Zn12  S    
C428  C429  A    
O39   Zn7   S    
C268  H156  S    
C115  O75   A    
C375  C376  A    
C273  H170  S    
O59   Zn11  S    
C475  C480  A    
C374  C375  A    
C44   C60   A    
C442  C443  A    
C472  H361  S    
C112  O72   A    
C133  O57   A    
C358  C359  A    
O37   Zn5   S    
C142  H6    S    
C239  C240  S    
C10   O26   A    
C470  H359  S    
O18   Zn4   S    
C400  H301  S    
C150  C166  A    
C123  C188  S    
C270  H162  S    
C384  H288  S    
C57   C73   A    
C375  H280  S    
O44   Zn12  S    
O51   Zn3   S    
C174  C175  A    
C194  O114  S    
O5    Zn5   S    
C159  O101  S    
C435  C436  A    
C404  H304  S    
C333  H245  S    
C4    O4    A    
C33   C385  S    
C328  H241  S    
C15   C79   S    
C469  C470  A    
C61   C77   A    
C463  C464  A    
C332  H244  S    
C273  C274  S    
C152  H16   S    
C149  C184  A    
C296  C297  A    
C124  O40   A    
C411  H310  S    
C15   O31   A    
O68   Zn20  S    
C248  H106  S    
C117  O77   A    
C451  C456  A    
C36   C52   A    
C43   C59   A    
C242  H91   S    
C37   C53   A    
C132  O54   A    
C339  H250  S    
C369  H275  S    
C70   C198  A    
C344  C345  A    
O93   Zn24  S    
C122  O36   A    
O94   Zn23  S    
C407  C408  A    
C121  O35   A    
C8    O24   A    
C244  H96   S    
C314  C315  A    
C18   C113  S    
C81   C98   A    
O108  C247  S    
C231  H65   S    
C267  H155  S    
C378  H283  S    
C127  O47   A    
C160  O102  S    
C140  H4    S    
C206  O126  S    
C419  H317  S    
C202  O122  S    
C148  C164  A    
C454  H346  S    
C105  O65   A    
C436  C437  A    
C225  H49   S    
C228  H58   S    
C445  C446  A    
O46   Zn14  S    
O11   Zn11  S    
C472  C473  A    
C391  C392  A    
C197  O117  S    
C433  C434  A    
C128  O48   A    
C368  C369  A    
C196  O116  S    
C372  H278  S    
C376  C377  A    
C416  H314  S    
C196  C212  A    
C363  C364  A    
C272  H168  S    
C129  O49   A    
C103  C136  S    
C239  H85   S    
O67   Zn19  S    
C429  H325  S    
C397  C398  A    
C194  C210  A    
C231  C232  S    
C18   C34   A    
C432  H328  S    
C461  C462  A    
O65   Zn17  S    
C179  C189  A    
C276  H176  S    
O3    Zn3   S    
C135  O61   A    
C387  H290  S    
C205  O125  S    
O114  C259  S    
C340  H251  S    
O119  C269  S    
C410  H309  S    
O118  C267  S    
C51   C67   A    
C460  H351  S    
C83   H35   S    
C229  H59   S    
C125  C190  S    
C257  H130  S    
C458  H349  S    
C441  H335  S    
C135  O63   A    
C446  C447  A    
C80   C208  A    
C439  C444  A    
C320  C321  A    
C232  H68   S    
C128  O46   A    
C333  C334  A    
C59   H27   S    
C21   C213  A    
C96   C103  A    
O66   Zn18  S    
C285  H200  S    
C87   H39   S    
C309  C310  A    
C88   H40   S    
C286  H202  S    
C322  H236  S    
C276  H178  S    
C386  H289  S    
O6    Zn6   S    
O105  C241  S    
O63   Zn15  S    
C173  C187  A    
C176  C188  A    
C473  H362  S    
C442  H336  S    
O49   Zn1   S    
C362  H269  S    
C62   C78   A    
C109  O69   A    
C51   H19   S    
C433  C438  A    
C275  C276  S    
C2    C66   S    
C83   C98   A    
C133  O59   A    
C20   C115  S    
C131  O55   A    
C471  H360  S    
C3    O3    A    
C445  C450  A    
C278  H183  S    
C111  O87   A    
C325  C330  A    
C308  C309  A    
O57   Zn9   S    
O55   Zn7   S    
C297  H215  S    
C146  H10   S    
C202  C218  A    
C285  C286  S    
C258  H132  S    
C255  H124  S    
O123  C277  S    
C102  C133  S    
C218  C343  S    
C264  H146  S    
C11   C75   S    
C284  H196  S    
C24   C216  A    
C138  C154  A    
C335  C336  A    
C272  H166  S    
C40   C427  S    
C19   C116  S    
O29   Zn15  S    
O95   Zn22  S    
O53   Zn5   S    
C200  C216  A    
O83   Zn24  S    
C469  C474  A    
C89   H41   S    
C455  H347  S    
C410  C411  A    
O47   Zn15  S    
C158  O104  S    
C58   H26   S    
C257  H129  S    
C175  C187  A    
C349  C354  A    
O77   Zn19  S    
C351  H260  S    
C33   C49   A    
C280  H187  S    
C338  C339  A    
C252  H118  S    
O69   Zn21  S    
C393  H295  S    
C122  O34   A    
C283  H194  S    
C316  H231  S    
C123  O39   A    
C143  H7    S    
C237  H79   S    
C250  H111  S    
C222  C367  S    
C311  H227  S    
C236  H76   S    
C327  H240  S    
C281  C282  S    
C309  H225  S    
C231  H64   S    
C466  C467  A    
C27   C219  A    
C424  C425  A    
C145  H9    S    
C246  H101  S    
C259  C260  S    
C64   C80   A    
C464  C465  A    
C214  C319  S    
C476  C477  A    
C112  O88   A    
O96   Zn21  S    
O15   Zn15  S    
C413  H312  S    
C477  C478  A    
C242  H93   S    
C235  H74   S    
C353  C354  A    
C120  O80   A    
C454  C455  A    
C29   C221  A    
O90   Zn19  S    
C146  C162  A    
C26   C42   A    
C261  H139  S    
C458  C459  A    
O42   Zn10  S    
C182  C192  A    
C99   C132  S    
C204  C220  A    
C19   C211  A    
C84   C97   A    
C367  C372  A    
O23   Zn5   S    
C93   C96   A    
C129  O51   A    
C97   C130  S    
C416  C417  A    
C262  H143  S    
C17   C209  A    
C290  H209  S    
C149  C165  A    
O7    Zn7   S    
C256  H126  S    
C178  C190  A    
C91   H43   S    
C48   C64   A    
C116  O76   A    
C233  H69   S    
C141  H5    S    
C479  H367  S    
C94   H46   S    
C409  C414  A    
C162  O108  S    
C201  C217  A    
C139  H3    S    
C263  H144  S    
C87   C100  A    
C36   C403  S    
C341  H252  S    
C240  H87   S    
C401  C402  A    
C455  C456  A    
C163  O105  S    
C137  C172  A    
C5    C69   S    
C108  O84   A    
C32   C224  A    
C121  C186  S    
C421  C426  A    
C457  C462  A    
O70   Zn22  S    
C39   C55   A    
C355  C360  A    
C364  C365  A    
C40   C56   A    
O88   Zn19  S    
C354  H263  S    
C141  C176  A    
C251  H115  S    
C298  C299  A    
C184  C192  A    
C58   C74   A    
C124  O38   A    
C393  C394  A    
C6    O6    A    
C302  C303  A    
C43   C445  S    
C352  C353  A    
O87   Zn20  S    
C9    O25   A    
C417  H315  S    
O84   Zn23  S    
C414  H313  S    
O85   Zn18  S    
C253  C254  S    
C266  H152  S    
C321  C322  A    
C227  H54   S    
O101  C233  S    
C31   C47   A    
C260  H136  S    
C209  C289  S    
C32   C48   A    
C229  H60   S    
C415  C420  A    
C374  H279  S    
C360  H268  S    
C17   C33   A    
C261  H140  S    
C279  H184  S    
C294  H213  S    
C131  O53   A    
C30   C46   A    
C25   C106  S    
O124  C279  S    
C65   C193  A    
C78   C206  A    
C236  H77   S    
C140  C156  A    
O107  C245  S    
C381  H285  S    
C3    C67   S    
C8    C72   S    
C251  C252  S    
O8    Zn8   S    
C348  H258  S    
C267  C268  S    
C29   C110  S    
C403  C408  A    
C292  C293  A    
C235  C236  S    
C356  H264  S    
C284  H198  S    
C377  C378  A    
C48   C475  S    
C139  C155  A    
C408  H308  S    
C357  C358  A    
C110  O86   A    
O48   Zn16  S    
O33   Zn1   S    
C234  H71   S    
C201  O121  S    
C379  C384  A    
C82   C83   A    
O78   Zn20  S    
C459  C460  A    
C183  C191  A    
O34   Zn2   S    
C249  C250  S    
C441  C442  A    
C287  H205  S    
C332  C333  A    
C106  O82   A    
C447  C448  A    
C21   C118  S    
C161  O107  S    
C124  C187  S    
C154  O100  S    
C283  H195  S    
C380  C381  A    
C38   C54   A    
C349  C350  A    
C69   C197  A    
C170  C186  A    
C6    O22   A    
C383  C384  A    
C351  C352  A    
C117  O93   A    
C342  H253  S    
C123  O37   A    
C406  C407  A    
C399  C400  A    
C298  H216  S    
C119  O95   A    
C150  C183  A    
C224  C379  S    
C92   C101  A    
O52   Zn4   S    
C409  C410  A    
C313  C318  A    
C113  O73   A    
C465  C466  A    
C157  O103  S    
C94   C103  A    
C134  O58   A    
C280  H188  S    
C243  H95   S    
C438  H333  S    
C12   C76   S    
C140  C169  A    
C347  H257  S    
C82   C97   A    
C199  C215  A    
C226  H53   S    
C287  C288  S    
C208  C224  A    
C265  H149  S    
C152  C168  A    
C425  C426  A    
C337  C338  A    
C427  C432  A    
C161  C164  A    
O61   Zn13  S    
C350  C351  A    
C234  H73   S    
C245  C246  S    
O4    Zn4   S    
C304  C305  A    
C308  H224  S    
C181  C184  A    
C368  H274  S    
C6    C70   S    
C299  H217  S    
C24   C119  S    
C452  H344  S    
C254  H123  S    
C108  O68   A    
C370  H276  S    
C86   C87   A    
C81   H33   S    
C144  H8    S    
C127  C192  S    
C429  C430  A    
C225  C226  S    
C292  H211  S    
C256  H128  S    
C364  H271  S    
C71   C199  A    
C427  C428  A    
C269  H159  S    
C404  C405  A    
C243  C244  S    
O64   Zn16  S    
C430  C431  A    
C242  H92   S    
C478  H366  S    
C355  C356  A    
C443  C444  A    
O16   Zn16  S    
C52   H20   S    
C373  C378  A    
C386  C387  A    
C41   C57   A    
C394  C395  A    
C180  C190  A    
C315  H230  S    
C319  C320  A    
C181  C191  A    
C2    O18   A    
C277  H179  S    
C127  O45   A    
C73   C201  A    
C199  O119  S    
C145  C180  A    
C45   C61   A    
C60   C76   A    
C146  C179  A    
C305  H222  S    
C271  C272  S    
C457  C458  A    
C54   H22   S    
C232  H66   S    
C94   C95   A    
C443  H337  S    
C431  C432  A    
O32   Zn14  S    
C322  C323  A    
C20   C36   A    
C27   C43   A    
O104  C239  S    
C21   C37   A    
C467  C468  A    
C258  H131  S    
C248  H107  S    
C418  H316  S    
C170  C171  A    
C250  H113  S    
C288  H207  S    
C362  C363  A    
C147  C163  A    
C151  H15   S    
C143  C174  A    
C260  H138  S    
C226  H51   S    
C466  H356  S    
O9    Zn9   S    
C440  H334  S    
O21   Zn7   S    
C182  C183  A    
C426  H323  S    
C407  H307  S    
C422  C423  A    
C107  O83   A    
O128  C287  S    
C22   C117  S    
C210  C295  S    
C325  C326  A    
C330  H243  S    
O73   Zn23  S    
C89   C102  A    
C270  H163  S    
C338  H249  S    
C278  H182  S    
C286  H203  S    
C3    O19   A    
C473  C474  A    
C238  H83   S    
O20   Zn2   S    
C263  H145  S    
C4    O20   A    
O122  C275  S    
C156  O98   S    
C100  C131  S    
O1    Zn1   S    
C335  H247  S    
C249  H110  S    
C250  H112  S    
C63   C79   A    
C327  C328  A    
C316  C317  A    
O86   Zn17  S    
O82   Zn21  S    
O111  C253  S    
C341  C342  A    
C350  H259  S    
C49   C65   A    
C361  C366  A    
C357  H265  S    
C247  C248  S    
C137  H1    S    
C424  H321  S    
C439  C440  A    
C90   H42   S    
C206  C222  A    
O112  C255  S    
C264  H148  S    
C77   C205  A    
C331  C336  A    
C228  H57   S    
C7    C71   S    
C394  H296  S    
C271  H164  S    
C79   C207  A    
C307  C308  A    
C28   C107  S    
C461  H352  S    
C310  H226  S    
C300  H218  S    
C211  C301  S    
C343  C344  A    
C317  C318  A    
C139  C170  A    
C238  H82   S    
O110  C251  S    
C478  C479  A    
C205  C221  A    
C115  O91   A    
C167  O109  S    
C311  C312  A    
O28   Zn10  S    
C13   O13   A    
C174  C188  A    
C204  O124  S    
C425  H322  S    
C245  H100  S    
C389  H292  S    
C63   H31   S    
C462  H353  S    
C237  H80   S    
C172  C186  A    
C150  H14   S    
C241  C242  S    
O116  C263  S    
C144  C173  A    
C422  H319  S    
C456  H348  S    
C464  H354  S    
C346  H256  S    
C118  O78   A    
O113  C257  S    
C38   C415  S    
C259  H135  S    
C399  H300  S    
C382  C383  A    
C314  H229  S    
O22   Zn8   S    
C391  C396  A    
C395  H297  S    
C421  C422  A    
C401  H302  S    
C336  H248  S    
C413  C414  A    
C392  C393  A    
C114  O90   A    
C437  H332  S    
C55   H23   S    
C13   O29   A    
C16   O32   A    
C306  H223  S    
C389  C390  A    
C216  C331  S    
C241  H90   S    
O91   Zn18  S    
C313  C314  A    
C423  H320  S    
C93   C104  A    
C412  C413  A    
C8    O8    A    
C121  O33   A    
C405  H305  S    
C267  H154  S    
O89   Zn20  S    
C227  H55   S    
C448  H341  S    
C268  H157  S    
C339  C340  A    
C363  H270  S    
C245  H99   S    
C13   C77   S    
C34   C50   A    
C282  H192  S    
C177  C189  A    
C273  H169  S    
C12   O28   A    
C234  H72   S    
C137  C153  A    
C366  H273  S    
O60   Zn12  S    
C440  C441  A    
O71   Zn23  S    
C392  H294  S    
C5    O5    A    
C295  C296  A    
O72   Zn24  S    
C229  C230  S    
C68   C196  A    
C453  H345  S    
C253  H120  S    
C254  H122  S    
C23   C120  S    
C403  C404  A    
C7    O23   A    
C331  C332  A    
C406  H306  S    
C122  C185  S    
C75   C203  A    
C334  C335  A    
C319  C324  A    
C359  C360  A    
C74   C202  A    
C345  H255  S    
C247  H104  S    
O75   Zn21  S    
C148  H12   S    
C158  C159  A    
C467  H357  S    
C126  C189  S    
C255  H125  S    
C420  H318  S    
C90   C101  A    
C195  C211  A    
C398  H299  S    
C72   C200  A    
C227  C228  S    
C291  H210  S    
C193  C209  A    
C151  C182  A    
C302  H219  S    
C132  O56   A    
C47   C469  S    
C447  H340  S    
C177  C180  A    
C365  C366  A    
O127  C285  S    
C9    O9    A    
C324  H238  S    
C470  C471  A    
C89   C92   A    
C136  O62   A    
C50   C66   A    
C328  C329  A    
C225  H50   S    
C31   C223  A    
C5    O21   A    
C293  H212  S    
C381  C382  A    
O58   Zn10  S    
C12   O12   A    
O120  C271  S    
C165  C168  A    
C281  H190  S    
C252  H117  S    
C329  H242  S    
C169  C172  A    
C219  C349  S    
C258  H133  S    
C255  C256  S    
C16   O16   A    
C402  H303  S    
C91   C102  A    
C385  C386  A    
C356  C357  A    
C479  C480  A    
C59   C75   A    
C200  O120  S    
C81   C84   A    
C39   C421  S    
C95   C104  A    
C85   C88   A    
O80   Zn18  S    
C434  C435  A    
O109  C249  S    
C173  C176  A    
C215  C325  S    
C352  H261  S    
C62   H30   S    
C315  C316  A    
C471  C472  A    
C379  C380  A    
C1    C65   S    
O50   Zn2   S    
C321  H235  S    
C301  C306  A    
C1    O1    A    
C152  C181  A    
O76   Zn22  S    
C303  H220  S    
C85   H37   S    
C395  C396  A    
C50   H18   S    
C257  C258  S    
C52   C68   A    
C371  H277  S    
C396  H298  S    
O45   Zn13  S    
C329  C330  A    
C76   C204  A    
C198  O118  S    
C312  H228  S    
C208  O128  S    
C101  C134  S    
C230  H63   S    
C272  H167  S    
C289  C290  A    
C247  H105  S    
C383  H287  S    
C243  H94   S    
C280  H186  S    
C203  C219  A    
C465  H355  S    
C128  C191  S    
C244  H97   S    
C237  C238  S    
O38   Zn6   S    
C435  H330  S    
C323  H237  S    
C169  C185  A    
C376  H281  S    
C262  H142  S    
C85   C100  A    
C293  C294  A    
C10   C74   S    
C147  C178  A    
O103  C237  S    
C286  H201  S    
C233  H70   S    
C468  H358  S    
O54   Zn6   S    
C96   H48   S    
C23   C39   A    
C274  H172  S    
C119  O79   A    
C347  C348  A    
C24   C40   A    
C236  H78   S    
C239  H84   S    
C228  H56   S    
C143  C159  A    
C14   C78   S    
C246  H103  S    
C240  H86   S    
C53   H21   S    
C244  H98   S    
C283  C284  S    
C107  O67   A    
C304  H221  S    
C166  O112  S    
C197  C213  A    
C299  C300  A    
C261  C262  S    
C232  H67   S    
O102  C235  S    
C249  H109  S    
C423  C424  A    
C44   C451  S    
C370  C371  A    
C60   H28   S    
C297  C298  A    
C136  O64   A    
C285  H199  S    
C252  H116  S    
C475  C476  A    
C84   H36   S    
C64   H32   S    
C233  C234  S    
C198  C214  A    
