data_mof_unit_20153.cif
_audit_creation_date              2013-03-05T16:49:18-0500
_audit_creation_method            fapswitch 2.2
_symmetry_space_group_name_H-M    P1
_symmetry_Int_Tables_number       1
_space_group_crystal_system       triclinic
_cell_length_a                    8.118088
_cell_length_b                    8.924661
_cell_length_c                    16.807086
_cell_angle_alpha                 89.538094
_cell_angle_beta                  91.877459
_cell_angle_gamma                 90.00842
_cell_volume                      1217.00003315

loop_
_atom_site_label
_atom_site_type_symbol
_atom_site_description
_atom_site_fract_x
_atom_site_fract_y
_atom_site_fract_z
_atom_type_partial_charge
O1    O     O_R   0.636850 0.285340 0.500000 -0.612687
O2    O     O_R   0.363150 0.714660 0.500000 -0.622206
O3    O     O_R   0.363100 0.285350 0.500000 -0.612948
O4    O     O_R   0.636900 0.714650 0.500000 -0.614656
C1    C     C_R   0.499967 0.218057 0.499999 0.937853
C2    C     C_R   0.500030 0.781939 0.500031 0.938274
O5    O     O_R   0.652140 0.498630 0.616140 -0.622030
O6    O     O_R   0.347860 0.501370 0.383860 -0.622554
O7    O     O_R   0.378390 0.498650 0.616130 -0.620023
O8    O     O_R   0.621610 0.501350 0.383870 -0.617367
C3    C     C_R   0.515626 0.504399 0.654300 0.899904
C4    C     C_R   0.482716 0.501008 0.346143 0.895860
Zn1   Zn    Zn3+2 0.682780 0.499990 0.500010 0.971003
Zn2   Zn    Zn3+2 0.317220 0.500010 0.499990 0.966032
N1    N     N_1   0.073640 0.500030 0.499990 -0.041175
N2    N     N_1   0.926360 0.499970 0.500010 -0.044666
C5    C     C_R   0.510725 0.545416 0.739140 -0.139015
C6    C     C_R   0.477535 0.521273 0.260119 -0.135480
C7    C     C_R   0.359197 0.555183 0.780437 0.011863
C8    C     C_R   0.600509 0.463818 0.210468 0.002075
C9    C     C_R   0.363496 0.611734 0.858229 0.309083
C10   C     C_R   0.584505 0.492000 0.128034 0.255070
C11   C     C_R   0.515045 0.649591 0.896441 0.202290
C12   C     C_R   0.451783 0.578964 0.097399 0.176698
C13   C     C_R   0.657472 0.658147 0.852353 0.089118
C14   C     C_R   0.332863 0.637123 0.147297 0.106395
C15   C     C_R   0.655920 0.601173 0.775291 -0.281436
C16   C     C_R   0.347028 0.607287 0.228152 -0.296314
N3    N     N_2   0.532033 0.660687 0.980525 -0.151138
N4    N     N_2   0.424496 0.587837 0.014980 -0.074663
C17   C     C_1   0.499970 0.065213 0.500017 -0.197614
C18   C     C_1   0.500014 0.934769 0.500034 -0.195865
H1    H     H_    0.768041 0.604755 0.742399 0.177513
H2    H     H_    0.256083 0.653752 0.266882 0.178525
C19   C     C_3   0.737721 0.361421 0.242655 -0.337195
C20   C     C_3   0.895341 0.448669 0.263929 -0.748657
H3    H     H_    0.949515 0.497670 0.209990 0.273678
H4    H     H_    0.871189 0.541118 0.305646 0.260257
H5    H     H_    0.987624 0.371799 0.292486 0.238005
H6    H     H_    0.697693 0.297130 0.295411 0.194237
H7    H     H_    0.766738 0.274189 0.198477 0.226803
C21   C     C_3   0.190693 0.515529 0.743028 -0.326145
C22   C     C_3   0.115036 0.649844 0.697645 -0.797813
H8    H     H_    0.080967 0.738586 0.739825 0.247286
H9    H     H_    0.201940 0.700498 0.655633 0.278787
H10   H     H_    0.003061 0.613777 0.663402 0.239670
H11   H     H_    0.195929 0.414091 0.705637 0.217625
H12   H     H_    0.102415 0.479813 0.788179 0.232960
N5    N     N_R   0.694422 0.422958 0.074016 0.204878
O9    O     O_R   0.638088 0.326197 0.022412 -0.379010
O10   O     O_R   0.846067 0.468696 0.070281 -0.405558
N6    N     N_R   0.213324 0.642452 0.897261 0.169872
O11   O     O_R   0.129283 0.532638 0.927314 -0.411151
O12   O     O_R   0.183168 0.779236 0.918562 -0.457004
C23   C     C_3   0.811491 0.728987 0.887264 -0.296055
C24   C     C_3   0.788494 0.897338 0.898639 -0.776679
H13   H     H_    0.755885 0.952337 0.840706 0.252573
H14   H     H_    0.689913 0.919682 0.941241 0.267461
H15   H     H_    0.904808 0.947285 0.922727 0.289545
H16   H     H_    0.846071 0.675092 0.945184 0.284901
H17   H     H_    0.914095 0.712857 0.846656 0.241556
C25   C     C_3   0.190146 0.731475 0.115641 -0.342235
C26   C     C_3   0.246415 0.890270 0.095796 -0.731343
H18   H     H_    0.295753 0.946057 0.150419 0.235672
H19   H     H_    0.343607 0.888852 0.050882 0.287027
H20   H     H_    0.140037 0.956211 0.071402 0.265780
H21   H     H_    0.131703 0.678259 0.062534 0.295623
H22   H     H_    0.092459 0.739267 0.160288 0.188931

loop_
_geom_bond_atom_site_label_1
_geom_bond_atom_site_label_2
_geom_bond_distance
_ccdc_geom_bond_type
C2    C18   1.363961 S    
O7    Zn2   1.998261 S    
C26   H19   1.109830 S    
N5    O10   1.300235 A    
N3    N4    1.243801 D    
C24   H14   1.110311 S    
C13   C15   1.394908 A    
O7    C3    1.268500 A    
C14   C16   1.383753 A    
C19   C20   1.531560 S    
C7    C21   1.529340 S    
C25   H22   1.112052 S    
O6    C4    1.282920 A    
C17   C18   1.164162 T    
N6    O12   1.300468 A    
C23   C24   1.528363 S    
C20   H4    1.108680 S    
C19   H6    1.109778 S    
C14   C25   1.512329 S    
C26   H20   1.110527 S    
C16   H2    1.084750 S    
C21   H12   1.105765 S    
C23   H16   1.110127 S    
C15   H1    1.080643 S    
O5    C3    1.299728 A    
C22   H9    1.108186 S    
C25   C26   1.526602 S    
O3    Zn2   1.951690 S    
O8    C4    1.275388 A    
C25   H21   1.107419 S    
C10   N5    1.436117 S    
O1    C1    1.263016 A    
C23   H17   1.104187 S    
C20   H3    1.107330 S    
C7    C9    1.404642 A    
C12   C14   1.401763 A    
C6    C8    1.420404 A    
C21   H11   1.107805 S    
C11   C13   1.395339 A    
C22   H8    1.108277 S    
C19   H7    1.110738 S    
C22   H10   1.108960 S    
C10   C12   1.409197 A    
C1    C17   1.364078 S    
C12   N4    1.397261 S    
O1    Zn1   1.951573 S    
C21   C22   1.533198 S    
C4    C6    1.454883 S    
N1    N2    1.195643 T    
C5    C15   1.401384 A    
C11   N3    1.419681 S    
O5    Zn1   1.975602 S    
C6    C16   1.398820 A    
N6    O11   1.302108 A    
O4    C2    1.263120 A    
N5    O9    1.301186 A    
Zn1   N2    1.977404 S    
O2    Zn2   1.951575 S    
O4    Zn1   1.951689 S    
C24   H13   1.111084 S    
C24   H15   1.109933 S    
Zn2   N1    1.977404 S    
C3    C5    1.476806 S    
O2    C2    1.262959 A    
O6    Zn2   1.975602 S    
C5    C7    1.435092 A    
C8    C19   1.523617 S    
C9    C11   1.411327 A    
C20   H5    1.110643 S    
C9    N6    1.430785 S    
C13   C23   1.504993 S    
C8    C10   1.407928 A    
C26   H18   1.111011 S    
O3    C1    1.263100 A    
O8    Zn1   1.998261 S    
