data_mof_unit_44518.cif
_audit_creation_date              2012-10-26T18:28:58-0400
_audit_creation_method            fapswitch 2.2
_symmetry_space_group_name_H-M    P1
_symmetry_Int_Tables_number       1
_space_group_crystal_system       triclinic
_cell_length_a                    11.659712
_cell_length_b                    13.004646
_cell_length_c                    15.709166
_cell_angle_alpha                 92.192146
_cell_angle_beta                  74.213287
_cell_angle_gamma                 99.834065
_cell_volume                      2258.3773224

loop_
_atom_site_label
_atom_site_type_symbol
_atom_type_description
_atom_site_fract_x
_atom_site_fract_y
_atom_site_fract_z
_atom_type_partial_charge
C1    C     C_R   0.520792 0.700889 0.501288 0.549768
C2    C     C_R   0.348320 0.015384 0.490726 -0.137344
C3    C     C_R   0.640852 0.876561 0.508741 -0.135667
C4    C     C_R   0.359130 0.123464 0.491310 -0.133437
C5    C     C_R   0.435371 0.860809 0.496185 -0.130583
C6    C     C_R   0.564590 0.139214 0.503916 -0.130223
C7    C     C_R   0.445483 0.968819 0.496737 0.048233
C8    C     C_R   0.554476 0.031207 0.503370 0.048040
C9    C     C_R   0.940166 0.595248 0.583558 -0.175544
C10   C     C_R   0.059822 0.404618 0.416477 -0.182195
C11   C     C_R   0.821843 0.586233 0.575361 0.052190
C12   C     C_R   0.479202 0.299115 0.498727 0.552467
C13   C     C_R   0.178135 0.413643 0.424716 0.041583
C14   C     C_R   0.859755 0.458878 0.463731 0.043799
C15   C     C_R   0.140226 0.541092 0.536256 0.042483
C16   C     C_R   0.426827 0.493586 0.668632 0.545413
C17   C     C_R   0.572782 0.502933 0.331350 0.547531
C18   C     C_R   0.979706 0.465353 0.469605 0.008131
C19   C     C_R   0.020269 0.534543 0.530403 0.006613
C20   C     C_R   0.382202 0.477149 0.765031 -0.013982
C21   C     C_R   0.614202 0.491242 0.234756 -0.012792
C22   C     C_R   0.219098 0.430091 0.897295 -0.132797
C23   C     C_R   0.344792 0.407949 0.087030 0.085915
C24   C     C_R   0.767945 0.461111 0.102077 -0.133743
C25   C     C_R   0.258335 0.453180 0.807028 -0.134737
C26   C     C_R   0.733858 0.480537 0.192596 -0.135827
C27   C     C_R   0.465746 0.477493 0.814469 -0.110802
C28   C     C_R   0.529615 0.482003 0.185255 -0.099799
C29   C     C_R   0.428689 0.444790 0.903460 0.030101
C30   C     C_R   0.559137 0.452636 0.095907 0.039994
C31   C     C_R   0.303262 0.426729 0.945870 0.023277
C32   C     C_R   0.681810 0.448117 0.053357 0.019169
C33   C     C_R   0.512866 0.435296 0.952550 0.026503
C34   C     C_R   0.635022 0.422855 0.911733 0.085145
C35   C     C_R   0.471557 0.433489 0.046663 0.042709
C36   C     C_R   0.262960 0.404542 0.036078 -0.124694
C37   C     C_R   0.717288 0.429494 0.962915 -0.113313
C38   C     C_R   0.467220 0.185730 0.497951 0.001546
C39   C     C_R   0.532760 0.814288 0.502105 0.000025
C40   C     C_R   0.651646 0.984642 0.509364 -0.138112
Cu1   Cu    Cu3+1 0.386820 0.492450 0.493500 0.934001
Cu2   Cu    Cu3+1 0.613180 0.507550 0.506500 0.937136
H1    H     H_    0.166866 0.385345 0.067885 0.102166
H2    H     H_    0.191911 0.452331 0.770284 0.127269
H3    H     H_    0.122853 0.414026 0.929046 0.099556
H4    H     H_    0.861535 0.455269 0.070252 0.100581
H5    H     H_    0.648386 0.186810 0.509015 0.121228
H6    H     H_    0.351568 0.813215 0.491099 0.120752
H7    H     H_    0.282964 0.158154 0.486569 0.129973
H8    H     H_    0.717035 0.841873 0.513446 0.129118
H9    H     H_    0.735666 0.031665 0.514499 0.103191
H10   H     H_    0.264301 0.968363 0.485587 0.103484
H11   H     H_    0.172634 0.594017 0.582724 0.112719
H12   H     H_    0.810173 0.420635 0.931672 0.099609
H13   H     H_    0.827344 0.405994 0.417235 0.110593
H14   H     H_    0.252519 0.296740 0.178378 0.232070
H15   H     H_    0.235074 0.420095 0.209900 0.218447
H16   H     H_    0.628203 0.315252 0.816547 0.238837
H17   H     H_    0.765197 0.389631 0.800715 0.226922
H18   H     H_    0.239352 0.366512 0.383634 0.139677
H19   H     H_    0.760618 0.633303 0.616511 0.124001
H20   H     H_    0.968654 0.649222 0.630998 0.085760
H21   H     H_    0.031389 0.350644 0.369010 0.082053
H22   H     H_    0.441708 0.501243 0.216959 0.166120
H23   H     H_    0.559625 0.506493 0.783066 0.176033
H24   H     H_    0.800912 0.487032 0.229429 0.124880
N1    N     N_R   0.216750 0.481110 0.483710 -0.229756
N2    N     N_R   0.783250 0.518890 0.516290 -0.227490
N3    N     N_3   0.298138 0.373445 0.177356 -0.661518
N4    N     N_3   0.672395 0.391510 0.820889 -0.652476
O1    O     O_R   0.419950 0.645670 0.495380 -0.508461
O2    O     O_R   0.580050 0.354330 0.504620 -0.506982
O3    O     O_R   0.611110 0.658410 0.506370 -0.507812
O4    O     O_R   0.388890 0.341590 0.493630 -0.506386
O5    O     O_R   0.350820 0.490050 0.621260 -0.503261
O6    O     O_R   0.649180 0.509950 0.378740 -0.502719
O7    O     O_R   0.541970 0.502800 0.632250 -0.501612
O8    O     O_R   0.458030 0.497200 0.367750 -0.502746

loop_
_geom_bond_atom_site_label_1
_geom_bond_atom_site_label_2
_ccdc_geom_bond_type
C21   C26   A    
C12   O4    A    
C27   C29   A    
C34   C37   A    
Cu1   Cu2   S    
C14   C18   A    
C2    C7    A    
C7    C8    A    
Cu1   N1    S    
C13   H18   S    
C15   C19   A    
C1    O1    A    
C30   C35   A    
C15   H11   S    
C24   C26   A    
C18   C19   A    
C20   C25   A    
C16   O5    A    
C29   C33   A    
C16   O7    A    
C23   N3    S    
Cu1   O4    S    
C9    C19   A    
C10   H21   S    
C22   C25   A    
C17   O6    A    
C6    C38   A    
C34   N4    S    
Cu1   O1    S    
C14   H13   S    
C12   O2    A    
C3    C39   A    
Cu2   N2    S    
C25   H2    S    
C3    H8    S    
C5    H6    S    
C6    H5    S    
C9    H20   S    
C26   H24   S    
C22   C31   A    
Cu1   O8    S    
C5    C7    A    
H16   N4    S    
C6    C8    A    
C17   C21   S    
C2    C4    A    
C24   C32   A    
C27   H23   S    
Cu1   O5    S    
C16   C20   S    
C15   N1    A    
Cu2   O2    S    
C33   C34   A    
C32   C37   A    
C9    C11   A    
C2    H10   S    
C37   H12   S    
C28   H22   S    
C21   C28   A    
C4    C38   A    
C3    C40   A    
H14   N3    S    
C23   C35   A    
C5    C39   A    
C11   N2    A    
C13   N1    A    
Cu2   O3    S    
C11   H19   S    
C10   C13   A    
C20   C27   A    
C40   H9    S    
Cu2   O6    S    
C4    H7    S    
C1    O3    A    
C28   C30   A    
C24   H4    S    
C29   C31   A    
C30   C32   A    
C10   C18   A    
C17   O8    A    
C33   C35   A    
C12   C38   S    
C1    C39   S    
H17   N4    S    
C22   H3    S    
Cu2   O7    S    
C23   C36   A    
C14   N2    A    
C31   C36   A    
C36   H1    S    
C8    C40   A    
H15   N3    S    
