data_mof_unit_53915.cif
_audit_creation_date              2012-12-11T16:08:34-0500
_audit_creation_method            fapswitch 2.2
_symmetry_space_group_name_H-M    P1
_symmetry_Int_Tables_number       1
_space_group_crystal_system       triclinic
_cell_length_a                    12.947378
_cell_length_b                    13.248403
_cell_length_c                    27.728826
_cell_angle_alpha                 94.562353
_cell_angle_beta                  90.080624
_cell_angle_gamma                 119.196809
_cell_volume                      4134.50364586

loop_
_atom_site_label
_atom_site_type_symbol
_atom_type_description
_atom_site_fract_x
_atom_site_fract_y
_atom_site_fract_z
_atom_type_partial_charge
Br1   Br    Br    0.201264 0.075440 0.396740 -0.524059
Br2   Br    Br    0.106151 0.603567 0.384947 -0.496248
Br3   Br    Br    0.167601 0.044371 0.120743 -0.514880
C1    C     C_R   0.627123 0.897364 0.426646 0.545780
C2    C     C_R   0.154248 0.739281 0.302171 -0.027667
C3    C     C_R   0.148360 0.730734 0.200715 0.008465
C4    C     C_R   0.601248 0.222254 0.440553 0.551961
C5    C     C_R   0.137342 0.635230 0.223690 0.259539
C6    C     C_R   0.140520 0.640346 0.274036 -0.077581
C7    C     C_R   0.136567 0.723559 0.150659 -0.155381
C8    C     C_R   0.127125 0.809230 0.127448 -0.006788
C9    C     C_R   0.196416 0.944482 0.357938 0.113384
C10   C     C_R   0.185810 0.938045 0.307113 0.027920
C11   C     C_R   0.168704 0.836644 0.279215 -0.008006
C12   C     C_R   0.688991 0.436658 0.238789 -0.102524
C13   C     C_R   0.197430 0.032626 0.283325 -0.125579
C14   C     C_R   0.189340 0.026493 0.233104 -0.116525
C15   C     C_R   0.170536 0.925906 0.204769 0.038244
C16   C     C_R   0.265840 0.875398 0.426329 0.588237
C17   C     C_R   0.162986 0.831341 0.228217 -0.004347
C18   C     C_R   0.153749 0.915320 0.153877 0.141678
C19   C     C_R   0.197931 0.852322 0.380032 0.029443
C20   C     C_R   0.736252 0.957534 0.352670 -0.108971
C21   C     C_R   0.736996 0.948835 0.302455 0.014160
C22   C     C_R   0.735375 0.929066 0.201462 -0.049205
C23   C     C_R   0.680814 0.420458 0.288119 -0.096790
C24   C     C_R   0.815788 0.033297 0.227637 -0.106958
C25   C     C_R   0.819108 0.043111 0.278126 0.255148
C26   C     C_R   0.743511 0.915117 0.151869 -0.170691
C27   C     C_R   0.674437 0.806412 0.126194 -0.002099
C28   C     C_R   0.627325 0.898114 0.564767 0.539071
C29   C     C_R   0.564297 0.764949 0.350805 -0.126910
C30   C     C_R   0.566583 0.752390 0.300411 0.012385
C31   C     C_R   0.651741 0.845391 0.276109 0.020212
C32   C     C_R   0.482681 0.650195 0.273813 -0.138024
C33   C     C_R   0.484696 0.638771 0.223450 -0.102633
C34   C     C_R   0.673393 0.319611 0.304033 0.046286
C35   C     C_R   0.569868 0.730148 0.198842 0.028704
C36   C     C_R   0.651715 0.835071 0.225442 0.003471
C37   C     C_R   0.579025 0.716954 0.148489 0.251105
C38   C     C_R   0.647142 0.868685 0.376856 -0.017596
C39   C     C_R   0.745163 0.311248 0.651945 0.255821
C40   C     C_R   0.602500 0.226349 0.578783 0.561858
C41   C     C_R   0.760212 0.340238 0.702485 0.024685
C42   C     C_R   0.779418 0.371003 0.804118 0.024040
C43   C     C_R   0.878660 0.391606 0.777628 -0.153800
C44   C     C_R   0.869485 0.377372 0.727218 -0.125830
C45   C     C_R   0.689443 0.352027 0.205128 0.024198
C46   C     C_R   0.788742 0.388508 0.854470 -0.130369
C47   C     C_R   0.691174 0.376958 0.880451 0.002043
C48   C     C_R   0.545803 0.286491 0.655192 -0.159642
C49   C     C_R   0.554724 0.301911 0.705298 0.002114
C50   C     C_R   0.661992 0.327413 0.729155 -0.024502
C51   C     C_R   0.456733 0.288792 0.731860 0.276067
C52   C     C_R   0.271389 0.879097 0.563364 0.550154
C53   C     C_R   0.464740 0.294772 0.782351 -0.092604
C54   C     C_R   0.571098 0.321255 0.806289 -0.026230
C55   C     C_R   0.670772 0.339538 0.779833 0.050331
C56   C     C_1   0.696104 0.370132 0.154504 -0.054768
C57   C     C_R   0.581009 0.336344 0.856479 -0.114183
C58   C     C_R   0.635959 0.282349 0.628486 -0.006955
C59   C     C_1   0.219916 0.861048 0.609773 0.004296
C60   C     C_R   0.117431 0.733057 0.720133 -0.122180
C61   C     C_R   0.105970 0.725812 0.769974 -0.159926
C62   C     C_R   0.182683 0.934393 0.782742 0.296587
C63   C     C_R   0.196838 0.941391 0.732568 -0.097271
C64   C     C_1   0.634287 0.269961 0.394861 0.021614
C65   C     C_R   0.163556 0.840893 0.701340 -0.015259
C66   C     C_R   0.140184 0.826142 0.801448 0.051096
C67   C     C_1   0.655258 0.297457 0.354128 -0.021045
C68   C     C_1   0.123529 0.814734 0.852482 -0.005916
C69   C     C_1   0.189075 0.850293 0.650902 -0.043700
C70   C     C_1   0.100357 0.797838 0.894156 -0.001210
C71   C     C_1   0.647162 0.858655 0.608771 -0.021056
C72   C     C_R   0.776596 0.815068 0.714260 -0.124522
C73   C     C_R   0.789279 0.800335 0.762918 -0.166520
C74   C     C_R   0.586376 0.757137 0.775338 0.299107
C75   C     C_R   0.574929 0.773894 0.726644 -0.091774
C76   C     C_R   0.675451 0.235623 0.270453 -0.080764
C77   C     C_R   0.669814 0.803218 0.696185 -0.009953
C78   C     C_1   0.703732 0.395238 0.113342 0.002768
C79   C     C_R   0.695359 0.773830 0.793779 0.043780
C80   C     C_1   0.712142 0.766566 0.844535 -0.013525
C81   C     C_1   0.659534 0.830836 0.647825 -0.057357
C82   C     C_1   0.727454 0.761311 0.886965 0.000334
C83   C     C_R   0.065989 0.772991 0.079164 0.573008
C84   C     C_R   0.716790 0.440856 0.067232 0.554280
C85   C     C_R   0.718770 0.782787 0.080474 0.563347
C86   C     C_R   0.056748 0.766539 0.941210 0.538987
C87   C     C_R   0.710469 0.433584 0.929354 0.536351
C88   C     C_R   0.683844 0.251906 0.221075 -0.112210
C89   C     C_R   0.159364 0.744615 0.352800 0.123280
C90   C     C_R   0.749383 0.754499 0.937019 0.550857
C91   C     C_3   0.009576 0.157308 0.305957 -0.106238
C92   C     C_3   0.410560 0.621655 0.101238 -0.096370
C93   C     C_3   0.841617 0.208758 0.632758 -0.073199
C94   C     C_3   0.325345 0.351405 0.716325 -0.147357
C95   C     C_3   0.140606 0.077642 0.807589 -0.133658
C96   C     C_3   0.407561 0.617541 0.796927 -0.126521
C97   C     C_3   0.008872 0.449139 0.195190 -0.122682
Cr1   Cr    Cr6+3 0.416430 0.829200 0.492370 1.073485
Cr2   Cr    Cr6+3 0.674630 0.087020 0.504170 1.060230
Cr3   Cr    Cr6+3 0.408920 0.083740 0.503490 1.088762
Cr4   Cr    Cr6+3 0.914010 0.832750 0.013970 1.077732
Cr5   Cr    Cr6+3 0.922310 0.578600 0.003000 1.014710
Cr6   Cr    Cr6+3 0.656280 0.574630 0.003870 1.060487
H1    H     H_    0.668489 0.156711 0.282383 0.139820
H2    H     H_    0.494949 0.696600 0.369452 0.142531
H3    H     H_    0.874252 0.420051 0.872957 0.131674
H4    H     H_    0.963512 0.419137 0.795891 0.097800
H5    H     H_    0.948316 0.395574 0.707835 0.139090
H6    H     H_    0.505361 0.326653 0.876595 0.142442
H7    H     H_    0.388297 0.280294 0.802859 0.131737
H8    H     H_    0.463000 0.266926 0.637175 0.200152
H9    H     H_    0.092911 0.654975 0.696411 0.133805
H10   H     H_    0.693713 0.514664 0.226813 0.127306
H11   H     H_    0.071024 0.641872 0.784073 0.114944
H12   H     H_    0.197026 0.101454 0.217078 0.164646
H13   H     H_    0.236004 0.025229 0.718149 0.166074
H14   H     H_    0.850906 0.838691 0.691155 0.130303
H15   H     H_    0.873135 0.812041 0.776725 0.115044
H16   H     H_    0.493014 0.767043 0.713034 0.123592
H17   H     H_    0.678334 0.485458 0.313655 0.124475
H18   H     H_    0.122126 0.644469 0.130035 0.184008
H19   H     H_    0.135352 0.566823 0.290485 0.177107
H20   H     H_    0.007375 0.083736 0.323642 0.152885
H21   H     H_    0.070367 0.238561 0.328377 0.178650
H22   H     H_    0.046407 0.162657 0.269433 0.113802
H23   H     H_    0.214376 0.113306 0.302992 0.153399
H24   H     H_    0.358984 0.640382 0.129203 0.134992
H25   H     H_    0.349179 0.537463 0.080798 0.156223
H26   H     H_    0.443805 0.689217 0.075107 0.115581
H27   H     H_    0.752868 0.130803 0.634909 0.131590
H28   H     H_    0.896265 0.221536 0.665863 0.091720
H29   H     H_    0.885756 0.190334 0.601744 0.168333
H30   H     H_    0.401675 0.435768 0.708043 0.119798
H31   H     H_    0.298637 0.357455 0.754045 0.091911
H32   H     H_    0.249543 0.333890 0.691803 0.146465
H33   H     H_    0.047110 0.011017 0.812538 0.115398
H34   H     H_    0.812712 0.985969 0.134219 0.156418
H35   H     H_    0.149256 0.111937 0.771629 0.132033
H36   H     H_    0.164081 0.151102 0.835522 0.139628
H37   H     H_    0.444653 0.558660 0.801970 0.107330
H38   H     H_    0.364962 0.599419 0.760050 0.096239
H39   H     H_    0.337471 0.598246 0.823336 0.147623
H40   H     H_    0.000418 0.373308 0.171814 0.148996
H41   H     H_    0.949441 0.477191 0.178906 0.125417
H42   H     H_    0.979713 0.419896 0.231700 0.146712
H43   H     H_    0.800241 0.037790 0.372812 0.195563
H44   H     H_    0.878347 0.106423 0.209032 0.123642
H45   H     H_    0.420403 0.557657 0.203988 0.177931
H46   H     H_    0.416152 0.578687 0.291990 0.128145
H47   H     H_    0.684728 0.186224 0.195439 0.115747
O1    O     O_R   0.296680 0.802170 0.437540 -0.466689
O2    O     O_R   0.637200 0.461990 0.052510 -0.470150
O3    O     O_R   0.664790 0.681920 0.057970 -0.447395
O4    O     O_R   0.525380 0.838530 0.443500 -0.496669
O5    O     O_R   0.815840 0.852920 0.961840 -0.500742
O6    O     O_R   0.012100 0.822630 0.963670 -0.501025
O7    O     O_R   0.037010 0.668460 0.953040 -0.514429
O8    O     O_R   0.813390 0.478970 0.949660 -0.508633
O9    O     O_R   0.632250 0.456930 0.945520 -0.525037
O10   O     O_R   0.660200 0.677230 0.958780 -0.493926
O11   O     O_3   0.830870 0.661990 0.006950 -0.284133
O12   O     O_R   0.662610 0.183990 0.557860 -0.462344
O13   O     O_R   0.702130 0.995190 0.446810 -0.511600
O14   O     O_R   0.661770 0.181390 0.458760 -0.489389
O15   O     O_R   0.499820 0.198480 0.455280 -0.473557
O16   O     O_R   0.311660 0.976250 0.449080 -0.455117
O17   O     O_R   0.297580 0.804960 0.544440 -0.496405
O18   O     O_R   0.526220 0.841130 0.542590 -0.490283
O19   O     O_R   0.703030 0.997990 0.553710 -0.529402
O20   O     O_3   0.896500 0.147963 0.303502 -0.577485
O21   O     O_3   0.503977 0.612090 0.122565 -0.549231
O22   O     O_3   0.835379 0.310211 0.625414 -0.559911
O23   O     O_R   0.500730 0.201280 0.562180 -0.529126
O24   O     O_3   0.350147 0.259115 0.708103 -0.589979
O25   O     O_3   0.218789 0.033588 0.813991 -0.559256
O26   O     O_3   0.495030 0.735067 0.805997 -0.547436
O27   O     O_3   0.128095 0.538092 0.196982 -0.588426
O28   O     O_R   0.312500 0.978850 0.548170 -0.491697
O29   O     O_3   0.499990 0.999990 0.500010 -0.273430
O30   O     O_R   0.820790 0.857990 0.068830 -0.504390
O31   O     O_R   0.016700 0.827330 0.062850 -0.439297
O32   O     O_R   0.041970 0.673520 0.060040 -0.533502
O33   O     O_R   0.817980 0.483660 0.048840 -0.501677

loop_
_geom_bond_atom_site_label_1
_geom_bond_atom_site_label_2
_ccdc_geom_bond_type
C63   C65   A    
C4    O15   A    
Cr6   O2    S    
Cr2   O14   S    
C93   O22   S    
Cr3   O29   S    
C32   C33   A    
C48   C58   A    
C77   C81   S    
C23   H17   S    
C54   C55   A    
C42   C43   A    
C96   O26   S    
C34   C76   A    
C74   O26   S    
C87   O9    A    
C73   H15   S    
C85   O3    A    
C96   H37   S    
C92   O21   S    
C88   H47   S    
C7    H18   S    
C39   O22   S    
C35   C36   A    
C75   C77   A    
C25   O20   S    
Cr5   O7    S    
C1    C38   S    
C90   O10   A    
C8    C83   S    
C15   C18   A    
C52   C59   S    
C9    C19   A    
C53   C54   A    
C22   C26   A    
C14   C15   A    
Cr5   O32   S    
C66   C68   S    
C74   C79   A    
C20   H43   S    
C43   C44   A    
C82   C90   S    
C41   C50   A    
C47   C87   S    
C97   H40   S    
C13   C14   A    
C45   C88   A    
C92   H24   S    
C29   C38   A    
Cr6   O11   S    
C95   O25   S    
C21   C25   A    
C72   C77   A    
C52   O17   A    
C76   C88   A    
C41   C44   A    
C65   C69   S    
C60   H9    S    
C40   O12   A    
C96   H39   S    
Cr1   O4    S    
Cr3   O15   S    
Cr2   O13   S    
C10   C11   A    
C95   H36   S    
C92   H25   S    
C90   O5    A    
Br1   C9    S    
C39   C41   A    
C12   C45   A    
C94   H31   S    
C49   C51   A    
C86   O6    A    
C84   O33   A    
C86   O7    A    
C91   H20   S    
Cr2   O19   S    
C51   C53   A    
C42   C55   A    
C48   H8    S    
C87   O8    A    
C59   C69   T    
C31   C36   A    
Cr2   O29   S    
C56   C78   T    
C96   H38   S    
C27   C37   A    
C16   C19   S    
Cr4   O5    S    
C68   C70   T    
C5    C6    A    
C28   C71   S    
C3    C5    A    
C91   O20   S    
C74   C75   A    
C93   H29   S    
C8    C18   A    
C6    H19   S    
C61   H11   S    
C48   C49   A    
Cr5   O33   S    
C72   C73   A    
C2    C6    A    
C26   C27   A    
C57   H6    S    
C11   C17   A    
C40   O23   A    
C5    O27   S    
C94   O24   S    
C1    O4    A    
C42   C46   A    
C53   H7    S    
C30   C31   A    
C52   O28   A    
Cr5   O11   S    
C76   H1    S    
Cr1   O17   S    
C33   H45   S    
Cr6   O10   S    
Br2   C89   S    
C13   H23   S    
C39   C58   A    
C2    C11   A    
C78   C84   S    
C14   H12   S    
Cr4   O31   S    
C62   C63   A    
C24   H44   S    
Cr6   O3    S    
C63   H13   S    
C43   H4    S    
C95   H35   S    
C29   H2    S    
C92   H26   S    
C84   O2    A    
Br3   C18   S    
C22   C24   A    
C32   H46   S    
Cr4   O6    S    
C73   C79   A    
C97   O27   S    
C94   H32   S    
C49   C50   A    
C40   C58   S    
C45   C56   S    
C46   H3    S    
C62   C66   A    
C26   H34   S    
C4    O14   A    
C60   C65   A    
C85   O30   A    
C80   C82   T    
Cr3   O28   S    
C83   O31   A    
C28   O19   A    
C72   H14   S    
C16   O16   A    
C71   C81   T    
C12   C23   A    
C3    C7    A    
C93   H28   S    
C50   C55   A    
C23   C34   A    
C93   H27   S    
C91   H22   S    
Cr2   O12   S    
C3    C17   A    
C20   C38   A    
C51   O24   S    
C95   H33   S    
C64   C67   T    
C47   C57   A    
C29   C30   A    
C33   C35   A    
C70   C86   S    
C22   C36   A    
C35   C37   A    
Cr4   O11   S    
C28   O18   A    
Cr1   O1    S    
C97   H42   S    
C44   H5    S    
Cr3   O23   S    
C30   C32   A    
C1    O13   A    
Cr1   O18   S    
C15   C17   A    
Cr6   O9    S    
C91   H21   S    
C61   C66   A    
C75   H16   S    
C21   C31   A    
C2    C89   A    
C7    C8    A    
C20   C21   A    
C4    C64   S    
C60   C61   A    
C54   C57   A    
Cr4   O30   S    
C9    C10   A    
C37   O21   S    
C83   O32   A    
C46   C47   A    
C62   O25   S    
C10   C13   A    
C24   C25   A    
Cr3   O16   S    
C16   O1    A    
C19   C89   A    
C12   H10   S    
Cr5   O8    S    
C97   H41   S    
C94   H30   S    
C79   C80   S    
C34   C67   S    
C27   C85   S    
Cr1   O29   S    
