data_mof_unit_34649.cif
_audit_creation_date              2012-12-10T19:05:15-0500
_audit_creation_method            fapswitch 2.2
_symmetry_space_group_name_H-M    P1
_symmetry_Int_Tables_number       1
_space_group_crystal_system       triclinic
_cell_length_a                    9.547885
_cell_length_b                    10.818874
_cell_length_c                    17.18796
_cell_angle_alpha                 90.103577
_cell_angle_beta                  85.898264
_cell_angle_gamma                 89.986845
_cell_volume                      1770.92030301

loop_
_atom_site_label
_atom_site_type_symbol
_atom_type_description
_atom_site_fract_x
_atom_site_fract_y
_atom_site_fract_z
_atom_type_partial_charge
C1    C     C_R   0.499862 0.737666 0.501282 0.790895
C2    C     C_R   0.349072 0.457763 0.777493 -0.198044
C3    C     C_R   0.453963 0.374107 0.153129 -0.165053
C4    C     C_R   0.440758 0.399742 0.232406 -0.125562
C5    C     C_R   0.637347 0.544313 0.217149 -0.044713
C6    C     C_R   0.650981 0.515400 0.137419 -0.066846
C7    C     C_R   0.559280 0.431467 0.105683 0.137290
C8    C     C_2   0.460655 0.463485 0.982660 -0.326363
C9    C     C_2   0.565219 0.413845 0.021093 -0.045863
C10   C     C_R   0.531002 0.484627 0.265090 -0.116949
C11   C     C_R   0.373353 0.936453 0.507957 0.116836
C12   C     C_R   0.481596 0.500351 0.650249 0.785668
C13   C     C_R   0.499066 0.870802 0.508686 -0.095655
C14   C     C_R   0.623631 0.935597 0.520090 -0.215042
C15   C     C_R   0.623688 0.064448 0.519938 -0.212166
C16   C     C_R   0.499170 0.129221 0.508415 -0.096697
C17   C     C_R   0.373433 0.063651 0.507749 0.133690
C18   C     C_3   0.260807 0.069877 0.451855 -0.481988
C19   C     C_3   0.260479 0.929524 0.452234 -0.444079
C20   C     C_R   0.930760 0.408659 0.462320 0.168203
C21   C     C_R   0.919984 0.582506 0.543539 -0.069939
C22   C     C_R   0.068835 0.582313 0.543696 -0.076853
C23   C     C_R   0.499930 0.262330 0.501129 0.799526
C24   C     C_R   0.078324 0.410134 0.461081 0.150402
C25   C     C_3   0.089687 0.382961 0.375042 0.184528
C26   C     C_3   0.930455 0.375881 0.378126 -0.499933
C27   C     C_R   0.518748 0.499635 0.349841 0.775332
C28   C     C_R   0.472228 0.497833 0.735494 -0.029188
C29   C     C_R   0.589190 0.532079 0.775480 -0.196002
C30   C     C_R   0.584734 0.522742 0.856120 -0.160457
C31   C     C_R   0.464823 0.475584 0.897616 0.161258
C32   C     C_R   0.345418 0.447056 0.858438 -0.139535
Cu1   Cu    Cu3+1 0.359330 0.500020 0.500000 0.960051
Cu2   Cu    Cu3+1 0.640670 0.499980 0.500000 0.939271
H1    H     H_    0.684214 0.565960 0.744443 0.149351
H2    H     H_    0.729482 0.561491 0.099075 0.179161
H3    H     H_    0.721920 0.887415 0.525469 0.160534
H4    H     H_    0.722018 0.112608 0.525210 0.164213
H5    H     H_    0.162137 0.110829 0.478881 0.191300
H6    H     H_    0.298457 0.110007 0.394603 0.191373
H7    H     H_    0.161756 0.889466 0.479679 0.194388
H8    H     H_    0.297530 0.888056 0.395168 0.205435
H9    H     H_    0.859794 0.650902 0.577564 0.130292
H10   H     H_    0.120227 0.650445 0.577916 0.137296
H11   H     H_    0.361645 0.350907 0.268640 0.174702
H12   H     H_    0.142868 0.293869 0.360060 0.119734
H13   H     H_    0.881930 0.447713 0.342625 0.238264
H14   H     H_    0.890704 0.280609 0.369626 0.170008
H15   H     H_    0.250780 0.414111 0.890316 0.145797
H16   H     H_    0.382147 0.309699 0.128605 0.152544
H17   H     H_    0.257216 0.431874 0.747729 0.152986
H18   H     H_    0.370126 0.503444 0.015631 0.183446
H19   H     H_    0.675346 0.551360 0.886111 0.136222
N1    N     N_R   0.852130 0.499070 0.499500 -0.171512
N2    N     N_R   0.148040 0.499110 0.499500 -0.176509
O1    O     O_R   0.381190 0.680360 0.500000 -0.580613
O2    O     O_R   0.618770 0.680320 0.499990 -0.592955
O3    O     O_R   0.367430 0.500040 0.613600 -0.586258
O4    O     O_R   0.605020 0.500000 0.613590 -0.583992
O5    O     O_R   0.381230 0.319680 0.500010 -0.584965
O6    O     O_R   0.618810 0.319640 0.500000 -0.578304
O7    O     O_R   0.394980 0.500000 0.386410 -0.523147
O8    O     O_R   0.632570 0.499960 0.386400 -0.600233
O9    O     O_3   0.142962 0.481944 0.328692 -0.673691
H20   H     H_    0.097009 0.559763 0.347831 0.347509
C33   C     C_2   0.729652 0.640606 0.248075 0.352835
H21   H     H_    0.705544 0.680940 0.305247 0.083476
O10   O     O_2   0.833662 0.677375 0.209468 -0.529233
C34   C     C_2   0.684794 0.344285 0.981916 0.374076
H22   H     H_    0.685055 0.318987 0.920835 0.082278
O11   O     O_2   0.783629 0.312039 0.018409 -0.531830

loop_
_geom_bond_atom_site_label_1
_geom_bond_atom_site_label_2
_ccdc_geom_bond_type
C10   C27   S    
Cu1   N2    S    
Cu2   O2    S    
C33   O10   D    
C18   H5    S    
C15   H4    S    
C22   N2    A    
C27   O7    A    
C1    O2    A    
Cu1   O5    S    
C2    C28   A    
C29   H1    S    
C21   N1    A    
C31   C32   A    
C19   H8    S    
C26   H14   S    
Cu1   O3    S    
C6    C7    A    
C12   O3    A    
O9    H20   S    
Cu1   O1    S    
Cu1   Cu2   S    
C8    C9    D    
C34   O11   D    
C5    C10   A    
C21   H9    S    
C21   C22   A    
C24   N2    A    
C11   C13   A    
C30   C31   A    
C11   C19   S    
C29   C30   A    
C20   C26   S    
C26   H13   S    
C12   C28   S    
C5    C6    A    
C2    C32   A    
C28   C29   A    
C3    H16   S    
C6    H2    S    
C22   H10   S    
Cu2   N1    S    
C16   C23   S    
C3    C7    A    
C4    H11   S    
C12   O4    A    
C17   C18   S    
C23   O5    A    
C30   H19   S    
C34   H22   S    
C32   H15   S    
Cu2   O8    S    
C1    C13   S    
C2    H17   S    
C4    C10   A    
C15   C16   A    
C20   C24   A    
C23   O6    A    
Cu2   O4    S    
C24   C25   S    
C20   N1    A    
C18   C19   S    
C33   H21   S    
C7    C9    S    
C8    H18   S    
C14   C15   A    
C27   O8    A    
C18   H6    S    
C25   C26   S    
C13   C14   A    
C8    C31   S    
Cu1   O7    S    
C25   H12   S    
C1    O1    A    
Cu2   O6    S    
C11   C17   A    
C3    C4    A    
C19   H7    S    
C16   C17   A    
C9    C34   S    
C5    C33   S    
C14   H3    S    
C25   O9    S    
