data_mof_unit_9241.cif
_audit_creation_date              2012-12-11T20:14:14-0500
_audit_creation_method            fapswitch 2.2
_symmetry_space_group_name_H-M    P1
_symmetry_Int_Tables_number       1
_space_group_crystal_system       triclinic
_cell_length_a                    21.948812
_cell_length_b                    26.547761
_cell_length_c                    8.345491
_cell_angle_alpha                 90.000087
_cell_angle_beta                  102.731462
_cell_angle_gamma                 89.969903
_cell_volume                      4743.28902383

loop_
_atom_site_label
_atom_site_type_symbol
_atom_type_description
_atom_site_fract_x
_atom_site_fract_y
_atom_site_fract_z
_atom_type_partial_charge
Ba1   Ba    Ba6+2 0.999850 0.464270 0.844920 1.626560
Ba2   Ba    Ba6+2 0.999850 0.535730 0.344920 1.635528
Ba3   Ba    Ba6+2 0.499850 0.964270 0.844920 1.623000
Ba4   Ba    Ba6+2 0.499850 0.035730 0.344920 1.625185
C1    C     C_3   0.042819 0.224770 0.680420 -0.396962
C2    C     C_3   0.031951 0.779640 0.161576 -0.375787
C3    C     C_3   0.542515 0.724655 0.680595 -0.396832
C4    C     C_3   0.535305 0.278778 0.173845 -0.387749
C5    C     C_3   0.902503 0.330801 0.339079 -0.042385
C6    C     C_3   0.900312 0.668666 0.839892 -0.035037
C7    C     C_3   0.402324 0.830875 0.339567 -0.042990
C8    C     C_3   0.401905 0.168596 0.839587 -0.031072
C9    C     C_2   0.848212 0.300516 0.285755 -0.109166
C10   C     C_2   0.845568 0.698576 0.785685 -0.103563
C11   C     C_2   0.347968 0.800671 0.286314 -0.109049
C12   C     C_2   0.349250 0.200501 0.781782 -0.106976
C13   C     C_2   0.805088 0.310216 0.136740 0.007819
C14   C     C_2   0.805251 0.690226 0.631376 0.011957
C15   C     C_2   0.305310 0.810101 0.136383 0.009083
C16   C     C_2   0.307529 0.191392 0.629917 0.005440
C17   C     C_2   0.812940 0.353862 0.046444 -0.139226
C18   C     C_2   0.814930 0.647373 0.539750 -0.127376
C19   C     C_2   0.313408 0.853609 0.045762 -0.143134
C20   C     C_2   0.315256 0.147503 0.540778 -0.138957
C21   C     C_1   0.860730 0.387315 0.105840 0.058201
C22   C     C_1   0.860923 0.612930 0.603965 0.069989
C23   C     C_1   0.360856 0.887288 0.105899 0.059783
C24   C     C_1   0.360984 0.112848 0.604538 0.057887
C25   C     C_R   0.160468 0.700403 0.893004 -0.136940
C26   C     C_R   0.152746 0.295874 0.401305 -0.127391
C27   C     C_R   0.660213 0.200471 0.893676 -0.131858
C28   C     C_R   0.651425 0.795420 0.401817 -0.129554
C29   C     C_R   0.112675 0.663392 0.826039 -0.025514
C30   C     C_R   0.109643 0.335603 0.329222 -0.001818
C31   C     C_R   0.613212 0.162938 0.826038 0.001299
C32   C     C_R   0.609326 0.835633 0.328951 -0.000529
C33   C     C_R   0.138977 0.614108 0.082243 0.063423
C34   C     C_R   0.137727 0.385366 0.583590 0.062367
C35   C     C_R   0.639024 0.114040 0.082541 0.063436
C36   C     C_R   0.637360 0.885249 0.583644 0.062510
C37   C     C_R   0.184242 0.647646 0.145253 -0.124822
C38   C     C_R   0.180455 0.350101 0.649708 -0.128164
C39   C     C_R   0.683979 0.147775 0.146045 -0.124529
C40   C     C_R   0.679165 0.849439 0.650721 -0.131673
C41   C     C_R   0.195504 0.693657 0.052779 0.020852
C42   C     C_R   0.189227 0.302845 0.559689 0.015376
C43   C     C_R   0.695084 0.193862 0.053711 0.014447
C44   C     C_R   0.687392 0.802006 0.560876 0.016321
C45   C     C_3   0.978098 0.277879 0.075353 0.353127
C46   C     C_3   0.010079 0.741134 0.649896 0.301880
C47   C     C_3   0.477965 0.777909 0.075491 0.353372
C48   C     C_3   0.480905 0.221314 0.578225 0.354451
C49   C     C_2   0.751295 0.276156 0.072994 -0.079336
C50   C     C_2   0.756022 0.727046 0.556718 -0.092853
C51   C     C_2   0.251696 0.775935 0.072158 -0.076812
C52   C     C_2   0.258677 0.228416 0.554769 -0.088923
C53   C     C_2   0.247446 0.728128 0.124813 -0.075288
C54   C     C_2   0.236371 0.265041 0.638981 -0.086570
C55   C     C_2   0.746892 0.228411 0.126018 -0.074868
C56   C     C_2   0.733549 0.763635 0.640837 -0.087719
C57   C     C_R   0.101975 0.621166 0.931831 -0.269412
C58   C     C_R   0.101368 0.379130 0.432102 -0.277873
C59   C     C_R   0.602361 0.120830 0.931719 -0.280066
C60   C     C_R   0.601448 0.879356 0.431449 -0.276502
C61   C     C_3   0.944155 0.228709 0.014551 -0.206857
C62   C     C_3   0.961729 0.780358 0.570747 -0.196347
C63   C     C_3   0.443991 0.728734 0.014897 -0.207009
C64   C     C_3   0.453455 0.274448 0.556159 -0.216595
C65   C     C_3   0.178444 0.467946 0.281615 0.316036
C66   C     C_3   0.179453 0.531696 0.781129 0.316700
C67   C     C_3   0.678738 0.968088 0.283015 0.317547
C68   C     C_3   0.679817 0.031521 0.781623 0.315933
C69   C     C_3   0.235996 0.434328 0.318693 -0.395622
C70   C     C_3   0.237344 0.564890 0.816248 -0.395210
C71   C     C_3   0.736480 0.934667 0.321427 -0.400396
C72   C     C_3   0.737811 0.064597 0.816645 -0.395224
C73   C     C_3   0.821703 0.532830 0.909539 0.305652
C74   C     C_3   0.822531 0.466805 0.412955 0.304569
C75   C     C_3   0.321596 0.032765 0.908780 0.302638
C76   C     C_3   0.320319 0.967232 0.409843 0.317722
C77   C     C_3   0.763936 0.566446 0.861110 -0.246392
C78   C     C_3   0.765222 0.432781 0.364515 -0.248260
C79   C     C_3   0.263708 0.066250 0.860421 -0.246797
C80   C     C_3   0.261632 0.937156 0.330308 -0.244572
C81   C     C_3   0.016583 0.276850 0.628446 0.365854
C82   C     C_3   0.011516 0.725305 0.126085 0.417713
C83   C     C_3   0.516383 0.776765 0.628640 0.365898
C84   C     C_3   0.512591 0.225449 0.127437 0.366320
C85   C     C_2   0.902231 0.377811 0.253900 -0.256378
C86   C     C_2   0.900903 0.621832 0.754552 -0.246460
C87   C     C_2   0.402066 0.877904 0.254507 -0.253662
C88   C     C_2   0.400797 0.121358 0.755610 -0.255978
H1    H     H_    0.049284 0.305519 0.696211 0.083066
H2    H     H_    0.046929 0.699981 0.201494 0.080429
H3    H     H_    0.549175 0.805401 0.696291 0.083213
H4    H     H_    0.547279 0.198382 0.196847 0.079597
H5    H     H_    0.271175 0.450044 0.423127 0.120341
H6    H     H_    0.272722 0.549050 0.920063 0.120634
H7    H     H_    0.771777 0.951021 0.424341 0.120482
H8    H     H_    0.773325 0.048511 0.919677 0.120817
H9    H     H_    0.223220 0.395883 0.351361 0.064602
H10   H     H_    0.225144 0.603468 0.848963 0.065984
H11   H     H_    0.724034 0.896428 0.356957 0.063255
H12   H     H_    0.725818 0.103116 0.850510 0.064786
H13   H     H_    0.256721 0.431766 0.208957 0.126825
H14   H     H_    0.257572 0.567114 0.705610 0.126512
H15   H     H_    0.756951 0.931423 0.211432 0.126631
H16   H     H_    0.757774 0.067029 0.705605 0.126338
H17   H     H_    0.843350 0.529331 0.802244 -0.007211
H18   H     H_    0.845089 0.469559 0.307070 -0.005344
H19   H     H_    0.342833 0.028910 0.800883 -0.007633
H20   H     H_    0.351013 0.969166 0.320843 -0.005354
H21   H     H_    0.855529 0.550772 0.012179 0.074838
H22   H     H_    0.855829 0.449525 0.518021 0.079692
H23   H     H_    0.355638 0.050985 0.010384 0.078672
H24   H     H_    0.345756 0.947300 0.521149 0.071398
H25   H     H_    0.730745 0.549248 0.755205 0.102039
H26   H     H_    0.733251 0.448533 0.253629 0.100937
H27   H     H_    0.230550 0.048933 0.754655 0.102077
H28   H     H_    0.244977 0.950513 0.201846 0.095272
H29   H     H_    0.778685 0.603454 0.821452 0.056435
H30   H     H_    0.780893 0.395121 0.332825 0.063667
H31   H     H_    0.278273 0.103332 0.820634 0.060987
H32   H     H_    0.274201 0.896788 0.324892 0.063949
H33   H     H_    0.014492 0.280663 0.494784 -0.074328
H34   H     H_    0.010267 0.718408 0.994159 -0.132953
H35   H     H_    0.514235 0.780548 0.494936 -0.074164
H36   H     H_    0.510402 0.220936 0.993882 -0.078533
H37   H     H_    0.007560 0.195468 0.632952 0.114633
H38   H     H_    0.076487 0.786309 0.122473 0.063454
H39   H     H_    0.507149 0.695388 0.633238 0.114578
H40   H     H_    0.578686 0.286118 0.129803 0.069950
H41   H     H_    0.085111 0.217893 0.631051 0.074813
H42   H     H_    0.039485 0.787588 0.294780 0.138788
H43   H     H_    0.584780 0.717693 0.631030 0.075313
H44   H     H_    0.545778 0.283800 0.308915 0.148684
H45   H     H_    0.782618 0.212894 0.223946 0.061928
H46   H     H_    0.750122 0.766847 0.772602 0.077370
H47   H     H_    0.283291 0.712604 0.222474 0.061057
H48   H     H_    0.253523 0.268363 0.770629 0.078144
H49   H     H_    0.780491 0.361865 0.930838 0.066604
H50   H     H_    0.785580 0.640968 0.418554 0.067265
H51   H     H_    0.281474 0.861262 0.929128 0.069066
H52   H     H_    0.284646 0.140526 0.421637 0.069977
H53   H     H_    0.169871 0.730382 0.814249 0.065659
H54   H     H_    0.154823 0.262252 0.329974 0.065582
H55   H     H_    0.669330 0.230623 0.815158 0.072400
H56   H     H_    0.653075 0.761687 0.330677 0.065626
H57   H     H_    0.214903 0.791057 0.975578 0.066398
H58   H     H_    0.241682 0.225108 0.423229 0.077789
H59   H     H_    0.714547 0.291262 0.976248 0.065727
H60   H     H_    0.739532 0.724095 0.424932 0.076725
H61   H     H_    0.843112 0.268117 0.360407 0.065700
H62   H     H_    0.841091 0.732158 0.855826 0.060642
H63   H     H_    0.342539 0.768429 0.361339 0.065976
H64   H     H_    0.347537 0.235710 0.846368 0.064343
H65   H     H_    0.213894 0.640726 0.265277 0.077160
H66   H     H_    0.209588 0.356323 0.770811 0.081597
H67   H     H_    0.713434 0.140997 0.266425 0.078939
H68   H     H_    0.707869 0.855298 0.772551 0.082421
H69   H     H_    0.941639 0.402824 0.294890 0.074073
H70   H     H_    0.940316 0.596863 0.796722 0.068698
H71   H     H_    0.441581 0.902825 0.295318 0.075073
H72   H     H_    0.438819 0.095275 0.800176 0.073105
H73   H     H_    0.066426 0.593787 0.881506 0.068258
H74   H     H_    0.067805 0.407735 0.379366 0.069432
H75   H     H_    0.567038 0.093311 0.881018 0.070782
H76   H     H_    0.568515 0.908311 0.378025 0.069314
H77   H     H_    0.056048 0.221573 0.815893 0.153456
H78   H     H_    0.995816 0.805657 0.092955 0.101412
H79   H     H_    0.555802 0.721478 0.816135 0.153361
H80   H     H_    0.499177 0.306529 0.116586 0.105281
H81   H     H_    0.948740 0.309401 0.013144 0.061778
H82   H     H_    0.985565 0.712241 0.708098 -0.019935
H83   H     H_    0.448571 0.809430 0.013437 0.061776
H84   H     H_    0.448868 0.195434 0.494636 0.073251
H85   H     H_    0.983197 0.280804 0.209989 -0.062671
H86   H     H_    0.046887 0.759618 0.744580 -0.011798
H87   H     H_    0.483173 0.780838 0.210168 -0.063087
H88   H     H_    0.484197 0.209707 0.707319 -0.071822
H89   H     H_    0.893556 0.232904 0.012497 0.067662
H90   H     H_    0.923076 0.760710 0.484879 0.134600
H91   H     H_    0.393458 0.732861 0.013705 0.067261
H92   H     H_    0.403097 0.272590 0.559092 0.066630
H93   H     H_    0.947648 0.221838 0.885923 0.147306
H94   H     H_    0.983484 0.807627 0.499301 0.102625
H95   H     H_    0.447174 0.721951 0.886009 0.147336
H96   H     H_    0.456933 0.289348 0.434123 0.131103
H97   H     H_    0.159522 0.471217 0.393433 0.010478
H98   H     H_    0.160996 0.528747 0.893806 0.009136
H99   H     H_    0.659771 0.971642 0.394666 0.011872
H100  H     H_    0.661532 0.028493 0.894554 0.010960
H101  H     H_    0.143256 0.450259 0.181276 0.069680
H102  H     H_    0.144093 0.549492 0.681362 0.066339
H103  H     H_    0.643656 0.950088 0.183117 0.068329
H104  H     H_    0.644402 0.049455 0.682280 0.065835
O1    O     O_2   0.875320 0.428620 0.822840 -0.468690
O2    O     O_2   0.875320 0.571380 0.322840 -0.463483
O3    O     O_2   0.375320 0.928620 0.822840 -0.472268
O4    O     O_2   0.375320 0.071380 0.322840 -0.463928
O5    O     O_3   0.196169 0.483896 0.734486 -0.634764
O6    O     O_3   0.195758 0.515565 0.235038 -0.635149
O7    O     O_3   0.696304 0.983743 0.734255 -0.636467
O8    O     O_3   0.695816 0.015603 0.234956 -0.635059
O9    O     O_3   0.037088 0.278903 0.035738 -0.610013
O10   O     O_3   0.037266 0.719609 0.528703 -0.585273
O11   O     O_3   0.536880 0.778930 0.035436 -0.610097
O12   O     O_3   0.540028 0.220738 0.539610 -0.609614
O13   O     O_3   0.072510 0.524860 0.092920 -0.499001
O14   O     O_3   0.072510 0.475140 0.592920 -0.498927
O15   O     O_3   0.572510 0.024860 0.092920 -0.497699
O16   O     O_3   0.572510 0.975140 0.592920 -0.497446
O17   O     O_3   0.927380 0.474960 0.096800 -0.494495
O18   O     O_3   0.927380 0.525040 0.596800 -0.497013
O19   O     O_3   0.427380 0.974960 0.096800 -0.491315
O20   O     O_3   0.427380 0.025040 0.596800 -0.493325
O21   O     O_3   0.978260 0.384470 0.628120 -0.481547
O22   O     O_3   0.978260 0.615530 0.128120 -0.481111
O23   O     O_3   0.478260 0.884470 0.628120 -0.479277
O24   O     O_3   0.478260 0.115530 0.128120 -0.482112
O25   O     O_2   0.866609 0.348829 0.643553 -0.488200
O26   O     O_2   0.864941 0.649167 0.142679 -0.488579
O27   O     O_2   0.366576 0.848985 0.644001 -0.491369
O28   O     O_2   0.365189 0.149612 0.141168 -0.492280
O29   O     O_3   0.803999 0.485201 0.955125 -0.648435
O30   O     O_3   0.804105 0.514758 0.454012 -0.650609
O31   O     O_3   0.304132 0.985314 0.956396 -0.654431
O32   O     O_3   0.303378 0.015591 0.451400 -0.650809
O33   O     O_3   0.956982 0.282353 0.663842 -0.597852
O34   O     O_3   0.952816 0.717523 0.164669 -0.578078
O35   O     O_3   0.456825 0.782376 0.664251 -0.597878
O36   O     O_3   0.453796 0.217771 0.165610 -0.593157
O37   O     O_2   0.124210 0.428020 0.866900 -0.461516
O38   O     O_2   0.124210 0.571980 0.366900 -0.460125
O39   O     O_2   0.624210 0.928020 0.866900 -0.460847
O40   O     O_2   0.624210 0.071980 0.366900 -0.460264
O41   O     O_3   0.021040 0.384370 0.061630 -0.486929
O42   O     O_3   0.021040 0.615630 0.561630 -0.465064
O43   O     O_3   0.521040 0.884370 0.061630 -0.486108
O44   O     O_3   0.521040 0.115630 0.561630 -0.487943
O45   O     O_2   0.124635 0.343072 0.007412 -0.482496
O46   O     O_2   0.124492 0.655631 0.501525 -0.482116
O47   O     O_2   0.624604 0.843037 0.007351 -0.483256
O48   O     O_2   0.625093 0.155945 0.501298 -0.480190
P1    P     P_3+3 0.869190 0.445350 0.992760 0.967294
P2    P     P_3+3 0.869190 0.554650 0.492760 0.969962
P3    P     P_3+3 0.369190 0.945350 0.992760 0.961613
P4    P     P_3+3 0.369190 0.054650 0.492760 0.967649
P5    P     P_3+3 0.130420 0.444720 0.696970 0.978371
P6    P     P_3+3 0.130420 0.555280 0.196970 0.979878
P7    P     P_3+3 0.630420 0.944720 0.696970 0.977055
P8    P     P_3+3 0.630420 0.055280 0.196970 0.980401
P9    P     P_3+3 0.074289 0.335338 0.108912 0.941287
P10   P     P_3+3 0.075437 0.663984 0.606371 0.961301
P11   P     P_3+3 0.574195 0.835314 0.108656 0.941682
P12   P     P_3+3 0.576167 0.163504 0.607058 0.946700
P13   P     P_3+3 0.921715 0.661783 0.068237 0.959531
P14   P     P_3+3 0.923448 0.337395 0.567672 0.942750
P15   P     P_3+3 0.422329 0.162231 0.068130 0.945079
P16   P     P_3+3 0.423368 0.837439 0.568073 0.943643
C89   C     C_3   0.731216 0.574729 0.003654 -0.159145
C90   C     C_3   0.678706 0.613710 0.956908 -0.218775
C91   C     C_3   0.646868 0.623507 0.098979 -0.430446
H105  H     H_    0.625869 0.588246 0.134021 0.131073
H106  H     H_    0.681015 0.638412 0.207021 0.130298
H107  H     H_    0.609303 0.651835 0.060618 0.127890
H108  H     H_    0.698128 0.649858 0.922759 0.134379
H109  H     H_    0.643283 0.599988 0.849279 0.118530
H110  H     H_    0.711477 0.538443 0.035407 0.128417
H111  H     H_    0.765584 0.588316 0.113322 0.152795
C92   C     C_3   0.730202 0.426816 0.503511 -0.157792
C93   C     C_3   0.677797 0.387758 0.457042 -0.217591
C94   C     C_3   0.641331 0.382370 0.591984 -0.433702
H112  H     H_    0.672820 0.370294 0.709151 0.129194
H113  H     H_    0.618853 0.418783 0.611285 0.131755
H114  H     H_    0.604334 0.353493 0.554655 0.133037
H115  H     H_    0.645015 0.399292 0.341189 0.118665
H116  H     H_    0.698112 0.350475 0.436654 0.136521
H117  H     H_    0.763237 0.414355 0.617496 0.148307
H118  H     H_    0.709978 0.463743 0.527797 0.129160
C95   C     C_3   0.231045 0.074366 0.003164 -0.158869
C96   C     C_3   0.178116 0.112976 0.956423 -0.219450
C97   C     C_3   0.146255 0.122453 0.098664 -0.430772
H119  H     H_    0.125610 0.087016 0.133688 0.128843
H120  H     H_    0.180306 0.137491 0.206698 0.130433
H121  H     H_    0.108410 0.150557 0.060472 0.128202
H122  H     H_    0.197133 0.149284 0.922116 0.134969
H123  H     H_    0.142799 0.099024 0.848885 0.117611
H124  H     H_    0.211672 0.037967 0.035306 0.128553
H125  H     H_    0.265382 0.088199 0.112581 0.153991
C98   C     C_3   0.207267 0.941959 0.418476 -0.184810
C99   C     C_3   0.223186 0.920060 0.592875 -0.178177
C100  C     C_3   0.167304 0.922854 0.673619 -0.442573
H126  H     H_    0.152806 0.962746 0.682766 0.133842
H127  H     H_    0.127428 0.900925 0.601138 0.129059
H128  H     H_    0.180316 0.906767 0.799626 0.124651
H129  H     H_    0.237996 0.880063 0.589085 0.135784
H130  H     H_    0.261938 0.941905 0.669019 0.167840
H131  H     H_    0.193243 0.982156 0.422438 0.137626
H132  H     H_    0.166574 0.921183 0.344774 0.097834
C101  C     C_3   0.971099 0.182801 0.118558 -0.208684
C102  C     C_3   0.940415 0.175179 0.265041 -0.195687
C103  C     C_3   0.966326 0.128410 0.363142 -0.433582
H133  H     H_    0.956627 0.094273 0.284710 0.134187
H134  H     H_    0.017565 0.132047 0.410504 0.129878
H135  H     H_    0.943654 0.123878 0.468789 0.125135
H136  H     H_    0.948739 0.208646 0.346583 0.122498
H137  H     H_    0.889137 0.170502 0.220439 0.118755
H138  H     H_    0.962401 0.148704 0.039345 0.106127
H139  H     H_    0.022485 0.186788 0.162571 0.131811
C104  C     C_3   0.935966 0.809289 0.700528 -0.262744
C105  C     C_3   0.879794 0.841884 0.620331 -0.189162
C106  C     C_3   0.852720 0.869379 0.749405 -0.409770
H140  H     H_    0.836535 0.841870 0.831298 0.128998
H141  H     H_    0.888455 0.894457 0.824280 0.131836
H142  H     H_    0.812280 0.892669 0.687791 0.126150
H143  H     H_    0.894388 0.870090 0.537750 0.119392
H144  H     H_    0.842728 0.817816 0.545638 0.131777
H145  H     H_    0.921660 0.782370 0.786913 0.116676
H146  H     H_    0.973415 0.833684 0.772191 0.113164
C107  C     C_3   0.471221 0.682798 0.118316 -0.208193
C108  C     C_3   0.440816 0.674949 0.265170 -0.196340
C109  C     C_3   0.467172 0.628267 0.363034 -0.433020
H147  H     H_    0.457729 0.594139 0.284474 0.134747
H148  H     H_    0.518386 0.632186 0.410245 0.130396
H149  H     H_    0.444606 0.623509 0.468786 0.124919
H150  H     H_    0.448989 0.708419 0.346732 0.122519
H151  H     H_    0.389561 0.670034 0.220963 0.118798
H152  H     H_    0.462524 0.648752 0.038856 0.106158
H153  H     H_    0.522614 0.686883 0.161867 0.131999
C110  C     C_3   0.486862 0.309639 0.693374 -0.201873
C111  C     C_3   0.464685 0.364157 0.660965 -0.204013
C112  C     C_3   0.495998 0.398627 0.801458 -0.430830
H154  H     H_    0.483266 0.386991 0.917691 0.132125
H155  H     H_    0.547586 0.397211 0.817908 0.131462
H156  H     H_    0.480175 0.438015 0.773298 0.126321
H157  H     H_    0.476168 0.377712 0.545030 0.119313
H158  H     H_    0.413197 0.366148 0.647696 0.125962
H159  H     H_    0.476904 0.296813 0.811716 0.108163
H160  H     H_    0.538162 0.307802 0.703337 0.131889

loop_
_geom_bond_atom_site_label_1
_geom_bond_atom_site_label_2
_ccdc_geom_bond_type
C74   O30   S    
O19   P3    S    
C98   C99   S    
O38   P6    D    
C45   H81   S    
C103  H134  S    
C112  H154  S    
C71   H15   S    
C41   C53   S    
C96   C97   S    
O42   P10   S    
C30   P9    S    
C46   H86   S    
C34   P5    S    
C92   C93   S    
C102  H137  S    
C94   H114  S    
O47   P11   D    
C79   H27   S    
C5    C9    A    
Ba3   O39   S    
C7    C11   A    
C76   H24   S    
Ba1   O37   S    
C93   C94   S    
C66   C70   S    
C26   H54   S    
O14   P5    S    
C27   H55   S    
C92   H117  S    
C62   H90   S    
C5    P14   S    
C71   H11   S    
C19   H51   S    
C99   H129  S    
C73   H21   S    
C63   H95   S    
C45   H85   S    
C32   P11   S    
C109  H147  S    
O24   P15   S    
C81   O33   S    
Ba4   P8    S    
C36   P7    S    
C50   H60   S    
C101  C102  S    
C13   C17   A    
C25   C41   A    
C15   C19   A    
C23   P3    S    
C74   C78   S    
C103  H133  S    
C12   C16   A    
C104  H146  S    
C76   H20   S    
C65   H101  S    
O16   P7    S    
C68   O7    S    
C84   O36   S    
C62   H94   S    
O43   P11   S    
O20   P4    S    
C78   H26   S    
C65   H97   S    
C66   H98   S    
C112  H156  S    
C54   H48   S    
C91   H106  S    
C64   H92   S    
C93   H116  S    
O22   P13   S    
C68   H104  S    
C22   C86   A    
C61   C101  S    
Ba1   P1    S    
C110  H159  S    
O1    P1    D    
C43   C55   S    
C7    C87   A    
C29   C57   S    
C107  C108  S    
O48   P12   D    
Ba1   O18   S    
Ba2   O22   S    
C37   C41   S    
C31   C59   S    
C4    C84   S    
C32   C60   S    
C39   C43   S    
C78   H30   S    
C40   C44   S    
C56   H46   S    
C34   C58   D    
C77   C89   S    
C75   H23   S    
C82   H34   S    
O18   P2    S    
C2    H38   S    
C107  H152  S    
C70   H6    S    
C1    H41   S    
C86   H70   S    
C28   C32   S    
Ba3   P7    S    
C39   H67   S    
C38   C42   S    
C89   C90   S    
Ba1   P5    S    
C106  H141  S    
C105  C106  S    
C81   H1    S    
C108  H151  S    
C35   P8    S    
C25   C29   S    
O36   P15   S    
C83   H3    S    
C23   C87   A    
C89   H110  S    
O13   P6    S    
C1    C81   S    
O33   P14   S    
C59   H75   S    
C96   H122  S    
C42   C54   S    
C97   H121  S    
Ba4   O40   S    
O40   P8    D    
C47   H87   S    
C51   H57   S    
Ba3   O15   S    
C67   O8    S    
O44   P12   S    
C26   C30   S    
Ba1   O13   S    
C8    C12   A    
C72   H8    S    
C111  C112  S    
C74   H18   S    
C6    C10   A    
C90   H108  S    
Ba1   O41   S    
C78   C92   S    
C109  H148  S    
O17   P1    S    
C100  H126  S    
C67   H103  S    
O34   P13   S    
C18   H50   S    
C71   H7    S    
C6    P13   S    
C47   C63   S    
C64   C110  S    
C73   H17   S    
C98   H132  S    
C63   H91   S    
O28   P15   D    
O7    P7    S    
C46   O10   S    
Ba3   O23   S    
C58   H74   S    
C101  H139  S    
O5    P5    S    
C105  H144  S    
O45   P9    D    
C52   H58   S    
Ba3   Ba4   S    
O9    P9    S    
C2    H78   S    
C17   C21   A    
Ba2   O13   S    
C14   C18   A    
C26   C42   A    
Ba1   O1    S    
C20   C24   A    
C111  H157  S    
C90   C91   S    
O32   P4    S    
C2    C82   S    
C9    C13   A    
C69   H13   S    
C69   H9    S    
C94   H113  S    
C52   C54   D    
C57   H73   S    
C33   C37   D    
O26   P13   D    
O31   P3    S    
C22   P2    S    
Ba4   O4    S    
C64   H96   S    
C97   H119  S    
C49   H59   S    
O23   P16   S    
C67   H99   S    
C68   H100  S    
O25   P14   D    
C72   H12   S    
C84   H4    S    
C73   O29   S    
C3    H79   S    
C4    H44   S    
C99   H130  S    
C76   C80   S    
O37   P5    D    
C91   H105  S    
C74   H22   S    
C11   C15   A    
Ba4   O15   S    
O41   P9    S    
C29   P10   S    
C100  H128  S    
C25   H53   S    
C33   P6    S    
C30   C58   S    
C53   H47   S    
C24   P4    S    
C63   C107  S    
Ba2   O38   S    
C3    C83   S    
Ba4   O24   S    
C104  H145  S    
C12   H64   S    
C65   C69   S    
C8    P15   S    
O15   P8    S    
C48   H84   S    
C3    H39   S    
C16   C52   S    
C95   H125  S    
C70   H10   S    
C1    H37   S    
C108  C109  S    
C72   H16   S    
C27   C43   A    
C28   C44   A    
C87   H71   S    
C38   H66   S    
Ba3   P3    S    
C85   H69   S    
C8    C88   A    
O30   P2    S    
C103  H135  S    
C112  H155  S    
C82   O34   S    
C5    C85   A    
C61   H89   S    
Ba3   O20   S    
C102  H136  S    
C107  H153  S    
C110  C111  S    
C73   C77   S    
C80   H28   S    
Ba4   O44   S    
C76   O32   S    
C47   H83   S    
C9    H61   S    
C37   H65   S    
C92   H118  S    
C45   O9    S    
C40   H68   S    
C27   C31   S    
C13   C49   S    
C15   C51   S    
Ba4   O16   S    
C28   H56   S    
O35   P16   S    
C21   C85   A    
C7    P16   S    
Ba2   P2    S    
C17   H49   S    
C60   H76   S    
C75   C79   S    
C106  H140  S    
O2    P2    D    
C47   O11   S    
O21   P14   S    
C6    C86   A    
Ba2   O17   S    
C2    H42   S    
C18   C22   A    
C77   H29   S    
C20   H52   S    
C1    H77   S    
Ba1   O21   S    
C79   H31   S    
C4    H80   S    
Ba3   O43   S    
C21   P1    S    
C91   H107  S    
C104  C105  S    
C96   H123  S    
C93   H115  S    
C97   H120  S    
C10   C14   A    
C81   H33   S    
O39   P7    D    
C68   C72   S    
C83   H35   S    
C49   C55   D    
C50   C56   D    
C69   H5    S    
C45   C61   S    
C99   C100  S    
Ba2   O2    S    
C34   C38   D    
Ba2   P6    S    
C90   H109  S    
O27   P16   D    
C110  H160  S    
C55   H45   S    
Ba1   Ba2   S    
O11   P11   S    
Ba4   P4    S    
C82   H2    S    
C16   C20   A    
C4    H40   S    
Ba3   O3    S    
C19   C23   A    
C98   H131  S    
C48   C64   S    
C66   H102  S    
C100  H127  S    
C88   H72   S    
C66   O5    S    
C101  H138  S    
Ba4   O19   S    
C75   O31   S    
C44   C56   S    
O29   P1    S    
C61   H93   S    
Ba2   O14   S    
C111  H158  S    
Ba2   O42   S    
C106  H142  S    
C35   C39   D    
C95   C96   S    
C48   H88   S    
C3    H43   S    
C79   C95   S    
C70   H14   S    
C108  H150  S    
C36   C40   D    
C94   H112  S    
C24   C88   A    
O4    P4    D    
C46   C62   S    
C89   H111  S    
C77   H25   S    
O6    P6    S    
C31   P12   S    
O46   P10   D    
O10   P10   S    
Ba3   O16   S    
C102  C103  S    
Ba1   O14   S    
C48   O12   S    
C11   H63   S    
C33   C57   D    
C62   C104  S    
O3    P3    D    
C80   H32   S    
C35   C59   D    
C36   C60   D    
C75   H19   S    
C46   H82   S    
C109  H149  S    
C51   C53   D    
C84   H36   S    
C67   C71   S    
C80   C98   S    
C83   O35   S    
C14   C50   S    
O8    P8    S    
C65   O6    S    
C105  H143  S    
O12   P12   S    
C10   H62   S    
C95   H124  S    
