data_mof_unit_22173.cif
_audit_creation_date              2012-12-11T16:28:32-0500
_audit_creation_method            fapswitch 2.2
_symmetry_space_group_name_H-M    P1
_symmetry_Int_Tables_number       1
_space_group_crystal_system       triclinic
_cell_length_a                    16.575464
_cell_length_b                    7.254805
_cell_length_c                    15.198401
_cell_angle_alpha                 90.015205
_cell_angle_beta                  94.788019
_cell_angle_gamma                 89.996646
_cell_volume                      1821.25655878

loop_
_atom_site_label
_atom_site_type_symbol
_atom_type_description
_atom_site_fract_x
_atom_site_fract_y
_atom_site_fract_z
_atom_type_partial_charge
O1    O     O_R   0.663460 0.361760 0.165970 -0.532523
O2    O     O_R   0.336540 0.638240 0.834030 -0.532522
O3    O     O_R   0.836540 0.861760 0.334030 -0.533935
O4    O     O_R   0.163460 0.138240 0.665970 -0.533935
O5    O     O_R   0.827100 0.689870 0.163730 -0.529374
O6    O     O_R   0.172900 0.310130 0.836270 -0.529373
O7    O     O_R   0.672900 0.189870 0.336270 -0.532333
O8    O     O_R   0.327100 0.810130 0.663730 -0.532332
H1    H     H_    0.208159 0.901055 0.496080 0.107728
H2    H     H_    0.791841 0.098945 0.503920 0.107728
H3    H     H_    0.287628 0.500769 0.005012 0.098660
H4    H     H_    0.712372 0.499231 0.994987 0.098660
C1    C     C_R   0.853287 0.522928 0.143587 0.701483
C2    C     C_R   0.146713 0.477072 0.856412 0.701483
C3    C     C_R   0.646731 0.022953 0.356437 0.702078
C4    C     C_R   0.353268 0.977047 0.643563 0.702077
O9    O     O_R   0.663490 0.691370 0.155500 -0.536074
O10   O     O_R   0.336510 0.308630 0.844500 -0.536074
O11   O     O_R   0.836510 0.191370 0.344500 -0.536212
O12   O     O_R   0.163490 0.808630 0.655500 -0.536212
O13   O     O_R   0.671770 0.863320 0.325740 -0.528128
O14   O     O_R   0.328230 0.136680 0.674260 -0.528128
O15   O     O_R   0.828230 0.363320 0.174260 -0.531269
O16   O     O_R   0.171770 0.636680 0.825740 -0.531268
C5    C     C_R   0.636248 0.522878 0.133696 0.671914
C6    C     C_R   0.363752 0.477122 0.866304 0.671914
C7    C     C_R   0.863851 0.022854 0.366194 0.670165
C8    C     C_R   0.136149 0.977146 0.633806 0.670165
O17   O     O_3   0.752910 0.528800 0.305860 -0.373285
O18   O     O_3   0.247090 0.471200 0.694140 -0.373285
O19   O     O_3   0.747090 0.028800 0.194140 -0.373392
O20   O     O_3   0.252910 0.971200 0.805860 -0.373391
V1    V     V_3+5 0.749460 0.803010 0.239640 1.465341
V2    V     V_3+5 0.250540 0.196990 0.760360 1.465341
V3    V     V_3+5 0.750540 0.303010 0.260360 1.460750
V4    V     V_3+5 0.249460 0.696990 0.739640 1.460750
C9    C     C_1   0.468820 0.994743 0.530108 0.081773
C10   C     C_1   0.531180 0.005257 0.469892 0.081773
C11   C     C_1   0.031193 0.494817 0.969905 0.085667
C12   C     C_1   0.968806 0.505182 0.030094 0.085667
H5    H     H_    0.772094 0.152714 0.657420 0.111102
H6    H     H_    0.227906 0.847286 0.342580 0.111102
H7    H     H_    0.735437 0.468384 0.840693 0.109921
H8    H     H_    0.264563 0.531616 0.159307 0.109921
C13   C     C_R   0.025580 0.934419 0.320585 -0.131205
C14   C     C_R   0.974420 0.065582 0.679415 -0.131205
C15   C     C_R   0.470540 0.537568 0.180109 -0.130135
C16   C     C_R   0.529460 0.462432 0.819891 -0.130135
C17   C     C_R   0.102963 0.890866 0.295807 0.036600
C18   C     C_R   0.897037 0.109134 0.704193 0.036600
C19   C     C_R   0.391107 0.542380 0.205455 0.037106
C20   C     C_R   0.608893 0.457620 0.794545 0.037106
C21   C     C_R   0.167598 0.879367 0.360536 -0.214168
C22   C     C_R   0.832402 0.120633 0.639463 -0.214168
C23   C     C_R   0.326321 0.528656 0.140944 -0.215080
C24   C     C_R   0.673679 0.471344 0.859056 -0.215080
C25   C     C_R   0.155672 0.910320 0.448958 -0.124666
C26   C     C_R   0.844328 0.089680 0.551041 -0.124666
C27   C     C_R   0.340090 0.510848 0.052159 -0.119961
C28   C     C_R   0.659910 0.489152 0.947841 -0.119961
C29   C     C_R   0.078169 0.953572 0.475511 0.072395
C30   C     C_R   0.921831 0.046428 0.524489 0.072395
C31   C     C_R   0.419585 0.505551 0.025140 0.072909
C32   C     C_R   0.580415 0.494449 0.974860 0.072909
C33   C     C_R   0.011766 0.966151 0.410043 0.026644
C34   C     C_R   0.988234 0.033849 0.589957 0.026644
C35   C     C_R   0.486164 0.518902 0.090386 0.024488
C36   C     C_R   0.513836 0.481098 0.909614 0.024488
C37   C     C_R   0.066507 0.987244 0.565491 -0.160624
C38   C     C_R   0.933492 0.012756 0.434508 -0.160624
C39   C     C_R   0.433316 0.486843 0.934729 -0.158625
C40   C     C_R   0.566683 0.513157 0.065271 -0.158625
C41   C     C_1   0.415992 0.986150 0.581450 -0.150069
C42   C     C_1   0.584008 0.013850 0.418550 -0.150069
C43   C     C_1   0.084017 0.486243 0.918555 -0.144617
C44   C     C_1   0.915983 0.513757 0.081445 -0.144616
H9    H     H_    0.976518 0.944643 0.269204 0.145094
H10   H     H_    0.023482 0.055357 0.730796 0.145094
H11   H     H_    0.519946 0.548277 0.231113 0.141695
H12   H     H_    0.480054 0.451723 0.768887 0.141695
C45   C     C_2   0.117504 0.858243 0.202340 0.351528
H13   H     H_    0.177967 0.824907 0.184797 0.038145
O21   O     O_2   0.062500 0.868390 0.143859 -0.526589
C46   C     C_2   0.882496 0.141757 0.797660 0.351529
H14   H     H_    0.822033 0.175092 0.815203 0.038145
O22   O     O_2   0.937500 0.131610 0.856140 -0.526589
C47   C     C_2   0.374691 0.561210 0.299240 0.355498
H15   H     H_    0.312730 0.560994 0.317403 0.036013
O23   O     O_2   0.429814 0.577061 0.357283 -0.522435
C48   C     C_2   0.625309 0.438790 0.700760 0.355498
H16   H     H_    0.687269 0.439005 0.682597 0.036013
O24   O     O_2   0.570186 0.422939 0.642717 -0.522435

loop_
_geom_bond_atom_site_label_1
_geom_bond_atom_site_label_2
_ccdc_geom_bond_type
C26   C30   A    
C47   H15   S    
C23   C27   A    
C20   C48   S    
C8    C37   S    
O10   C6    A    
C15   H11   S    
C45   H13   S    
C18   C46   S    
C30   C38   A    
C18   C22   A    
C32   C36   A    
H2    C26   S    
C46   O22   D    
C14   C34   A    
H6    C21   S    
C10   C42   T    
C34   C37   A    
O13   V1    S    
O3    V1    S    
C2    O16   A    
C33   C38   A    
O2    V4    S    
C1    O15   A    
C35   C40   A    
O8    V4    S    
C17   C45   S    
C9    C41   T    
C45   O21   D    
C12   C44   T    
O5    V1    S    
O19   V1    S    
C11   C43   T    
O11   C7    A    
O5    C1    A    
O7    C3    A    
O8    C4    A    
O1    C5    A    
C6    C39   S    
O9    V1    S    
H3    C27   S    
C15   C35   A    
O4    C8    A    
O4    V2    S    
O14   V2    S    
C31   C35   A    
C30   C34   A    
C4    C41   S    
C46   H14   S    
C19   C47   S    
C11   C12   S    
C14   H10   S    
C21   C25   A    
C15   C19   A    
O12   C8    A    
C19   C23   A    
O6    V2    S    
O20   V2    S    
C9    C10   S    
O6    C2    A    
C48   O24   D    
C1    C44   S    
C13   C17   A    
O2    C6    A    
C5    C40   S    
O16   V4    S    
C16   C36   A    
O10   V2    S    
C7    C38   S    
H4    C28   S    
C31   C39   A    
O15   V3    S    
C47   O23   D    
C13   C33   A    
O1    V3    S    
C22   C26   A    
C29   C37   A    
C14   C18   A    
C4    O14   A    
O7    V3    S    
C25   C29   A    
O17   V3    S    
C27   C31   A    
O18   V4    S    
C28   C32   A    
O9    C5    A    
C2    C43   S    
C16   H12   S    
O3    C7    A    
O11   V3    S    
H8    C23   S    
C48   H16   S    
C3    O13   A    
C36   C39   A    
C17   C21   A    
H1    C25   S    
C32   C40   A    
H5    C22   S    
O12   V4    S    
C29   C33   A    
H7    C24   S    
C16   C20   A    
C3    C42   S    
C24   C28   A    
C13   H9    S    
C20   C24   A    
