data_mof_unit_53467.cif
_audit_creation_date              2012-12-11T14:03:49-0500
_audit_creation_method            fapswitch 2.2
_symmetry_space_group_name_H-M    P1
_symmetry_Int_Tables_number       1
_space_group_crystal_system       triclinic
_cell_length_a                    19.119304
_cell_length_b                    10.942143
_cell_length_c                    18.712897
_cell_angle_alpha                 89.756159
_cell_angle_beta                  90.791951
_cell_angle_gamma                 90.050774
_cell_volume                      3914.44254068

loop_
_atom_site_label
_atom_site_type_symbol
_atom_type_description
_atom_site_fract_x
_atom_site_fract_y
_atom_site_fract_z
_atom_type_partial_charge
C1    C     C_R   0.238120 0.467630 0.646163 0.542506
C2    C     C_R   0.761010 0.464844 0.352382 0.547690
C3    C     C_R   0.738121 0.967627 0.646168 0.543393
C4    C     C_R   0.261021 0.964879 0.352408 0.546470
C5    C     C_2   0.295495 0.889006 0.543733 -0.106109
C6    C     C_2   0.698011 0.890848 0.454218 -0.094123
C7    C     C_2   0.795384 0.388960 0.543698 -0.106056
C8    C     C_2   0.198001 0.390764 0.454220 -0.093907
C9    C     C_R   0.008283 0.660094 0.424944 -0.009344
C10   C     C_R   0.993623 0.669700 0.574280 -0.005286
C11   C     C_R   0.508425 0.160079 0.424849 -0.008242
C12   C     C_R   0.493768 0.169694 0.574185 -0.006545
C13   C     C_R   0.038843 0.881229 0.423233 0.024340
C14   C     C_R   0.998274 0.898665 0.566311 0.034790
C15   C     C_R   0.539037 0.381147 0.423084 0.025309
C16   C     C_R   0.498513 0.398699 0.566173 0.034052
C17   C     C_R   0.044445 0.991647 0.459575 -0.146881
C18   C     C_R   0.021794 0.001384 0.529401 -0.154223
C19   C     C_R   0.544691 0.491578 0.459402 -0.146586
C20   C     C_R   0.522068 0.501372 0.529236 -0.154489
C21   C     C_R   0.002699 0.780719 0.534586 0.016818
C22   C     C_R   0.015705 0.774219 0.459824 0.008173
C23   C     C_R   0.502894 0.280717 0.534479 0.016016
C24   C     C_R   0.515886 0.274187 0.459714 0.008954
C25   C     C_R   0.983196 0.559459 0.537287 0.014053
C26   C     C_R   0.004944 0.551740 0.466528 0.012294
C27   C     C_R   0.483384 0.059430 0.537182 0.012902
C28   C     C_R   0.505142 0.051734 0.466428 0.013270
C29   C     C_R   0.957536 0.453269 0.571440 -0.070022
C30   C     C_R   0.017575 0.434468 0.437834 -0.078610
C31   C     C_R   0.457721 0.953208 0.571302 -0.070248
C32   C     C_R   0.517792 0.934490 0.437708 -0.078352
C33   C     C_R   0.963372 0.339306 0.539307 -0.127393
C34   C     C_R   0.995368 0.329666 0.473372 -0.130689
C35   C     C_R   0.463589 0.839258 0.539153 -0.127525
C36   C     C_R   0.495608 0.829660 0.473228 -0.130509
C37   C     C_2   0.210887 0.808302 0.937392 -0.049590
C38   C     C_2   0.789904 0.807841 0.062872 -0.048042
C39   C     C_2   0.710578 0.308197 0.937434 -0.047501
C40   C     C_2   0.289543 0.307945 0.062916 -0.050113
C41   C     C_2   0.246809 0.900676 0.083659 -0.081656
C42   C     C_2   0.753773 0.899589 0.916337 -0.087579
C43   C     C_2   0.746340 0.400159 0.083807 -0.085477
C44   C     C_2   0.253243 0.400220 0.916524 -0.083543
C45   C     C_R   0.228037 0.879916 0.650534 0.563129
C46   C     C_R   0.772616 0.878061 0.350741 0.563536
C47   C     C_R   0.728041 0.379931 0.650551 0.561708
C48   C     C_R   0.272612 0.378055 0.350743 0.565022
C49   C     C_2   0.181414 0.880363 0.059477 -0.134640
C50   C     C_2   0.819276 0.880315 0.940528 -0.133760
C51   C     C_2   0.680947 0.380192 0.059595 -0.131499
C52   C     C_2   0.318745 0.380387 0.940645 -0.136919
C53   C     C_2   0.166165 0.865393 0.982302 -0.058938
C54   C     C_2   0.834398 0.865992 0.017832 -0.060694
C55   C     C_2   0.665948 0.365796 0.982298 -0.060536
C56   C     C_2   0.334159 0.365458 0.017817 -0.059033
C57   C     C_2   0.985947 0.665534 0.912594 -0.119701
C58   C     C_2   0.981211 0.652887 0.069372 -0.122296
C59   C     C_2   0.518301 0.152278 0.930447 -0.123038
C60   C     C_2   0.513882 0.166333 0.087151 -0.116653
C61   C     C_2   0.964622 0.556916 0.025282 0.100404
C62   C     C_2   0.961683 0.566649 0.946837 0.119910
C63   C     C_2   0.538516 0.067530 0.053561 0.120535
C64   C     C_2   0.535629 0.057121 0.975173 0.099657
C65   C     C_R   0.026857 0.656467 0.646061 0.534830
C66   C     C_R   0.973572 0.654480 0.353621 0.550603
C67   C     C_R   0.526888 0.156469 0.646030 0.541522
C68   C     C_R   0.473601 0.154477 0.353591 0.543899
C69   C     C_R   0.239828 0.463062 0.849565 0.544268
C70   C     C_R   0.760047 0.463074 0.150554 0.541405
C71   C     C_R   0.739944 0.962867 0.849499 0.537048
C72   C     C_R   0.260150 0.963247 0.150497 0.548263
C73   C     C_R   0.206177 0.818479 0.858745 0.561833
C74   C     C_R   0.794007 0.818452 0.141445 0.559941
C75   C     C_R   0.706149 0.318516 0.858754 0.557850
C76   C     C_R   0.293974 0.318408 0.141455 0.563730
C77   C     C_R   0.025938 0.653012 0.847823 0.538475
C78   C     C_R   0.965061 0.650468 0.145475 0.549853
C79   C     C_R   0.534899 0.150150 0.854482 0.545719
C80   C     C_R   0.473984 0.153330 0.152054 0.542455
C81   C     C_2   0.254628 0.946945 0.589599 0.096538
C82   C     C_2   0.749623 0.938926 0.415380 0.115275
C83   C     C_2   0.754628 0.446968 0.589630 0.095647
C84   C     C_2   0.249578 0.438931 0.415366 0.115894
C85   C     C_2   0.254258 0.905994 0.421157 -0.004640
C86   C     C_2   0.744338 0.911257 0.576552 0.012472
C87   C     C_2   0.754228 0.405909 0.421103 -0.004901
C88   C     C_2   0.244343 0.411252 0.576545 0.012599
C89   C     C_2   0.301043 0.937513 0.471883 -0.107088
C90   C     C_2   0.691245 0.926682 0.528937 -0.109687
C91   C     C_2   0.800927 0.437556 0.471875 -0.107029
C92   C     C_2   0.191227 0.426579 0.528943 -0.110027
Cr1   Cr    Cr6+3 0.113970 0.508630 0.747920 1.022547
Cr2   Cr    Cr6+3 0.886030 0.508630 0.252080 1.018310
Cr3   Cr    Cr6+3 0.613970 0.008630 0.747920 1.017801
Cr4   Cr    Cr6+3 0.386030 0.008630 0.252080 1.023054
Cr5   Cr    Cr6+3 0.269200 0.666740 0.749850 1.054741
Cr6   Cr    Cr6+3 0.730800 0.666740 0.250150 1.046983
Cr7   Cr    Cr6+3 0.769200 0.166740 0.749850 1.052744
Cr8   Cr    Cr6+3 0.230800 0.166740 0.250150 1.048773
Cr9   Cr    Cr6+3 0.112300 0.820070 0.749800 1.056807
Cr10  Cr    Cr6+3 0.887700 0.820070 0.250200 1.057940
Cr11  Cr    Cr6+3 0.612300 0.320070 0.749800 1.058295
Cr12  Cr    Cr6+3 0.387700 0.320070 0.250200 1.056666
H1    H     H_    0.337748 0.011981 0.463114 0.168099
H2    H     H_    0.644366 0.976654 0.543112 0.156277
H3    H     H_    0.837530 0.512199 0.463166 0.167873
H4    H     H_    0.144298 0.476409 0.543139 0.156712
H5    H     H_    0.291795 0.891802 0.049556 0.126633
H6    H     H_    0.709283 0.890124 0.950883 0.126832
H7    H     H_    0.790899 0.391146 0.049342 0.125775
H8    H     H_    0.208307 0.391160 0.950732 0.127673
H9    H     H_    0.995670 0.741440 0.048861 0.080548
H10   H     H_    0.990831 0.753008 0.938531 0.088960
H11   H     H_    0.508597 0.253591 0.060627 0.088013
H12   H     H_    0.503075 0.240507 0.950369 0.080812
H13   H     H_    0.311687 0.795014 0.553111 0.137581
H14   H     H_    0.665668 0.816398 0.434342 0.116023
H15   H     H_    0.811476 0.294898 0.553015 0.137783
H16   H     H_    0.165718 0.316213 0.434369 0.116273
H17   H     H_    0.065718 0.071268 0.433057 0.114336
H18   H     H_    0.022658 0.089875 0.554962 0.109233
H19   H     H_    0.565966 0.571170 0.432857 0.114371
H20   H     H_    0.522959 0.589883 0.554776 0.109296
H21   H     H_    0.042750 0.423762 0.386746 0.137934
H22   H     H_    0.933867 0.458392 0.623624 0.135028
H23   H     H_    0.542943 0.923843 0.386601 0.135322
H24   H     H_    0.434011 0.958291 0.623466 0.138499
H25   H     H_    0.943978 0.258619 0.566157 0.113635
H26   H     H_    0.000866 0.241696 0.448485 0.108433
H27   H     H_    0.444195 0.758551 0.565982 0.113944
H28   H     H_    0.501132 0.741702 0.448330 0.108153
H29   H     H_    0.137634 0.898760 0.094370 0.165384
H30   H     H_    0.862989 0.899503 0.905582 0.161089
H31   H     H_    0.637157 0.398827 0.094425 0.163797
H32   H     H_    0.362448 0.399125 0.905597 0.162616
O1    O     O_R   0.043230 0.549300 0.667990 -0.522742
O2    O     O_R   0.956770 0.549300 0.332010 -0.519769
O3    O     O_R   0.543230 0.049300 0.667990 -0.517821
O4    O     O_R   0.456770 0.049300 0.332010 -0.524840
O5    O     O_R   0.262920 0.788600 0.824420 -0.489394
O6    O     O_R   0.737080 0.788600 0.175580 -0.484564
O7    O     O_R   0.762920 0.288600 0.824420 -0.486134
O8    O     O_R   0.237080 0.288600 0.175580 -0.488107
O9    O     O_R   0.167530 0.905110 0.830340 -0.491169
O10   O     O_R   0.832470 0.905110 0.169660 -0.490945
O11   O     O_R   0.667530 0.405110 0.830340 -0.492158
O12   O     O_R   0.332470 0.405110 0.169660 -0.489840
O13   O     O_R   0.054010 0.748440 0.822860 -0.503678
O14   O     O_R   0.945990 0.748440 0.177140 -0.497617
O15   O     O_R   0.554010 0.248440 0.822860 -0.498808
O16   O     O_R   0.445990 0.248440 0.177140 -0.502679
O17   O     O_3   0.165160 0.665150 0.749190 -0.285263
O18   O     O_3   0.834840 0.665150 0.250810 -0.288791
O19   O     O_3   0.665160 0.165150 0.749190 -0.287650
O20   O     O_3   0.334840 0.165150 0.250810 -0.286379
O21   O     O_R   0.178620 0.457600 0.674100 -0.509588
O22   O     O_R   0.821380 0.457600 0.325900 -0.501346
O23   O     O_R   0.678620 0.957600 0.674100 -0.507883
O24   O     O_R   0.321380 0.957600 0.325900 -0.502942
O25   O     O_R   0.284680 0.542100 0.669460 -0.486985
O26   O     O_R   0.715320 0.542100 0.330540 -0.497409
O27   O     O_R   0.784680 0.042100 0.669460 -0.486450
O28   O     O_R   0.215320 0.042100 0.330540 -0.498066
O29   O     O_R   0.262860 0.790390 0.676650 -0.509131
O30   O     O_R   0.737140 0.790390 0.323350 -0.509718
O31   O     O_R   0.762860 0.290390 0.676650 -0.510157
O32   O     O_R   0.237140 0.290390 0.323350 -0.508606
O33   O     O_R   0.167460 0.907030 0.670940 -0.511234
O34   O     O_R   0.832540 0.907030 0.329060 -0.512738
O35   O     O_R   0.667460 0.407030 0.670940 -0.511232
O36   O     O_R   0.332540 0.407030 0.329060 -0.512703
O37   O     O_R   0.053950 0.750220 0.675100 -0.488450
O38   O     O_R   0.946050 0.750220 0.324900 -0.484231
O39   O     O_R   0.553950 0.250220 0.675100 -0.485996
O40   O     O_R   0.446050 0.250220 0.324900 -0.486308
O41   O     O_R   0.043300 0.547370 0.827390 -0.519267
O42   O     O_R   0.956700 0.547370 0.172610 -0.523457
O43   O     O_R   0.543300 0.047370 0.827390 -0.522984
O44   O     O_R   0.456700 0.047370 0.172610 -0.520248
O45   O     O_R   0.178690 0.455820 0.821860 -0.496622
O46   O     O_R   0.821310 0.455820 0.178140 -0.519949
O47   O     O_R   0.678690 0.955820 0.821860 -0.518682
O48   O     O_R   0.321310 0.955820 0.178140 -0.497695
O49   O     O_R   0.284750 0.540170 0.828860 -0.495358
O50   O     O_R   0.715250 0.540170 0.171140 -0.490588
O51   O     O_R   0.784750 0.040170 0.828860 -0.491511
O52   O     O_R   0.215250 0.040170 0.171140 -0.494568
C93   C     C_1   0.103660 0.927175 0.956663 0.263726
N1    N     N_1   0.053927 0.977341 0.936299 -0.253869
C94   C     C_1   0.896179 0.929868 0.043378 0.262875
N2    N     N_1   0.945414 0.981441 0.063679 -0.248372
C95   C     C_1   0.603930 0.428881 0.956518 0.262485
N3    N     N_1   0.554510 0.479844 0.936030 -0.248760
C96   C     C_1   0.396505 0.427839 0.043205 0.263888
N4    N     N_1   0.446110 0.478468 0.063374 -0.253663
C97   C     C_1   0.263624 0.724888 0.965410 0.185774
N5    N     N_1   0.305996 0.659424 0.988020 -0.273166
C98   C     C_1   0.737724 0.723439 0.035072 0.198976
N6    N     N_1   0.695725 0.657405 0.012526 -0.263785
C99   C     C_1   0.762975 0.224269 0.965526 0.199783
N7    N     N_1   0.805114 0.158469 0.988238 -0.262151
C100  C     C_1   0.236933 0.224201 0.035207 0.185221
N8    N     N_1   0.194632 0.158609 0.012787 -0.274501
N9    N     N_3   0.952175 0.435188 0.051749 -0.561533
H33   H     H_    0.905688 0.431931 0.079890 0.269259
H34   H     H_    0.994859 0.405403 0.082701 0.263603
N10   N     N_3   0.938269 0.459982 0.908112 -0.553246
H35   H     H_    0.980283 0.399808 0.902682 0.276326
H36   H     H_    0.918535 0.484331 0.857603 0.240869
N11   N     N_3   0.562596 0.961632 0.093061 -0.553026
H37   H     H_    0.521025 0.900356 0.098637 0.275318
H38   H     H_    0.581868 0.986600 0.143533 0.242623
N12   N     N_3   0.549122 0.935723 0.949456 -0.561756
H39   H     H_    0.595451 0.934079 0.921053 0.268593
H40   H     H_    0.506641 0.904676 0.918753 0.263793
C101  C     C_1   0.207309 0.803818 0.430209 0.183850
N13   N     N_1   0.171017 0.720413 0.438173 -0.308711
C102  C     C_1   0.802589 0.832212 0.561841 0.202742
N14   N     N_1   0.847790 0.766330 0.549029 -0.321772
C103  C     C_1   0.707384 0.303564 0.430065 0.183648
N15   N     N_1   0.671166 0.220039 0.437942 -0.309968
C104  C     C_1   0.302690 0.332445 0.561770 0.203089
N16   N     N_1   0.347980 0.266778 0.548883 -0.320900
N17   N     N_3   0.227363 0.066357 0.572945 -0.613386
H41   H     H_    0.234356 0.120970 0.618184 0.237062
H42   H     H_    0.173583 0.058467 0.563213 0.243551
N18   N     N_3   0.790323 0.039762 0.442747 -0.606176
H43   H     H_    0.794460 0.105079 0.402124 0.243925
H44   H     H_    0.840912 0.008506 0.454326 0.242676
N19   N     N_3   0.727407 0.566426 0.573033 -0.613291
H45   H     H_    0.734353 0.620928 0.618320 0.236614
H46   H     H_    0.673639 0.558579 0.563239 0.243750
N20   N     N_3   0.290177 0.539933 0.442680 -0.606252
H47   H     H_    0.294187 0.605249 0.402035 0.244009
H48   H     H_    0.340823 0.508886 0.454218 0.242537
C105  C     C_1   0.065169 0.879088 0.351040 0.229547
N21   N     N_1   0.086198 0.877505 0.293334 -0.276443
C106  C     C_1   0.963006 0.920017 0.633034 0.230070
N22   N     N_1   0.934859 0.937288 0.686410 -0.279239
C107  C     C_1   0.565299 0.378917 0.350862 0.228453
N23   N     N_1   0.586271 0.377243 0.293133 -0.282188
C108  C     C_1   0.463208 0.420177 0.632858 0.230971
N24   N     N_1   0.435027 0.437566 0.686202 -0.275931

loop_
_geom_bond_atom_site_label_1
_geom_bond_atom_site_label_2
_ccdc_geom_bond_type
Cr10  O34   S    
C7    C83   D    
C100  N8    T    
Cr6   O18   S    
C6    C82   D    
C87   C91   D    
Cr3   O43   S    
C99   N7    T    
C14   C18   A    
Cr9   O37   S    
C35   C36   A    
C43   C51   D    
C2    O26   A    
N18   H44   S    
C68   O40   A    
Cr11  O11   S    
C57   C62   D    
Cr12  O40   S    
C73   O5    A    
N9    H33   S    
Cr5   O49   S    
C12   C23   A    
C19   H19   S    
C59   C64   D    
C50   C54   S    
C81   N17   S    
C60   C63   D    
Cr3   O23   S    
C84   N20   S    
C80   O44   A    
C14   C21   A    
Cr7   O7    S    
Cr8   O52   S    
C106  N22   T    
N17   H41   S    
C36   H28   S    
C14   C106  S    
N12   H40   S    
C9    C22   A    
C43   C70   S    
C33   H25   S    
C108  N24   T    
C29   C33   A    
C11   C24   A    
C5    C81   D    
C107  N23   T    
Cr2   O42   S    
C41   C49   D    
Cr12  O12   S    
C9    C66   S    
C72   O52   A    
C85   C101  S    
C105  N21   T    
C46   C82   S    
C51   H31   S    
C70   O46   A    
C39   C55   D    
C88   C92   D    
C67   O39   A    
C59   H12   S    
C40   C56   D    
Cr7   O19   S    
C58   H9    S    
C23   C24   A    
C4    O28   A    
C53   C93   S    
Cr9   O33   S    
C8    C92   S    
C47   C83   S    
C67   O3    A    
Cr10  O18   S    
Cr3   O19   S    
C61   C62   S    
Cr9   O9    S    
C3    O27   A    
Cr12  O36   S    
C65   O1    A    
C44   C52   D    
C58   C61   D    
C32   C36   A    
C74   O6    A    
C30   H21   S    
C1    O25   A    
C98   N6    T    
Cr2   O22   S    
C48   O36   A    
C21   C22   A    
Cr6   O6    S    
C3    C86   S    
C3    O23   A    
C93   N1    T    
C58   C78   S    
Cr1   O45   S    
C31   H24   S    
Cr4   O48   S    
Cr7   O51   S    
N18   H43   S    
Cr6   O26   S    
C92   H4    S    
C9    C26   A    
C17   C18   A    
Cr7   O31   S    
N9    H34   S    
C10   C21   A    
C25   C29   A    
C12   C67   S    
C54   C94   S    
C30   C34   A    
C12   C27   A    
C27   C31   A    
C94   N2    T    
C7    H15   S    
C28   C32   A    
C90   H2    S    
C104  N16   T    
Cr8   O28   S    
Cr8   O8    S    
C59   C79   S    
C102  N14   T    
C85   C89   D    
N12   H39   S    
N10   H35   S    
C34   H26   S    
C13   C105  S    
C4    C85   S    
C75   O11   A    
C62   N10   S    
C6    C90   S    
C82   N18   S    
Cr5   O17   S    
C64   N12   S    
C37   C97   S    
Cr12  O20   S    
C48   C84   S    
C5    H13   S    
C77   O41   A    
Cr2   O2    S    
C15   C19   A    
C103  N15   T    
C91   H3    S    
C56   C96   S    
C47   O31   A    
Cr10  O14   S    
C47   O35   A    
N11   H37   S    
C66   O2    A    
C40   C100  S    
Cr9   O17   S    
C16   C20   A    
C7    C91   S    
Cr11  O39   S    
C33   C34   A    
C88   C104  S    
C2    C87   S    
N19   H46   S    
C1    O21   A    
Cr4   O44   S    
Cr1   O21   S    
Cr5   O5    S    
Cr6   O30   S    
C46   O34   A    
C75   O7    A    
C18   H18   S    
C41   C72   S    
Cr7   O27   S    
C44   H8    S    
C10   C25   A    
Cr11  O19   S    
C15   C24   A    
C55   C95   S    
C42   C50   D    
C26   C30   A    
C16   C23   A    
C39   C75   S    
C39   C99   S    
C86   C90   D    
C52   H32   S    
C31   C35   A    
C68   O4    A    
Cr10  O38   S    
N20   H47   S    
C77   O13   A    
C69   O49   A    
C27   C28   A    
C11   C68   S    
C78   O14   A    
C79   O15   A    
C38   C74   S    
C10   C65   S    
C17   H17   S    
C80   O16   A    
C8    H16   S    
C49   H29   S    
C60   C80   S    
Cr1   O41   S    
C46   O30   A    
N11   H38   S    
C32   H23   S    
C78   O42   A    
C72   O48   A    
Cr3   O3    S    
C74   O10   A    
C45   C81   S    
C71   O51   A    
C76   O8    A    
C45   O33   A    
Cr4   O4    S    
C65   O37   A    
C87   C103  S    
C57   H10   S    
Cr11  O15   S    
N20   H48   S    
C19   C20   A    
C37   C73   S    
C13   C17   A    
Cr8   O32   S    
C89   H1    S    
Cr12  O16   S    
C57   C77   S    
Cr1   O17   S    
Cr4   O24   S    
C25   C26   A    
C35   H27   S    
C37   C53   D    
Cr6   O50   S    
C96   N4    T    
Cr10  O10   S    
C4    O24   A    
Cr2   O18   S    
C69   O45   A    
Cr11  O35   S    
Cr3   O47   S    
Cr4   O20   S    
C83   N19   S    
C11   C28   A    
C1    C88   S    
Cr5   O29   S    
C50   H30   S    
C101  N13   T    
Cr9   O13   S    
C42   C71   S    
N17   H42   S    
C13   C22   A    
C51   C55   S    
C86   C102  S    
C42   H6    S    
C97   N5    T    
C63   N11   S    
C20   H20   S    
C49   C53   S    
Cr1   O1    S    
C70   O50   A    
C63   C64   S    
C43   H7    S    
C16   C108  S    
C38   C54   D    
C79   O43   A    
C2    O22   A    
C76   O12   A    
N10   H36   S    
C95   N3    T    
C8    C84   D    
C40   C76   S    
C73   O9    A    
N19   H45   S    
C44   C69   S    
C38   C98   S    
C66   O38   A    
C60   H11   S    
C41   H5    S    
Cr2   O46   S    
C29   H22   S    
Cr8   O20   S    
C45   O29   A    
C48   O32   A    
C6    H14   S    
C5    C89   S    
C52   C56   S    
Cr5   O25   S    
C61   N9    S    
C15   C107  S    
C71   O47   A    
