data_mof_unit_12874.cif
_audit_creation_date              2012-12-11T18:04:38-0500
_audit_creation_method            fapswitch 2.2
_symmetry_space_group_name_H-M    P1
_symmetry_Int_Tables_number       1
_space_group_crystal_system       triclinic
_cell_length_a                    8.345656
_cell_length_b                    12.816167
_cell_length_c                    22.71726
_cell_angle_alpha                 96.122922
_cell_angle_beta                  89.112654
_cell_angle_gamma                 98.597471
_cell_volume                      2388.81295651

loop_
_atom_site_label
_atom_site_type_symbol
_atom_type_description
_atom_site_fract_x
_atom_site_fract_y
_atom_site_fract_z
_atom_type_partial_charge
Ba1   Ba    Ba6+2 0.856210 0.551220 0.472190 1.736020
Ba2   Ba    Ba6+2 0.333620 0.448870 0.527810 1.717030
C1    C     C_3   0.582533 0.870760 0.243883 -0.459048
C2    C     C_3   0.579350 0.805276 0.297082 0.249558
C3    C     C_3   0.483744 0.283540 0.347337 0.274268
C4    C     C_3   0.497317 0.255172 0.280761 -0.397911
C5    C     C_3   0.966685 0.195787 0.685756 0.352526
C6    C     C_3   0.906599 0.129975 0.735817 -0.313856
C7    C     C_3   0.466272 0.187471 0.697454 0.332094
C8    C     C_3   0.405762 0.110590 0.742614 -0.245462
C9    C     C_R   0.355465 0.498444 0.329416 -0.206543
C10   C     C_R   0.092486 0.578873 0.941848 -0.029147
C11   C     C_R   0.045023 0.575587 0.881799 0.599249
C12   C     C_3   0.048192 0.804191 0.319294 0.341075
C13   C     C_R   0.997256 0.385247 0.873483 0.598695
C14   C     C_R   0.040189 0.385912 0.933475 -0.018053
C15   C     C_R   0.088342 0.483285 0.967824 -0.053305
C16   C     C_R   0.142921 0.675465 0.976772 -0.067979
C17   C     C_R   0.188363 0.677076 0.036020 -0.062998
C18   C     C_R   0.184020 0.582173 0.062540 -0.014711
C19   C     C_R   0.133033 0.484911 0.028323 -0.052385
C20   C     C_R   0.036150 0.290946 0.959862 -0.060674
C21   C     C_R   0.078003 0.292571 0.019325 -0.068989
C22   C     C_R   0.126891 0.389163 0.054307 -0.026578
C23   C     C_3   0.020516 0.853784 0.262184 -0.234773
C24   C     C_R   0.170479 0.392073 0.114529 0.591183
C25   C     C_R   0.229353 0.582293 0.122417 0.603048
C26   C     C_2   0.799496 0.419683 0.768257 -0.098380
C27   C     C_3   0.763335 0.392633 0.702778 -0.075607
C28   C     C_1   0.008049 0.518717 0.684696 0.027473
C29   C     C_2   0.053778 0.526739 0.741206 -0.088373
C30   C     C_2   0.944164 0.475825 0.786664 0.213212
C31   C     C_R   0.428014 0.527604 0.228252 -0.135784
C32   C     C_R   0.470718 0.532992 0.288301 -0.003636
C33   C     C_R   0.197012 0.459296 0.312295 -0.020245
C34   C     C_3   0.242890 0.779382 0.602196 0.342705
C35   C     C_R   0.151900 0.454813 0.252391 -0.116198
C36   C     C_R   0.267403 0.489301 0.209690 0.238153
C37   C     C_2   0.872948 0.459756 0.663759 -0.270222
C38   C     C_R   0.772948 0.178681 0.516413 -0.184881
C39   C     C_R   0.430548 0.815454 0.483064 -0.224222
C40   C     C_R   0.401823 0.992643 0.465163 -0.107132
C41   C     C_R   0.338162 0.885537 0.463437 0.013876
C42   C     C_R   0.577038 0.851698 0.512349 0.078054
C43   C     C_R   0.641001 0.962793 0.519165 -0.026923
C44   C     C_R   0.553988 0.032792 0.491681 -0.035031
C45   C     C_3   0.317897 0.891301 0.626360 -0.384587
C46   C     C_R   0.620806 0.141271 0.491729 0.067408
C47   C     C_R   0.857897 0.112998 0.544490 -0.002298
C48   C     C_R   0.788250 0.008038 0.550124 -0.110504
C49   C     C_3   0.950034 0.220268 0.315735 0.287179
C50   C     C_3   0.082793 0.180870 0.276443 -0.429094
C51   C     C_3   0.719009 0.683759 0.645807 0.284715
C52   C     C_3   0.733146 0.708784 0.713014 -0.265877
H1    H     H_    0.430506 0.888312 0.651056 0.113895
H2    H     H_    0.347230 0.941758 0.589898 0.052504
H3    H     H_    0.233023 0.928811 0.656869 0.166463
H4    H     H_    0.886733 0.272662 0.291392 -0.047045
H5    H     H_    0.166307 0.248695 0.262300 0.116184
H6    H     H_    0.029773 0.132779 0.235862 0.109454
H7    H     H_    0.151916 0.131867 0.301078 0.142638
H8    H     H_    0.839011 0.670766 0.627861 0.017284
H9    H     H_    0.630851 0.610734 0.634920 0.074791
H10   H     H_    0.528438 0.943746 0.255825 0.109982
H11   H     H_    0.768683 0.640413 0.732903 0.042282
H12   H     H_    0.827596 0.778698 0.723981 0.112291
H13   H     H_    0.517485 0.823858 0.205134 0.174024
H14   H     H_    0.356899 0.294466 0.358255 0.020125
H15   H     H_    0.567671 0.358248 0.359762 0.040235
H16   H     H_    0.431169 0.174627 0.267538 0.160083
H17   H     H_    0.446553 0.313086 0.256405 0.080924
H18   H     H_    0.625454 0.256386 0.267563 0.097819
H19   H     H_    0.706289 0.896773 0.228448 0.126178
H20   H     H_    0.028291 0.274673 0.704884 0.077922
H21   H     H_    0.858105 0.206470 0.660678 -0.121619
H22   H     H_    0.008227 0.122758 0.765217 0.146075
H23   H     H_    0.814876 0.168594 0.762325 0.122588
H24   H     H_    0.848354 0.049713 0.717792 0.100178
H25   H     H_    0.599952 0.192558 0.695538 -0.100563
H26   H     H_    0.416401 0.154402 0.653135 0.061095
H27   H     H_    0.451445 0.034150 0.730685 0.036028
H28   H     H_    0.931257 0.781148 0.340458 0.137445
H29   H     H_    0.271653 0.095506 0.742556 0.110869
H30   H     H_    0.072373 0.217595 0.037792 0.125662
H31   H     H_    0.999620 0.214692 0.934622 0.125880
H32   H     H_    0.226527 0.753239 0.061130 0.125296
H33   H     H_    0.516732 0.558296 0.196730 0.105798
H34   H     H_    0.147654 0.750411 0.958350 0.126897
H35   H     H_    0.173010 0.567798 0.754602 0.127440
H36   H     H_    0.717650 0.381551 0.799794 0.108533
H37   H     H_    0.028306 0.424767 0.238976 0.095550
H38   H     H_    0.388897 0.505403 0.375687 0.071912
H39   H     H_    0.097715 0.729146 0.309274 0.031902
H40   H     H_    0.850739 0.444103 0.616484 0.074727
H41   H     H_    0.331618 0.042739 0.444463 0.121130
H42   H     H_    0.826517 0.260311 0.513568 0.057012
H43   H     H_    0.383206 0.731605 0.478027 0.071510
H44   H     H_    0.929703 0.907218 0.272663 0.063291
H45   H     H_    0.340985 0.736355 0.583918 -0.009191
H46   H     H_    0.154315 0.783627 0.566879 0.026829
N1    N     N_R   0.996421 0.479322 0.848270 -0.425291
N2    N     N_R   0.221126 0.487937 0.147976 -0.424230
O1    O     O_2   0.890290 0.440320 0.360790 -0.474448
O2    O     O_3   0.668761 0.769864 0.622102 -0.653390
O3    O     O_3   0.147199 0.877373 0.358407 -0.612412
O4    O     O_2   0.299410 0.559720 0.639240 -0.450774
O5    O     O_3   0.058870 0.558650 0.568170 -0.508264
O6    O     O_3   0.517310 0.362160 0.604450 -0.480471
O7    O     O_3   0.163332 0.729477 0.648374 -0.616073
O8    O     O_3   0.614910 0.369290 0.471050 -0.487733
O9    O     O_3   0.099190 0.306290 0.575790 -0.472140
O10   O     O_2   0.198060 0.120166 0.544958 -0.483277
O11   O     O_3   0.078245 0.144683 0.650729 -0.602539
O12   O     O_3   0.130840 0.441440 0.431840 -0.453377
O13   O     O_3   0.574800 0.630800 0.528960 -0.495024
O14   O     O_2   0.344900 0.234690 0.472540 -0.452051
O15   O     O_3   0.524693 0.200264 0.376249 -0.629458
O16   O     O_2   0.483007 0.488559 0.704093 -0.486736
O17   O     O_3   0.414803 0.286423 0.713731 -0.571744
O18   O     O_2   0.045212 0.658443 0.859705 -0.584742
O19   O     O_2   0.961957 0.300355 0.843442 -0.618680
O20   O     O_2   0.165023 0.309116 0.137014 -0.598551
O21   O     O_2   0.275133 0.666580 0.151893 -0.622775
O22   O     O_3   0.672400 0.637930 0.395560 -0.433556
O23   O     O_2   0.806618 0.561212 0.294708 -0.498952
O24   O     O_3   0.015454 0.270298 0.370255 -0.584774
O25   O     O_3   0.693785 0.734125 0.285158 -0.620945
O26   O     O_2   0.844800 0.765340 0.527490 -0.465271
O27   O     O_3   0.090520 0.693800 0.424220 -0.463269
O28   O     O_2   0.003399 0.886275 0.460906 -0.439741
P1    P     P_3+3 0.057140 0.408270 0.369700 1.021303
P2    P     P_3+3 0.667360 0.749400 0.544670 0.989851
P3    P     P_3+3 0.140584 0.833618 0.429123 1.048048
P4    P     P_3+3 0.132580 0.591820 0.630310 0.993196
P5    P     P_3+3 0.058880 0.169843 0.577116 1.003668
P6    P     P_3+3 0.658993 0.613459 0.317430 1.009530
P7    P     P_3+3 0.527329 0.235745 0.452791 0.988579
P8    P     P_3+3 0.545623 0.384138 0.681498 0.962564
C53   C     C_2   0.623918 0.880904 0.351833 0.556643
H47   H     H_    0.562720 0.949852 0.360732 -0.011850
O29   O     O_2   0.723063 0.865050 0.387325 -0.547651
C54   C     C_2   0.829753 0.126065 0.327773 0.581558
H48   H     H_    0.748604 0.086043 0.292928 -0.104990
O30   O     O_2   0.823657 0.093087 0.376335 -0.563169
C55   C     C_1   0.578399 0.731587 0.739177 0.366291
N3    N     N_1   0.456422 0.749564 0.759703 -0.264051
C56   C     C_2   0.409646 0.751297 0.303476 0.340198
H49   H     H_    0.331819 0.730601 0.264997 0.046698
O31   O     O_2   0.362934 0.722012 0.350920 -0.648452
C57   C     C_1   0.162253 0.920252 0.240465 0.286174
N4    N     N_1   0.269638 0.974614 0.221701 -0.302314
C58   C     C_1   0.463691 0.153083 0.802364 0.327923
N5    N     N_1   0.509467 0.186673 0.849418 -0.272378
C59   C     C_1   0.866233 0.956673 0.592713 0.328111
N6    N     N_1   0.932564 0.918768 0.627402 -0.284075
C60   C     C_1   0.962962 0.771780 0.213838 0.331133
N7    N     N_1   0.917130 0.707287 0.175790 -0.258280

loop_
_geom_bond_atom_site_label_1
_geom_bond_atom_site_label_2
_ccdc_geom_bond_type
C8    H27   S    
C51   H9    S    
O12   P1    S    
C8    H29   S    
C17   C18   A    
Ba1   O26   S    
Ba1   P2    S    
C55   N3    T    
C5    C6    S    
C52   H11   S    
C1    H10   S    
C4    H18   S    
C27   P8    S    
Ba2   P4    S    
C46   P7    S    
C43   C48   A    
O3    P3    S    
C60   N7    T    
C56   O31   D    
C22   C24   A    
C16   C17   A    
O5    P4    S    
Ba1   O27   S    
C50   H7    S    
C40   C44   A    
C28   C29   D    
C51   O2    S    
C38   C47   A    
Ba2   O5    S    
C6    H22   S    
C34   C45   S    
C38   C46   A    
Ba1   Ba2   S    
C7    H25   S    
C20   H31   S    
C41   P3    S    
C3    H15   S    
C50   H6    S    
C8    C58   S    
Ba2   O14   S    
C9    H38   S    
C12   O3    S    
Ba2   O8    S    
C56   H49   S    
C40   C41   A    
C14   C15   A    
C29   H35   S    
C10   C15   A    
C21   C22   A    
C7    C8    S    
Ba1   O1    S    
C12   H39   S    
C17   H32   S    
C47   P5    S    
C23   C60   S    
C6    H24   S    
C39   C41   A    
C38   H42   S    
C3    H14   S    
O26   P2    D    
C5    H20   S    
O13   P2    S    
O8    P7    S    
C4    H17   S    
C44   C46   A    
Ba2   O9    S    
C25   O21   D    
C21   H30   S    
O22   P6    S    
C40   H41   S    
C26   C30   D    
O25   P6    S    
C35   H37   S    
C5    H21   S    
C28   P4    S    
C51   C52   S    
C2    C56   S    
Ba2   O4    S    
C16   H34   S    
C49   C50   S    
C3    O15   S    
C23   C57   S    
C7    H26   S    
C37   H40   S    
C35   C36   A    
C50   H5    S    
Ba1   O8    S    
C45   H3    S    
Ba2   O13   S    
C29   C30   S    
C32   P6    S    
C27   C37   S    
C31   C32   A    
C34   H46   S    
C49   H4    S    
C13   N1    Am   
C59   N6    T    
Ba2   O12   S    
Ba1   O5    S    
C52   C55   S    
O27   P3    S    
O23   P6    D    
O11   P5    S    
C6    H23   S    
C7    O17   S    
C39   C42   A    
C54   O30   D    
O28   P3    D    
Ba1   O12   S    
C12   H28   S    
O10   P5    D    
C11   N1    Am   
C1    C2    S    
C33   P1    S    
C11   O18   D    
C42   C43   A    
C45   H1    S    
O14   P7    D    
C49   C54   S    
C4    H16   S    
C26   C27   S    
C14   C20   A    
C13   O19   D    
C2    O25   S    
C33   C35   A    
O7    P4    S    
C20   C21   A    
O17   P8    S    
C9    C32   A    
O15   P7    S    
C49   O24   S    
C53   H47   S    
C52   H12   S    
C18   C25   A    
C42   P2    S    
C24   O20   D    
C25   N2    Am   
C31   C36   A    
C57   N4    T    
C5    O11   S    
C9    C33   A    
C31   H33   S    
Ba1   O22   S    
C36   N2    S    
C24   N2    Am   
C2    C53   S    
O6    P8    S    
C53   O29   D    
O9    P5    S    
C3    C4    S    
C1    H13   S    
O24   P1    S    
C48   C59   S    
Ba1   P1    S    
Ba2   O6    S    
C28   C37   D    
C34   H45   S    
C39   H43   S    
C12   C23   S    
C1    H19   S    
C15   C19   A    
C43   C44   A    
C23   H44   S    
O4    P4    D    
C10   C11   A    
C51   H8    S    
C18   C19   A    
C47   C48   A    
O2    P2    S    
C19   C22   A    
C10   C16   A    
C34   O7    S    
C54   H48   S    
C30   N1    S    
C26   H36   S    
C58   N5    T    
Ba1   O13   S    
O16   P8    D    
O1    P1    D    
C13   C14   A    
C45   H2    S    
