data_mof_unit_54854.cif
_audit_creation_date              2012-12-11T14:47:37-0500
_audit_creation_method            fapswitch 2.2
_symmetry_space_group_name_H-M    P1
_symmetry_Int_Tables_number       1
_space_group_crystal_system       triclinic
_cell_length_a                    19.464939
_cell_length_b                    6.969017
_cell_length_c                    19.464282
_cell_angle_alpha                 90.000111
_cell_angle_beta                  95.797111
_cell_angle_gamma                 90.0
_cell_volume                      2626.85555535

loop_
_atom_site_label
_atom_site_type_symbol
_atom_type_description
_atom_site_fract_x
_atom_site_fract_y
_atom_site_fract_z
_atom_type_partial_charge
O1    O     O_R   0.673510 0.377480 0.186100 -0.538303
O2    O     O_R   0.326490 0.622520 0.813900 -0.537791
O3    O     O_R   0.826490 0.877480 0.313900 -0.538303
O4    O     O_R   0.173510 0.122520 0.686100 -0.537791
O5    O     O_R   0.807790 0.705750 0.184090 -0.524251
O6    O     O_R   0.192210 0.294250 0.815910 -0.525482
O7    O     O_R   0.692210 0.205750 0.315910 -0.524251
O8    O     O_R   0.307790 0.794250 0.684090 -0.525482
C1    C     C_1   0.478144 0.994617 0.521209 -0.005922
C2    C     C_1   0.521881 0.005524 0.478803 -0.005894
C3    C     C_1   0.021856 0.494617 0.978791 -0.005922
C4    C     C_1   0.978119 0.505524 0.021197 -0.005893
C5    C     C_R   0.830838 0.538242 0.166232 0.722437
C6    C     C_R   0.169042 0.461781 0.833644 0.711899
C7    C     C_R   0.669162 0.038242 0.333768 0.722438
C8    C     C_R   0.330958 0.961781 0.666356 0.711899
O9    O     O_R   0.672870 0.707110 0.178120 -0.535343
O10   O     O_R   0.327130 0.292890 0.821880 -0.533664
O11   O     O_R   0.827130 0.207110 0.321880 -0.535344
O12   O     O_R   0.172870 0.792890 0.678120 -0.533664
O13   O     O_R   0.690610 0.878650 0.307880 -0.523097
O14   O     O_R   0.309390 0.121350 0.692120 -0.522465
O15   O     O_R   0.809390 0.378650 0.192120 -0.523097
O16   O     O_R   0.190610 0.621350 0.807880 -0.522464
C9    C     C_R   0.649478 0.538110 0.159262 0.700061
C10   C     C_R   0.350969 0.461613 0.840110 0.705373
C11   C     C_R   0.850522 0.038110 0.340738 0.700061
C12   C     C_R   0.149031 0.961613 0.659890 0.705373
C13   C     C_1   0.382893 0.971948 0.614277 -0.219798
C14   C     C_1   0.617139 0.028247 0.385750 -0.218713
C15   C     C_1   0.117107 0.471949 0.885723 -0.219798
C16   C     C_1   0.882861 0.528247 0.114250 -0.218713
O17   O     O_3   0.755980 0.544260 0.292580 -0.361945
O18   O     O_3   0.244020 0.455740 0.707420 -0.359778
O19   O     O_3   0.744020 0.044260 0.207420 -0.361944
O20   O     O_3   0.255980 0.955740 0.792580 -0.359778
V1    V     V_3+5 0.748890 0.818640 0.242100 1.393790
V2    V     V_3+5 0.251110 0.181360 0.757900 1.398065
V3    V     V_3+5 0.751110 0.318640 0.257900 1.393789
V4    V     V_3+5 0.248890 0.681360 0.742100 1.398065
C17   C     C_R   0.088704 0.968073 0.606716 -0.081665
C18   C     C_R   0.910952 0.031633 0.394010 -0.079317
C19   C     C_R   0.411296 0.468074 0.893284 -0.081665
C20   C     C_R   0.589047 0.531632 0.105991 -0.079316
C21   C     C_1   0.426346 0.981928 0.571562 -0.000324
C22   C     C_1   0.573654 0.018277 0.428433 -0.004887
C23   C     C_1   0.073654 0.481928 0.928438 -0.000324
C24   C     C_1   0.926346 0.518277 0.071567 -0.004887
C25   C     C_R   0.027780 0.143018 0.427891 -0.191261
C26   C     C_R   0.970441 0.866364 0.574708 -0.192944
C27   C     C_R   0.472219 0.643014 0.072109 -0.191261
C28   C     C_R   0.529560 0.366367 0.925291 -0.192945
C29   C     C_R   0.969363 0.136020 0.380566 -0.199353
C30   C     C_R   0.028498 0.876389 0.622432 -0.209354
C31   C     C_R   0.530636 0.636016 0.119435 -0.199352
C32   C     C_R   0.471502 0.376392 0.877568 -0.209355
C33   C     C_R   0.910395 0.935029 0.458439 0.030948
C34   C     C_R   0.090918 0.052828 0.540464 0.081454
C35   C     C_R   0.589605 0.435032 0.041561 0.030949
C36   C     C_R   0.409082 0.552826 0.959536 0.081454
C37   C     C_R   0.969808 0.948716 0.508447 0.104810
C38   C     C_R   0.030087 0.048549 0.492097 0.105928
C39   C     C_R   0.530192 0.448717 0.991553 0.104811
C40   C     C_R   0.469913 0.548547 0.007904 0.105927
H1    H     H_    0.026445 0.810442 0.672631 0.122736
H2    H     H_    0.970019 0.212582 0.332151 0.122276
H3    H     H_    0.473555 0.310445 0.827369 0.122735
H4    H     H_    0.529980 0.712576 0.167851 0.122276
H5    H     H_    0.070652 0.226472 0.413197 0.124696
H6    H     H_    0.925995 0.794787 0.591654 0.133087
H7    H     H_    0.429347 0.726466 0.086804 0.124696
H8    H     H_    0.574006 0.294791 0.908345 0.133087
C41   C     C_3   0.158924 0.134268 0.520163 -0.366478
C42   C     C_3   0.191649 0.005528 0.468043 -0.333443
C43   C     C_3   0.211068 0.807249 0.497491 -0.701412
H9    H     H_    0.246076 0.820682 0.545835 0.217084
H10   H     H_    0.164152 0.726375 0.508181 0.225559
H11   H     H_    0.238020 0.724652 0.459471 0.202222
H12   H     H_    0.156370 0.987583 0.420040 0.197165
H13   H     H_    0.239244 0.076711 0.453636 0.186088
H14   H     H_    0.150652 0.281105 0.498872 0.139240
H15   H     H_    0.197840 0.154466 0.565088 0.175583
C44   C     C_3   0.846040 0.825835 0.474542 -0.383006
C45   C     C_3   0.798555 0.954045 0.512922 -0.321909
C46   C     C_3   0.735926 0.842542 0.532469 -0.754586
H16   H     H_    0.706514 0.781603 0.485635 0.231755
H17   H     H_    0.752635 0.724128 0.568551 0.224984
H18   H     H_    0.701441 0.940122 0.558255 0.222195
H19   H     H_    0.827119 0.012542 0.560670 0.200321
H20   H     H_    0.780423 0.076645 0.479278 0.187703
H21   H     H_    0.816431 0.770658 0.427251 0.194343
H22   H     H_    0.860135 0.693178 0.504145 0.170588
C47   C     C_3   0.341076 0.634265 0.979838 -0.366478
C48   C     C_3   0.308351 0.505522 0.031957 -0.333444
C49   C     C_3   0.288932 0.307244 0.002508 -0.701412
H23   H     H_    0.253924 0.320677 0.954164 0.217085
H24   H     H_    0.335848 0.226371 0.991817 0.225560
H25   H     H_    0.261980 0.224645 0.040527 0.202222
H26   H     H_    0.343629 0.487576 0.079960 0.197165
H27   H     H_    0.260756 0.576703 0.046364 0.186089
H28   H     H_    0.349347 0.781101 0.001130 0.139240
H29   H     H_    0.302160 0.654463 0.934912 0.175582
C50   C     C_3   0.653961 0.325843 0.025457 -0.383007
C51   C     C_3   0.701443 0.454057 0.987075 -0.321911
C52   C     C_3   0.764073 0.342559 0.967527 -0.754589
H30   H     H_    0.793486 0.281620 0.014359 0.231756
H31   H     H_    0.747364 0.224144 0.931445 0.224984
H32   H     H_    0.798556 0.440141 0.941740 0.222195
H33   H     H_    0.672878 0.512553 0.939328 0.200322
H34   H     H_    0.719576 0.576657 0.020719 0.187704
H35   H     H_    0.683571 0.270670 0.072747 0.194341
H36   H     H_    0.639867 0.193185 0.995853 0.170589

loop_
_geom_bond_atom_site_label_1
_geom_bond_atom_site_label_2
_ccdc_geom_bond_type
C34   C38   A    
C1    C21   S    
C47   C48   S    
O5    V1    S    
C41   C42   S    
C5    C16   S    
C3    C23   S    
C49   H23   S    
O10   C10   A    
C6    C15   S    
C4    C24   S    
C31   H4    S    
C49   H25   S    
C30   H1    S    
C46   H16   S    
C44   H22   S    
C52   H31   S    
O17   V3    S    
C45   H20   S    
O18   V4    S    
O19   V1    S    
C17   C34   A    
C18   C29   A    
C51   H33   S    
O12   V4    S    
C25   C29   A    
C20   C35   A    
O14   V2    S    
C12   C17   S    
C5    O15   A    
C50   H35   S    
C6    O16   A    
C2    C22   S    
C33   C44   S    
O11   C11   A    
C1    C2    T    
O5    C5    A    
C36   C47   S    
C25   H5    S    
O7    C7    A    
O8    C8    A    
C15   C23   T    
O1    C9    A    
C16   C24   T    
C48   C49   S    
C27   H7    S    
C18   C33   A    
C41   H14   S    
C51   C52   S    
O4    C12   A    
C10   C19   S    
C46   H17   S    
C52   H32   S    
C42   C43   S    
O20   V4    S    
C9    C20   S    
C45   C46   S    
C47   H28   S    
O12   C12   A    
C8    C13   S    
O17   V1    S    
C13   C21   T    
C50   H36   S    
O19   V3    S    
C43   H9    S    
C28   H8    S    
O6    C6    A    
C44   C45   S    
C48   H27   S    
O6    V2    S    
O2    C10   A    
O9    V1    S    
C29   H2    S    
C43   H10   S    
O11   V3    S    
C19   C36   A    
O4    V2    S    
C42   H12   S    
C45   H19   S    
C41   H15   S    
C7    C14   S    
C46   H18   S    
C8    O14   A    
C25   C38   A    
O18   V2    S    
C14   C22   T    
C27   C40   A    
C28   C39   A    
C47   H29   S    
C3    C4    T    
C49   H24   S    
C33   C37   A    
C32   H3    S    
C44   H21   S    
C52   H30   S    
C35   C39   A    
C36   C40   A    
C35   C50   S    
O3    C11   A    
O10   V2    S    
O9    C9    A    
C26   C30   A    
C51   H34   S    
C11   C18   S    
C48   H26   S    
O15   V3    S    
O20   V2    S    
O16   V4    S    
C20   C31   A    
C27   C31   A    
C26   H6    S    
C37   C38   A    
C43   H11   S    
C17   C30   A    
O1    V3    S    
C39   C40   A    
O2    V4    S    
C19   C32   A    
C7    O13   A    
O13   V1    S    
O3    V1    S    
C50   C51   S    
C26   C37   A    
O7    V3    S    
C42   H13   S    
O8    V4    S    
C28   C32   A    
C34   C41   S    
