data_mof_unit_43554.cif
_audit_creation_date              2012-12-11T15:08:57-0500
_audit_creation_method            fapswitch 2.2
_symmetry_space_group_name_H-M    P1
_symmetry_Int_Tables_number       1
_space_group_crystal_system       triclinic
_cell_length_a                    21.898482
_cell_length_b                    21.849391
_cell_length_c                    23.044646
_cell_angle_alpha                 90.0
_cell_angle_beta                  90.606548
_cell_angle_gamma                 89.999985
_cell_volume                      11025.5192638

loop_
_atom_site_label
_atom_site_type_symbol
_atom_type_description
_atom_site_fract_x
_atom_site_fract_y
_atom_site_fract_z
_atom_type_partial_charge
C1    C     C_R   0.934168 0.138485 0.107838 -0.067904
C2    C     C_R   0.080449 0.846029 0.912358 -0.136921
C3    C     C_R   0.152696 0.078977 0.090692 -0.176533
C4    C     C_R   0.861721 0.935568 0.891406 -0.064680
C5    C     C_R   0.065093 0.863230 0.109102 -0.142391
C6    C     C_R   0.920261 0.151509 0.907079 -0.091699
C7    C     C_R   0.846707 0.918783 0.088569 -0.112849
C8    C     C_R   0.140332 0.067182 0.894255 -0.062432
C9    C     C_R   0.934905 0.863229 0.890899 -0.142412
C10   C     C_R   0.079738 0.151509 0.092921 -0.091675
C11   C     C_R   0.153291 0.918786 0.911425 -0.112856
C12   C     C_R   0.859671 0.067180 0.105747 -0.062446
C13   C     C_R   0.065832 0.138486 0.892163 -0.067907
C14   C     C_R   0.919548 0.846025 0.087635 -0.136964
C15   C     C_R   0.847304 0.078977 0.909308 -0.176510
C16   C     C_R   0.138278 0.935567 0.108594 -0.064691
C17   C     C_R   0.434168 0.638486 0.607837 -0.067907
C18   C     C_R   0.580452 0.346026 0.412364 -0.136961
C19   C     C_R   0.652696 0.578977 0.590691 -0.176510
C20   C     C_R   0.361722 0.435567 0.391406 -0.064691
C21   C     C_R   0.565095 0.363229 0.609101 -0.142413
C22   C     C_R   0.420262 0.651509 0.407078 -0.091674
C23   C     C_R   0.346709 0.418786 0.588575 -0.112855
C24   C     C_R   0.640330 0.567180 0.394253 -0.062443
C25   C     C_R   0.434907 0.363230 0.390898 -0.142391
C26   C     C_R   0.579739 0.651509 0.592921 -0.091702
C27   C     C_R   0.653293 0.418783 0.411430 -0.112853
C28   C     C_R   0.359668 0.567183 0.605745 -0.062429
C29   C     C_R   0.565832 0.638486 0.392163 -0.067908
C30   C     C_R   0.419551 0.346029 0.587642 -0.136919
C31   C     C_R   0.347304 0.578977 0.409308 -0.176533
C32   C     C_R   0.638279 0.435568 0.608594 -0.064679
C33   C     C_R   0.796955 0.758778 0.809720 -0.152465
C34   C     C_R   0.265771 0.233801 0.153268 -0.150176
C35   C     C_R   0.734224 0.233793 0.846729 -0.150180
C36   C     C_R   0.203035 0.758773 0.190284 -0.152472
C37   C     C_R   0.223490 0.229788 0.811649 -0.074234
C38   C     C_R   0.782320 0.724785 0.161620 -0.084781
C39   C     C_R   0.217657 0.724785 0.838361 -0.084781
C40   C     C_R   0.776499 0.229771 0.188355 -0.074242
C41   C     C_R   0.296965 0.258773 0.309716 -0.152472
C42   C     C_R   0.765776 0.733793 0.653271 -0.150179
C43   C     C_R   0.234228 0.733800 0.346732 -0.150178
C44   C     C_R   0.703044 0.258778 0.690280 -0.152464
C45   C     C_R   0.723502 0.729771 0.311645 -0.074243
C46   C     C_R   0.282344 0.224785 0.661639 -0.084780
C47   C     C_R   0.717680 0.224786 0.338379 -0.084781
C48   C     C_R   0.276510 0.729788 0.688351 -0.074235
C49   C     C_R   0.238497 0.165357 0.300035 -0.049610
C50   C     C_R   0.844348 0.812149 0.661783 -0.070436
C51   C     C_R   0.155660 0.812160 0.338221 -0.070433
C52   C     C_R   0.761516 0.165363 0.699959 -0.049607
C53   C     C_R   0.798955 0.809827 0.303123 -0.123257
C54   C     C_R   0.219512 0.134005 0.676308 -0.136455
C55   C     C_R   0.780528 0.134017 0.323714 -0.136422
C56   C     C_R   0.201069 0.809855 0.696869 -0.123280
C57   C     C_R   0.738481 0.665365 0.800041 -0.049615
C58   C     C_R   0.344339 0.312161 0.161779 -0.070436
C59   C     C_R   0.655652 0.312150 0.838217 -0.070435
C60   C     C_R   0.261503 0.665357 0.199964 -0.049606
C61   C     C_R   0.298930 0.309856 0.803131 -0.123283
C62   C     C_R   0.719472 0.634016 0.176287 -0.136422
C63   C     C_R   0.280488 0.634005 0.823692 -0.136455
C64   C     C_R   0.701046 0.309827 0.196875 -0.123260
C65   C     C_R   0.836121 0.812052 0.722917 -0.117231
C66   C     C_R   0.229627 0.179767 0.240648 -0.078285
C67   C     C_R   0.770379 0.179769 0.759348 -0.078281
C68   C     C_R   0.163881 0.812057 0.277086 -0.117225
C69   C     C_R   0.208635 0.153950 0.733841 -0.116194
C70   C     C_R   0.801088 0.797326 0.242691 -0.096075
C71   C     C_R   0.198920 0.797343 0.757299 -0.096067
C72   C     C_R   0.791389 0.153953 0.266175 -0.116199
C73   C     C_R   0.336119 0.312058 0.222914 -0.117225
C74   C     C_R   0.729618 0.679770 0.740652 -0.078288
C75   C     C_R   0.270373 0.679767 0.259351 -0.078280
C76   C     C_R   0.663879 0.312052 0.777083 -0.117232
C77   C     C_R   0.708612 0.653952 0.233825 -0.116196
C78   C     C_R   0.301080 0.297344 0.742702 -0.096066
C79   C     C_R   0.698912 0.297326 0.257308 -0.096073
C80   C     C_R   0.291365 0.653950 0.766159 -0.116194
C81   C     C_R   0.801753 0.763984 0.748760 0.024138
C82   C     C_R   0.267086 0.224688 0.214021 0.023984
C83   C     C_R   0.732916 0.224685 0.785975 0.023982
C84   C     C_R   0.198243 0.763984 0.251243 0.024132
C85   C     C_R   0.236407 0.208213 0.755333 -0.002696
C86   C     C_R   0.774428 0.742648 0.220175 -0.000966
C87   C     C_R   0.225564 0.742657 0.779811 -0.000965
C88   C     C_R   0.763600 0.208205 0.244678 -0.002691
C89   C     C_R   0.301756 0.263985 0.248756 0.024133
C90   C     C_R   0.767083 0.724686 0.714025 0.023985
C91   C     C_R   0.232914 0.724687 0.285979 0.023981
C92   C     C_R   0.698247 0.263983 0.751240 0.024137
C93   C     C_R   0.736400 0.708205 0.255322 -0.002692
C94   C     C_R   0.274436 0.242657 0.720189 -0.000966
C95   C     C_R   0.725572 0.242649 0.279825 -0.000966
C96   C     C_R   0.263593 0.708213 0.744667 -0.002695
C97   C     C_R   0.771883 0.705803 0.835361 -0.134681
C98   C     C_R   0.310402 0.271187 0.126900 -0.143105
C99   C     C_R   0.689589 0.271175 0.873096 -0.143095
C100  C     C_R   0.228099 0.705794 0.164644 -0.134658
C101  C     C_R   0.260610 0.274739 0.838153 -0.130891
C102  C     C_R   0.760348 0.667251 0.141657 -0.141902
C103  C     C_R   0.239612 0.667243 0.858319 -0.141870
C104  C     C_R   0.739364 0.274711 0.161851 -0.130890
C105  C     C_R   0.271900 0.205794 0.335355 -0.134656
C106  C     C_R   0.810412 0.771175 0.626904 -0.143096
C107  C     C_R   0.189598 0.771187 0.373100 -0.143104
C108  C     C_R   0.728115 0.205802 0.664639 -0.134683
C109  C     C_R   0.760637 0.774711 0.338148 -0.130886
C110  C     C_R   0.260389 0.167243 0.641681 -0.141871
C111  C     C_R   0.739652 0.167252 0.358343 -0.141901
C112  C     C_R   0.239390 0.774739 0.661848 -0.130891
C113  C     C_R   0.884107 0.115374 0.136877 0.207409
C114  C     C_R   0.137448 0.860960 0.893026 0.231759
C115  C     C_R   0.136282 0.134018 0.113985 0.241256
C116  C     C_R   0.886665 0.888534 0.859725 0.167795
C117  C     C_R   0.113333 0.888534 0.140276 0.167786
C118  C     C_R   0.863718 0.134018 0.886015 0.241265
C119  C     C_R   0.862546 0.860954 0.106963 0.231810
C120  C     C_R   0.115896 0.115378 0.863127 0.207376
C121  C     C_R   0.384104 0.615378 0.636873 0.207376
C122  C     C_R   0.637453 0.360955 0.393035 0.231806
C123  C     C_R   0.636282 0.634018 0.613984 0.241268
C124  C     C_R   0.386667 0.388535 0.359724 0.167787
C125  C     C_R   0.613335 0.388534 0.640275 0.167794
C126  C     C_R   0.363718 0.634018 0.386014 0.241252
C127  C     C_R   0.362552 0.360960 0.606974 0.231758
C128  C     C_R   0.615894 0.615375 0.363124 0.207410
C129  C     C_R   0.862656 0.856669 0.759642 0.490392
C130  C     C_R   0.183183 0.152136 0.207731 0.471361
C131  C     C_R   0.816821 0.152136 0.792267 0.471362
C132  C     C_R   0.137347 0.856674 0.240360 0.490393
C133  C     C_R   0.173419 0.119579 0.772887 0.448192
C134  C     C_R   0.828149 0.838128 0.203981 0.475189
C135  C     C_R   0.171858 0.838145 0.796010 0.475153
C136  C     C_R   0.826604 0.119580 0.227127 0.448204
C137  C     C_R   0.362653 0.356675 0.259640 0.490393
C138  C     C_R   0.683177 0.652138 0.707732 0.471360
C139  C     C_R   0.316817 0.652136 0.292268 0.471364
C140  C     C_R   0.637344 0.356670 0.740358 0.490392
C141  C     C_R   0.673397 0.619580 0.272873 0.448203
C142  C     C_R   0.328142 0.338145 0.703991 0.475154
C143  C     C_R   0.671851 0.338129 0.296017 0.475185
C144  C     C_R   0.326581 0.619579 0.727113 0.448190
C145  C     C_R   0.852481 0.852717 0.819229 -0.220471
C146  C     C_R   0.177193 0.168280 0.149195 -0.249878
C147  C     C_R   0.822807 0.168278 0.850804 -0.249888
C148  C     C_R   0.147517 0.852717 0.180772 -0.220470
C149  C     C_R   0.150996 0.148939 0.822160 -0.269752
C150  C     C_R   0.829378 0.822894 0.145187 -0.291762
C151  C     C_R   0.170615 0.822901 0.854801 -0.291764
C152  C     C_R   0.849007 0.148934 0.177843 -0.269754
C153  C     C_R   0.352483 0.352717 0.319228 -0.220469
C154  C     C_R   0.677193 0.668279 0.649195 -0.249886
C155  C     C_R   0.322807 0.668280 0.350805 -0.249878
C156  C     C_R   0.647520 0.352717 0.680771 -0.220470
C157  C     C_R   0.650994 0.648935 0.322157 -0.269756
C158  C     C_R   0.329385 0.322901 0.645199 -0.291766
C159  C     C_R   0.670621 0.322895 0.354812 -0.291762
C160  C     C_R   0.349003 0.648939 0.677840 -0.269751
C161  C     C_R   0.815805 0.807949 0.843475 0.485778
C162  C     C_R   0.217532 0.207652 0.121356 0.459759
C163  C     C_R   0.782463 0.207646 0.878643 0.459764
C164  C     C_R   0.184186 0.807942 0.156527 0.485780
C165  C     C_R   0.172562 0.206207 0.839470 0.562024
C166  C     C_R   0.806950 0.767857 0.123447 0.524170
C167  C     C_R   0.193029 0.767856 0.876536 0.524166
C168  C     C_R   0.827423 0.206194 0.160525 0.562014
C169  C     C_R   0.315814 0.307943 0.343473 0.485779
C170  C     C_R   0.717538 0.707646 0.621356 0.459760
C171  C     C_R   0.282468 0.707652 0.378643 0.459760
C172  C     C_R   0.684195 0.307949 0.656525 0.485778
C173  C     C_R   0.672578 0.706194 0.339475 0.562017
C174  C     C_R   0.306972 0.267856 0.623464 0.524166
C175  C     C_R   0.693050 0.267858 0.376552 0.524172
C176  C     C_R   0.327437 0.706207 0.660530 0.562023
H1    H     H_    0.960229 0.178771 0.118732 0.109008
H2    H     H_    0.058065 0.801998 0.909726 0.126300
H3    H     H_    0.197187 0.057574 0.092378 0.101498
H4    H     H_    0.820173 0.960168 0.881704 0.082510
H5    H     H_    0.039883 0.822375 0.119794 0.096446
H6    H     H_    0.941731 0.195756 0.903025 0.080056
H7    H     H_    0.802757 0.940875 0.092097 0.087664
H8    H     H_    0.183049 0.044010 0.887515 0.094866
H9    H     H_    0.960113 0.822373 0.880208 0.096453
H10   H     H_    0.058268 0.195757 0.096974 0.080055
H11   H     H_    0.197241 0.940877 0.907898 0.087656
H12   H     H_    0.816954 0.044007 0.112489 0.094841
H13   H     H_    0.039770 0.178771 0.881268 0.109042
H14   H     H_    0.941932 0.801995 0.090265 0.126285
H15   H     H_    0.802813 0.057574 0.907622 0.101497
H16   H     H_    0.179826 0.960167 0.118296 0.082514
H17   H     H_    0.460230 0.678771 0.618732 0.109043
H18   H     H_    0.558068 0.301995 0.409734 0.126285
H19   H     H_    0.697187 0.557574 0.592377 0.101498
H20   H     H_    0.320174 0.460167 0.381704 0.082513
H21   H     H_    0.539887 0.322373 0.619792 0.096453
H22   H     H_    0.441732 0.695756 0.403025 0.080055
H23   H     H_    0.302759 0.440877 0.592103 0.087656
H24   H     H_    0.683046 0.544007 0.387512 0.094841
H25   H     H_    0.460117 0.322375 0.380206 0.096446
H26   H     H_    0.558268 0.695757 0.596974 0.080055
H27   H     H_    0.697243 0.440875 0.407902 0.087662
H28   H     H_    0.316951 0.544010 0.612485 0.094866
H29   H     H_    0.539772 0.678772 0.381268 0.109008
H30   H     H_    0.441935 0.301998 0.590274 0.126300
H31   H     H_    0.302813 0.557574 0.407622 0.101498
H32   H     H_    0.679826 0.460168 0.618295 0.082511
N1    N     N_R   0.940200 0.105310 0.059970 -0.054356
N2    N     N_R   0.059800 0.894690 0.940030 -0.058500
N3    N     N_R   0.105310 0.059800 0.059970 -0.052811
N4    N     N_R   0.894690 0.940200 0.940030 -0.048358
N5    N     N_R   0.059800 0.894690 0.059970 -0.036492
N6    N     N_R   0.940200 0.105310 0.940030 -0.056613
N7    N     N_R   0.894690 0.940200 0.059970 -0.060443
N8    N     N_R   0.105310 0.059800 0.940030 -0.058570
N9    N     N_R   0.940200 0.894690 0.940030 -0.036495
N10   N     N_R   0.059800 0.105310 0.059970 -0.056613
N11   N     N_R   0.105310 0.940200 0.940030 -0.060441
N12   N     N_R   0.894690 0.059800 0.059970 -0.058559
N13   N     N_R   0.059800 0.105310 0.940030 -0.054359
N14   N     N_R   0.940200 0.894690 0.059970 -0.058501
N15   N     N_R   0.894690 0.059800 0.940030 -0.052814
N16   N     N_R   0.105310 0.940200 0.059970 -0.048357
N17   N     N_R   0.440200 0.605310 0.559970 -0.054359
N18   N     N_R   0.559800 0.394690 0.440030 -0.058500
N19   N     N_R   0.605310 0.559800 0.559970 -0.052815
N20   N     N_R   0.394690 0.440200 0.440030 -0.048358
N21   N     N_R   0.559800 0.394690 0.559970 -0.036495
N22   N     N_R   0.440200 0.605310 0.440030 -0.056613
N23   N     N_R   0.394690 0.440200 0.559970 -0.060441
N24   N     N_R   0.605310 0.559800 0.440030 -0.058560
N25   N     N_R   0.440200 0.394690 0.440030 -0.036492
N26   N     N_R   0.559800 0.605310 0.559970 -0.056613
N27   N     N_R   0.605310 0.440200 0.440030 -0.060442
N28   N     N_R   0.394690 0.559800 0.559970 -0.058570
N29   N     N_R   0.559800 0.605310 0.440030 -0.054356
N30   N     N_R   0.440200 0.394690 0.559970 -0.058500
N31   N     N_R   0.394690 0.559800 0.440030 -0.052811
N32   N     N_R   0.605310 0.440200 0.559970 -0.048358
Ni1   Ni    Ni4+2 1.000000 0.104370 0.000000 0.227658
Ni2   Ni    Ni4+2 1.000000 0.895630 0.000000 0.240555
Ni3   Ni    Ni4+2 0.104370 0.000000 0.000000 0.216454
Ni4   Ni    Ni4+2 0.895630 0.000000 0.000000 0.216466
Ni5   Ni    Ni4+2 0.500000 0.604370 0.500000 0.227657
Ni6   Ni    Ni4+2 0.500000 0.395630 0.500000 0.240555
Ni7   Ni    Ni4+2 0.604370 0.500000 0.500000 0.216466
Ni8   Ni    Ni4+2 0.395630 0.500000 0.500000 0.216454
O1    O     O_3   0.886909 0.910064 0.737166 -0.635490
C177  C     C_3   0.951058 0.908924 0.741962 -0.343627
H33   H     H_    0.970607 0.862404 0.735075 0.153138
H34   H     H_    0.966017 0.927977 0.784349 0.155431
H35   H     H_    0.969905 0.939164 0.707891 0.190591
O2    O     O_3   0.135702 0.121971 0.235523 -0.644843
C178  C     C_3   0.136242 0.058419 0.223733 -0.130652
H36   H     H_    0.180592 0.040922 0.207110 0.135555
H37   H     H_    0.098701 0.046875 0.192944 0.143814
H38   H     H_    0.126494 0.033605 0.264559 0.204848
O3    O     O_3   0.864304 0.121972 0.764477 -0.644844
C179  C     C_3   0.863761 0.058419 0.776267 -0.130653
H39   H     H_    0.819410 0.040923 0.792886 0.135550
H40   H     H_    0.901300 0.046874 0.807058 0.143807
H41   H     H_    0.873513 0.033605 0.735441 0.204845
O4    O     O_3   0.113101 0.910073 0.262834 -0.635494
C180  C     C_3   0.048953 0.908941 0.258044 -0.343636
H42   H     H_    0.029398 0.862424 0.264938 0.153135
H43   H     H_    0.033992 0.927990 0.215655 0.155435
H44   H     H_    0.030112 0.939188 0.292111 0.190608
O5    O     O_3   0.161165 0.057826 0.764549 -0.634653
C181  C     C_3   0.215963 0.023263 0.769029 -0.074105
H45   H     H_    0.214674 0.994240 0.808313 0.152749
H46   H     H_    0.259018 0.050524 0.770961 0.087566
H47   H     H_    0.218883 0.992081 0.731212 0.227165
O6    O     O_3   0.842858 0.897077 0.221695 -0.620168
C182  C     C_3   0.906679 0.906323 0.222085 -0.217345
H48   H     H_    0.919557 0.936732 0.185714 0.171816
H49   H     H_    0.933768 0.863182 0.220172 0.086417
H50   H     H_    0.919387 0.930938 0.262501 0.181688
O7    O     O_3   0.157159 0.897098 0.778300 -0.620115
C183  C     C_3   0.093339 0.906350 0.777903 -0.217169
H51   H     H_    0.080459 0.936756 0.814277 0.171784
H52   H     H_    0.066246 0.863212 0.779808 0.086369
H53   H     H_    0.080637 0.930971 0.737489 0.181664
O8    O     O_3   0.838888 0.057836 0.235482 -0.634696
C184  C     C_3   0.784106 0.023245 0.231029 -0.074053
H54   H     H_    0.785358 0.994271 0.191711 0.152661
H55   H     H_    0.741032 0.050483 0.229184 0.087631
H56   H     H_    0.781255 0.992019 0.268819 0.227284
O9    O     O_3   0.386899 0.410073 0.237166 -0.635495
C185  C     C_3   0.451048 0.408941 0.241956 -0.343635
H57   H     H_    0.470602 0.362424 0.235061 0.153137
H58   H     H_    0.466008 0.427989 0.284345 0.155434
H59   H     H_    0.469888 0.439188 0.207889 0.190607
O10   O     O_3   0.635694 0.621974 0.735521 -0.644846
C186  C     C_3   0.636237 0.558421 0.723732 -0.130660
H60   H     H_    0.680589 0.540925 0.707114 0.135550
H61   H     H_    0.598698 0.546875 0.692940 0.143809
H62   H     H_    0.626485 0.533608 0.764558 0.204843
O11   O     O_3   0.364298 0.621972 0.264475 -0.644842
C187  C     C_3   0.363759 0.558419 0.276267 -0.130646
H63   H     H_    0.319410 0.540922 0.292890 0.135557
H64   H     H_    0.401301 0.546877 0.307056 0.143811
H65   H     H_    0.373508 0.533605 0.235441 0.204847
O12   O     O_3   0.613092 0.410064 0.762834 -0.635488
C188  C     C_3   0.548943 0.408925 0.758039 -0.343627
H66   H     H_    0.529393 0.362405 0.764926 0.153137
H67   H     H_    0.533984 0.427978 0.715651 0.155431
H68   H     H_    0.530097 0.439166 0.792109 0.190591
O13   O     O_3   0.661115 0.557835 0.264520 -0.634693
C189  C     C_3   0.715898 0.523246 0.268976 -0.074061
H69   H     H_    0.714640 0.494266 0.308290 0.152675
H70   H     H_    0.758970 0.550485 0.270831 0.087624
H71   H     H_    0.718756 0.492025 0.231183 0.227271
O14   O     O_3   0.342842 0.397098 0.721700 -0.620115
C190  C     C_3   0.406662 0.406349 0.722097 -0.217169
H72   H     H_    0.419543 0.436753 0.685724 0.171783
H73   H     H_    0.433754 0.363210 0.720194 0.086369
H74   H     H_    0.419363 0.430971 0.762511 0.181663
O15   O     O_3   0.657143 0.397078 0.278303 -0.620163
C191  C     C_3   0.593321 0.406324 0.277913 -0.217331
H75   H     H_    0.580444 0.436733 0.314284 0.171812
H76   H     H_    0.566232 0.363183 0.279826 0.086413
H77   H     H_    0.580613 0.430939 0.237497 0.181687
O16   O     O_3   0.338835 0.557826 0.735450 -0.634652
C192  C     C_3   0.284037 0.523263 0.730971 -0.074102
H78   H     H_    0.285325 0.494240 0.691687 0.152749
H79   H     H_    0.240982 0.550525 0.729038 0.087564
H80   H     H_    0.281116 0.492081 0.768788 0.227164
C193  C     C_2   0.786018 0.690698 0.897345 0.573211
H81   H     H_    0.828970 0.705497 0.916654 0.088656
O17   O     O_2   0.749809 0.663246 0.927708 -0.627390
C194  C     C_2   0.323323 0.264830 0.063730 0.656848
H82   H     H_    0.320922 0.220006 0.043552 0.075920
O18   O     O_2   0.334973 0.309173 0.033560 -0.584823
C195  C     C_2   0.676663 0.264812 0.936264 0.656833
H83   H     H_    0.679065 0.219987 0.956439 0.075927
O19   O     O_2   0.665009 0.309153 0.966437 -0.584818
C196  C     C_2   0.213956 0.690684 0.102663 0.573163
H84   H     H_    0.171003 0.705485 0.083358 0.088632
O20   O     O_2   0.250159 0.663226 0.072298 -0.627383
C197  C     C_2   0.264460 0.280451 0.902620 0.626962
H85   H     H_    0.270842 0.324622 0.923142 0.075927
O21   O     O_2   0.262413 0.234994 0.933376 -0.541554
C198  C     C_2   0.779831 0.641364 0.085084 0.753036
H86   H     H_    0.746353 0.623552 0.054445 0.039579
O22   O     O_2   0.833915 0.638865 0.072916 -0.543659
C199  C     C_2   0.220113 0.641351 0.914885 0.753017
H87   H     H_    0.253581 0.623531 0.945529 0.039579
O23   O     O_2   0.166025 0.638859 0.927041 -0.543671
C200  C     C_2   0.735498 0.280411 0.097383 0.626951
H88   H     H_    0.729107 0.324578 0.076856 0.075959
O24   O     O_2   0.737543 0.234948 0.066634 -0.541560
C201  C     C_2   0.286044 0.190684 0.397336 0.573165
H89   H     H_    0.328996 0.205485 0.416642 0.088631
O25   O     O_2   0.249841 0.163226 0.427701 -0.627382
C202  C     C_2   0.823339 0.764811 0.563736 0.656837
H90   H     H_    0.820937 0.719986 0.543561 0.075925
O26   O     O_2   0.834994 0.809152 0.533563 -0.584818
C203  C     C_2   0.176677 0.764829 0.436269 0.656848
H91   H     H_    0.179078 0.720005 0.456448 0.075920
O27   O     O_2   0.165026 0.809172 0.466440 -0.584822
C204  C     C_2   0.713980 0.190698 0.602655 0.573207
H92   H     H_    0.671028 0.205497 0.583346 0.088655
O28   O     O_2   0.750189 0.163246 0.572291 -0.627391
C205  C     C_2   0.764504 0.780411 0.402616 0.626946
H93   H     H_    0.770896 0.824578 0.423143 0.075958
O29   O     O_2   0.762460 0.734949 0.433365 -0.541561
C206  C     C_2   0.279888 0.141351 0.585115 0.753016
H94   H     H_    0.246420 0.123531 0.554471 0.039578
O30   O     O_2   0.333976 0.138859 0.572960 -0.543671
C207  C     C_2   0.720169 0.141365 0.414916 0.753033
H95   H     H_    0.753646 0.123554 0.445556 0.039581
O31   O     O_2   0.666084 0.138866 0.427083 -0.543659
C208  C     C_2   0.235540 0.780451 0.597380 0.626965
H96   H     H_    0.229158 0.824622 0.576858 0.075928
O32   O     O_2   0.237587 0.734994 0.566624 -0.541556
O33   O     O_3   0.796171 0.815096 0.900066 -0.612535
C209  C     C_3   0.737613 0.842327 0.898246 -0.251626
H97   H     H_    0.735151 0.882281 0.868217 0.134199
H98   H     H_    0.726656 0.859859 0.942017 0.151468
H99   H     H_    0.702387 0.807953 0.885875 0.153880
O34   O     O_3   0.207880 0.220761 0.063073 -0.600274
C210  C     C_3   0.174965 0.276165 0.058418 -0.098959
H100  H     H_    0.131670 0.274764 0.083156 0.089860
H101  H     H_    0.162928 0.283797 0.012103 0.192726
H102  H     H_    0.202991 0.315726 0.073195 0.130925
O35   O     O_3   0.792108 0.220750 0.936928 -0.600276
C211  C     C_3   0.825020 0.276155 0.941590 -0.098991
H103  H     H_    0.868320 0.274756 0.916860 0.089876
H104  H     H_    0.837047 0.283787 0.987908 0.192725
H105  H     H_    0.796996 0.315716 0.926809 0.130923
O36   O     O_3   0.203814 0.815083 0.099933 -0.612546
C212  C     C_3   0.262376 0.842308 0.101746 -0.251625
H106  H     H_    0.264843 0.882266 0.131770 0.134204
H107  H     H_    0.273331 0.859832 0.057972 0.151466
H108  H     H_    0.297599 0.807932 0.114119 0.153884
O37   O     O_3   0.147953 0.235058 0.887488 -0.585473
C213  C     C_3   0.114143 0.286450 0.868541 -0.309591
H109  H     H_    0.089766 0.305844 0.906270 0.176408
H110  H     H_    0.079119 0.273728 0.835271 0.131995
H111  H     H_    0.144499 0.322803 0.851341 0.158059
O38   O     O_3   0.805114 0.759263 0.063913 -0.581752
C214  C     C_3   0.748129 0.780278 0.042811 -0.188026
H112  H     H_    0.745702 0.831061 0.044710 0.126277
H113  H     H_    0.709027 0.759897 0.066558 0.089285
H114  H     H_    0.743117 0.765905 0.997010 0.217045
O39   O     O_3   0.194851 0.759251 0.936069 -0.581767
C215  C     C_3   0.251836 0.780251 0.957184 -0.188030
H115  H     H_    0.254276 0.831035 0.955287 0.126273
H116  H     H_    0.290938 0.759860 0.933445 0.089295
H117  H     H_    0.256832 0.765877 0.002986 0.217068
O40   O     O_3   0.852015 0.235038 0.112495 -0.585460
C216  C     C_3   0.885820 0.286441 0.131424 -0.309563
H118  H     H_    0.910185 0.305829 0.093686 0.176391
H119  H     H_    0.920853 0.273734 0.164690 0.131990
H120  H     H_    0.855461 0.322793 0.148621 0.158052
O41   O     O_3   0.296186 0.315083 0.400067 -0.612547
C217  C     C_3   0.237624 0.342309 0.398254 -0.251629
H121  H     H_    0.235157 0.382267 0.368230 0.134205
H122  H     H_    0.226669 0.359833 0.442028 0.151466
H123  H     H_    0.202401 0.307933 0.385881 0.153884
O42   O     O_3   0.707894 0.720749 0.563071 -0.600277
C218  C     C_3   0.674983 0.776154 0.558407 -0.098977
H124  H     H_    0.631678 0.774752 0.583128 0.089881
H125  H     H_    0.662966 0.783791 0.512088 0.192729
H126  H     H_    0.703003 0.815714 0.573196 0.130909
O43   O     O_3   0.292120 0.720761 0.436927 -0.600274
C219  C     C_3   0.325035 0.776165 0.441582 -0.098962
H127  H     H_    0.368330 0.774764 0.416844 0.089862
H128  H     H_    0.337071 0.783798 0.487897 0.192726
H129  H     H_    0.297009 0.815726 0.426804 0.130926
O44   O     O_3   0.703829 0.315096 0.599934 -0.612535
C220  C     C_3   0.762387 0.342326 0.601754 -0.251622
H130  H     H_    0.764849 0.382280 0.631783 0.134198
H131  H     H_    0.773345 0.359857 0.557983 0.151466
H132  H     H_    0.797613 0.307951 0.614125 0.153880
O45   O     O_3   0.647987 0.735039 0.387505 -0.585460
C221  C     C_3   0.614182 0.786442 0.368577 -0.309568
H133  H     H_    0.589817 0.805830 0.406316 0.176392
H134  H     H_    0.579148 0.773735 0.335311 0.131991
H135  H     H_    0.644540 0.822794 0.351380 0.158052
O46   O     O_3   0.305149 0.259251 0.563931 -0.581768
C222  C     C_3   0.248166 0.280251 0.542815 -0.188028
H136  H     H_    0.245725 0.331035 0.544713 0.126273
H137  H     H_    0.209063 0.259861 0.566555 0.089295
H138  H     H_    0.243169 0.265877 0.497014 0.217068
O47   O     O_3   0.694885 0.259265 0.436086 -0.581753
C223  C     C_3   0.751869 0.280278 0.457189 -0.188025
H139  H     H_    0.754297 0.331062 0.455290 0.126278
H140  H     H_    0.790972 0.259897 0.433441 0.089283
H141  H     H_    0.756881 0.265905 0.502989 0.217046
O48   O     O_3   0.352047 0.735058 0.612512 -0.585473
C224  C     C_3   0.385856 0.786450 0.631459 -0.309590
H142  H     H_    0.410233 0.805844 0.593730 0.176408
H143  H     H_    0.420880 0.773728 0.664729 0.131995
H144  H     H_    0.355500 0.822803 0.648659 0.158059
C225  C     C_2   0.218699 0.105797 0.323945 0.651249
H145  H     H_    0.182990 0.103901 0.356164 0.057236
O49   O     O_2   0.243460 0.058598 0.308406 -0.604112
C226  C     C_2   0.890111 0.852110 0.633947 0.681664
H146  H     H_    0.880938 0.900553 0.628297 0.060353
O50   O     O_2   0.938064 0.830646 0.616647 -0.583721
C227  C     C_2   0.109902 0.852125 0.366057 0.681658
H147  H     H_    0.119079 0.900568 0.371704 0.060352
O51   O     O_2   0.061949 0.830666 0.383363 -0.583715
C228  C     C_2   0.781318 0.105805 0.676047 0.651251
H148  H     H_    0.817029 0.103913 0.643830 0.057236
O52   O     O_2   0.756556 0.058605 0.691580 -0.604108
C229  C     C_2   0.840693 0.854793 0.330897 0.604311
H149  H     H_    0.889675 0.848748 0.327538 0.011806
O53   O     O_2   0.820548 0.899118 0.356648 -0.546843
C230  C     C_2   0.183521 0.082580 0.650633 0.518981
H150  H     H_    0.134986 0.079192 0.659115 0.072436
O54   O     O_2   0.207794 0.042651 0.621857 -0.555209
C231  C     C_2   0.816533 0.082603 0.349392 0.518935
H151  H     H_    0.865070 0.079229 0.340912 0.072437
O55   O     O_2   0.792271 0.042668 0.378169 -0.555226
C232  C     C_2   0.159345 0.854832 0.669094 0.604394
H152  H     H_    0.110361 0.848795 0.672442 0.011778
O56   O     O_2   0.179504 0.899159 0.643355 -0.546799
C233  C     C_2   0.718676 0.605809 0.823954 0.651269
H153  H     H_    0.682962 0.603918 0.856168 0.057228
O57   O     O_2   0.743438 0.558607 0.808424 -0.604105
C234  C     C_2   0.390097 0.352127 0.133942 0.681662
H154  H     H_    0.380919 0.400570 0.128296 0.060350
O58   O     O_2   0.438050 0.330668 0.116637 -0.583715
C235  C     C_2   0.609890 0.352110 0.866053 0.681661
H155  H     H_    0.619064 0.400554 0.871703 0.060356
O59   O     O_2   0.561938 0.330647 0.883355 -0.583720
C236  C     C_2   0.281300 0.605796 0.176056 0.651239
H156  H     H_    0.317007 0.603899 0.143834 0.057240
O60   O     O_2   0.256540 0.558598 0.191596 -0.604113
C237  C     C_2   0.340653 0.354834 0.830906 0.604393
H157  H     H_    0.389637 0.348797 0.827560 0.011778
O61   O     O_2   0.320493 0.399161 0.856643 -0.546798
C238  C     C_2   0.683468 0.582601 0.150610 0.518937
H158  H     H_    0.634932 0.579226 0.159090 0.072437
O62   O     O_2   0.707731 0.542667 0.121833 -0.555224
C239  C     C_2   0.316479 0.582580 0.849367 0.518981
H159  H     H_    0.365014 0.579192 0.840885 0.072436
O63   O     O_2   0.292208 0.542651 0.878144 -0.555207
C240  C     C_2   0.659308 0.354792 0.169101 0.604321
H160  H     H_    0.610325 0.348748 0.172461 0.011803
O64   O     O_2   0.679453 0.399118 0.143350 -0.546837

loop_
_geom_bond_atom_site_label_1
_geom_bond_atom_site_label_2
_ccdc_geom_bond_type
O43   C219  S    
C178  H37   S    
C130  C146  A    
C185  H59   S    
C225  H145  S    
C62   C77   A    
C39   C87   A    
C138  O10   S    
N14   Ni2   S    
C229  H149  S    
O34   C210  S    
C41   C105  A    
C164  O36   S    
O8    C184  S    
C214  H113  S    
C116  C145  S    
C45   C109  A    
C177  H34   S    
C154  C170  A    
O6    C182  S    
N10   Ni1   S    
C29   N29   A    
C143  O15   S    
C42   C170  A    
C240  H160  S    
C158  C174  A    
C168  O40   S    
O16   C192  S    
C239  O63   D    
C46   C174  A    
C165  O37   S    
C84   C91   A    
C144  C160  A    
C129  C145  A    
C44   C92   A    
C138  C154  A    
C177  H35   S    
N5    Ni2   S    
C88   C95   A    
C216  H119  S    
C1    C113  A    
C142  C158  A    
C206  H94   S    
C201  O25   D    
C4    C116  A    
C218  H126  S    
C240  O64   D    
C190  H73   S    
C227  H147  S    
C191  H77   S    
C7    C119  A    
N2    Ni2   S    
C195  O19   D    
C60   C100  A    
O14   C190  S    
O45   C221  S    
C41   C169  A    
C35   C163  A    
N31   Ni8   S    
C132  C148  A    
C224  H144  S    
C33   C161  A    
C44   C172  A    
C31   H31   S    
C232  O56   D    
C105  C201  S    
C231  O55   D    
C146  C162  A    
C22   N22   A    
C220  H132  S    
C57   C97   A    
N29   Ni5   S    
C235  O59   D    
C64   C240  S    
C183  H51   S    
C143  C159  A    
C42   C106  A    
C18   C122  A    
C81   C90   A    
C130  O2    S    
C141  C157  A    
O44   C220  S    
C226  O50   D    
C46   C110  A    
C64   C79   A    
C181  H46   S    
C16   N16   A    
C236  H156  S    
C210  H100  S    
C218  H124  S    
C62   C238  S    
C187  H63   S    
C53   C109  A    
N3    N10   A    
C15   H15   S    
C30   C127  A    
C48   C96   A    
C55   C111  A    
C9    C116  A    
C170  O42   S    
C21   H21   S    
C8    N8    A    
C111  C207  S    
C169  O41   S    
C212  H106  S    
C15   C118  A    
C7    H7    S    
C223  H139  S    
C40   C88   A    
C184  H55   S    
C205  H93   S    
C2    C114  A    
C74   C90   A    
C145  C161  A    
C78   C94   A    
C151  C167  A    
C98   C194  S    
C33   C97   A    
C200  H88   S    
C136  O8    S    
C77   C141  A    
C222  H137  S    
C195  H83   S    
C24   H24   S    
C51   C107  A    
C14   C119  A    
C203  H91   S    
C70   C134  A    
C209  H97   S    
C12   N12   A    
C23   N23   A    
C97   C193  S    
C123  C154  S    
C57   C74   A    
C41   C89   A    
C67   C83   A    
C18   H18   S    
N28   Ni8   S    
C58   C98   A    
N4    Ni4   S    
C45   C93   A    
C26   C123  A    
C186  H61   S    
N13   Ni1   S    
C115  C146  S    
C19   C123  A    
C120  C149  S    
C82   C89   A    
C73   C137  A    
C6    H6    S    
C117  C148  S    
C27   H27   S    
C100  C196  S    
C118  C147  S    
C25   H25   S    
N26   Ni5   S    
N5    N16   A    
C47   C111  A    
C40   C104  A    
C204  H92   S    
C150  C166  A    
C58   C234  S    
C54   C110  A    
C224  H143  S    
C192  H79   S    
C19   N19   A    
C208  H96   S    
C221  H133  S    
C17   N17   A    
C79   C143  A    
O4    C180  S    
C80   C144  A    
N32   Ni7   S    
C131  C147  A    
C50   C226  S    
C32   H32   S    
C187  H65   S    
C75   C91   A    
C140  O12   S    
C61   C237  S    
C26   N26   A    
C124  C153  S    
C174  O46   S    
C56   C232  S    
C193  O17   D    
N22   N31   A    
C30   N30   A    
O1    C177  S    
C238  O62   D    
C234  H154  S    
C128  C157  S    
C233  H153  S    
C217  H122  S    
C63   C80   A    
C197  O21   D    
C3    N3    A    
C212  H108  S    
C49   C66   A    
C1    N1    A    
C148  C164  A    
C223  H141  S    
C182  H50   S    
C149  C165  A    
C230  H150  S    
N1    Ni1   S    
C43   C171  A    
C37   C165  A    
C156  C172  A    
N2    N11   A    
C42   C90   A    
C191  H76   S    
C61   C101  A    
C86   C93   A    
C217  H123  S    
C46   C94   A    
C139  C155  A    
O7    C183  S    
C202  O26   D    
O9    C185  S    
C215  H115  S    
C180  H43   S    
N20   N25   A    
C52   C67   A    
C28   N28   A    
C48   C112  A    
C228  H148  S    
C196  O20   D    
C175  O47   S    
O42   C218  S    
C213  H110  S    
C11   N11   A    
C13   C120  A    
C69   C85   A    
C219  H127  S    
C50   C106  A    
O38   C214  S    
C9    N9    A    
C64   C104  A    
C190  H74   S    
N17   N28   A    
C13   N13   A    
O48   C224  S    
C34   C162  A    
C219  H129  S    
N16   Ni3   S    
N20   Ni8   S    
C107  C203  S    
C141  O13   S    
C20   N20   A    
C210  H102  S    
C75   C139  A    
O37   C213  S    
C52   C228  S    
N24   N29   A    
N8    Ni3   S    
C211  H105  S    
C56   C112  A    
C10   H10   S    
C232  H152  S    
C50   C65   A    
C106  C202  S    
C20   C124  A    
N6    N15   A    
N19   Ni7   S    
C14   H14   S    
C198  H86   S    
C235  H155  S    
C24   C128  A    
C166  O38   S    
C2    H2    S    
O46   C222  S    
C237  H157  S    
C59   C76   A    
C47   C175  A    
C178  H36   S    
C48   C176  A    
C216  H118  S    
C109  C205  S    
C182  H48   S    
C181  H47   S    
C183  H53   S    
C63   C239  S    
C206  O30   D    
C201  H89   S    
C218  H125  S    
C176  O48   S    
C74   C138  A    
C8    C120  A    
N23   N30   A    
C135  O7    S    
C217  H121  S    
C78   C142  A    
O10   C186  S    
N4    N9    A    
C207  H95   S    
C185  H57   S    
C5    H5    S    
C68   C132  A    
N8    N13   A    
C136  C152  A    
C214  H112  S    
C99   C195  S    
C220  H131  S    
C121  C160  S    
C122  C159  S    
C125  C156  S    
C132  O4    S    
C126  C155  S    
C119  C150  S    
C178  H38   S    
C190  H72   S    
O5    C181  S    
C112  C208  S    
C225  O49   D    
C113  C152  S    
C236  O60   D    
C114  C151  S    
C4    H4    S    
C179  H41   S    
C53   C70   A    
C102  C198  S    
C152  C168  A    
C27   C122  A    
C187  H64   S    
N18   Ni6   S    
C189  H70   S    
C229  O53   D    
O47   C223  S    
C68   C84   A    
N3    Ni3   S    
C214  H114  S    
C63   C103  A    
C103  C199  S    
C186  H60   S    
C35   C83   A    
C179  H39   S    
C49   C105  A    
C177  H33   S    
O13   C189  S    
C101  C197  S    
C221  H135  S    
C223  H140  S    
O11   C187  S    
C139  O11   S    
C184  H54   S    
C163  O35   S    
C212  H107  S    
C65   C81   A    
C6    N6    A    
N15   Ni4   S    
C56   C71   A    
C59   C235  S    
N30   Ni6   S    
N7    Ni4   S    
C36   C100  A    
C43   C107  A    
C54   C230  S    
C127  C158  S    
C25   C124  A    
N22   Ni5   S    
C131  O3    S    
C17   C121  A    
C38   C86   A    
C216  H120  S    
C228  O52   D    
C142  O14   S    
C51   C227  S    
C76   C140  A    
C209  H98   S    
N7    N14   A    
C199  H87   S    
C23   C127  A    
C38   C166  A    
N19   N26   A    
C31   N31   A    
C189  H69   S    
O40   C216  S    
C26   H26   S    
C22   H22   S    
C230  O54   D    
O36   C212  S    
C24   N24   A    
C65   C129  A    
C39   C103  A    
C60   C75   A    
C9    H9    S    
C162  O34   S    
C209  H99   S    
C73   C89   A    
C3    C115  A    
C16   C117  A    
C54   C69   A    
C204  O28   D    
C135  C151  A    
C77   C93   A    
C34   C98   A    
C15   N15   A    
C192  H78   S    
C208  O32   D    
C72   C136  A    
O15   C191  S    
C226  H146  S    
C211  H104  S    
C188  H66   S    
C153  C169  A    
C36   C164  A    
C181  H45   S    
C147  C163  A    
C7    N7    A    
C157  C173  A    
C189  H71   S    
C134  C150  A    
C37   C101  A    
C19   H19   S    
C59   C99   A    
C193  H81   S    
C17   H17   S    
N23   Ni8   S    
C234  O58   D    
O41   C217  S    
C29   H29   S    
C197  H85   S    
C79   C95   A    
C83   C92   A    
N12   Ni4   S    
O2    C178  S    
N6    Ni1   S    
C11   H11   S    
C37   C85   A    
C182  H49   S    
C183  H52   S    
C184  H56   S    
C45   C173  A    
C205  O29   D    
C71   C135  A    
C108  C204  S    
N25   Ni6   S    
C22   C126  A    
C66   C82   A    
C239  H159  S    
C12   H12   S    
C23   H23   S    
C13   H13   S    
C194  H82   S    
C11   C114  A    
C3    H3    S    
C202  H90   S    
C222  H138  S    
C171  O43   S    
C16   H16   S    
N9    Ni2   S    
C1    H1    S    
N11   Ni3   S    
C207  O31   D    
C53   C229  S    
O39   C215  S    
C80   C96   A    
C18   N18   A    
C180  H42   S    
C55   C72   A    
C27   N27   A    
C8    H8    S    
C21   N21   A    
C159  C175  A    
C21   C125  A    
C160  C176  A    
C213  H111  S    
C35   C99   A    
N27   Ni7   S    
C72   C88   A    
C219  H128  S    
C186  H62   S    
C49   C225  S    
C44   C108  A    
N17   Ni5   S    
C110  C206  S    
C2    N2    A    
C137  C153  A    
C28   H28   S    
C133  C149  A    
C179  H40   S    
C231  H151  S    
C28   C121  A    
C211  H103  S    
C32   N32   A    
C188  H67   S    
C43   C91   A    
N18   N27   A    
C172  O44   S    
C5    C117  A    
C32   C125  A    
C192  H80   S    
C200  O24   D    
C210  H101  S    
C144  O16   S    
C155  C171  A    
C199  O23   D    
C85   C94   A    
C133  O5    S    
C215  H117  S    
C61   C78   A    
C188  H68   S    
C87   C96   A    
C203  O27   D    
N21   N32   A    
C161  O33   S    
O33   C209  S    
C76   C92   A    
N21   Ni6   S    
O12   C188  S    
C140  C156  A    
C220  H130  S    
C134  O6    S    
C71   C87   A    
O3    C179  S    
C70   C86   A    
C129  O1    S    
C10   N10   A    
C12   C113  A    
C104  C200  S    
C69   C133  A    
N1    N12   A    
C14   N14   A    
C67   C131  A    
C137  O9    S    
C215  H116  S    
C34   C82   A    
C4    N4    A    
N24   Ni7   S    
C57   C233  S    
C191  H75   S    
C237  O61   D    
C173  O45   S    
C222  H136  S    
C38   C102  A    
C30   H30   S    
C36   C84   A    
C5    N5    A    
C238  H158  S    
C233  O57   D    
C20   H20   S    
C185  H58   S    
C51   C68   A    
C39   C167  A    
C224  H142  S    
C180  H44   S    
C221  H134  S    
C40   C168  A    
C25   N25   A    
C167  O39   S    
C194  O18   D    
C60   C236  S    
C52   C108  A    
C196  H84   S    
C198  O22   D    
C29   C128  A    
C227  O51   D    
C47   C95   A    
C213  H109  S    
C55   C231  S    
C31   C126  A    
C62   C102  A    
C33   C81   A    
C6    C118  A    
C10   C115  A    
O35   C211  S    
C58   C73   A    
C66   C130  A    
