data_mof_unit_64335.cif
_audit_creation_date              2012-12-10T20:17:45-0500
_audit_creation_method            fapswitch 2.2
_symmetry_space_group_name_H-M    P1
_symmetry_Int_Tables_number       1
_space_group_crystal_system       triclinic
_cell_length_a                    19.067617
_cell_length_b                    18.570331
_cell_length_c                    23.450603
_cell_angle_alpha                 90.270715
_cell_angle_beta                  90.249588
_cell_angle_gamma                 89.493346
_cell_volume                      8303.17534019

loop_
_atom_site_label
_atom_site_type_symbol
_atom_type_description
_atom_site_fract_x
_atom_site_fract_y
_atom_site_fract_z
_atom_type_partial_charge
C1    C     C_R   0.365587 0.500455 0.501397 0.863523
C2    C     C_R   0.634368 0.499582 0.501376 0.868183
C3    C     C_R   0.553781 0.477879 0.236893 0.078351
C4    C     C_R   0.433030 0.467014 0.759051 0.073632
C5    C     C_R   0.557136 0.478709 0.296626 -0.092438
C6    C     C_R   0.436219 0.468961 0.699371 -0.086021
C7    C     C_R   0.497335 0.499108 0.327975 -0.144345
C8    C     C_R   0.494720 0.500152 0.672592 -0.138096
C9    C     C_R   0.433876 0.516813 0.300164 0.008442
C10   C     C_R   0.549392 0.529943 0.705702 0.013961
C11   C     C_R   0.430364 0.513847 0.240706 0.130371
C12   C     C_R   0.546845 0.525395 0.765119 0.127989
C13   C     C_R   0.490335 0.495139 0.209415 0.273179
C14   C     C_R   0.488611 0.494557 0.791398 0.275669
C15   C     C_R   0.734696 0.460510 0.561341 -0.032372
C16   C     C_R   0.265853 0.543767 0.560017 -0.012799
C17   C     C_R   0.244145 0.459559 0.481469 -0.026147
C18   C     C_R   0.755437 0.538027 0.479170 -0.024390
C19   C     C_R   0.805139 0.464871 0.576005 -0.174564
C20   C     C_R   0.195486 0.540999 0.574693 -0.175834
C21   C     C_R   0.173161 0.461157 0.494633 -0.173623
C22   C     C_R   0.826550 0.537850 0.492428 -0.172701
C23   C     C_R   0.851345 0.502227 0.541178 0.093657
C24   C     C_R   0.148876 0.501038 0.541537 0.093711
C25   C     C_R   0.709195 0.498445 0.513246 -0.127780
C26   C     C_R   0.290843 0.502042 0.513535 -0.119765
C27   C     C_R   0.499938 0.499813 0.389732 0.897850
C28   C     C_R   0.499215 0.500173 0.610505 0.893042
C29   C     C_R   0.962770 0.568089 0.556877 -0.050329
C30   C     C_R   0.037614 0.436731 0.560191 -0.051085
C31   C     C_R   0.036100 0.568391 0.554460 -0.043287
C32   C     C_R   0.964285 0.436190 0.557436 -0.045124
C33   C     C_R   0.073486 0.502348 0.554215 -0.020719
C34   C     C_R   0.926868 0.502072 0.553924 -0.020966
C35   C     C_R   0.553060 0.729609 0.523832 0.192380
C36   C     C_R   0.551007 0.270015 0.473231 0.190713
C37   C     C_R   0.444234 0.724222 0.474860 0.243354
C38   C     C_R   0.446323 0.276453 0.527202 0.233643
C39   C     C_R   0.550689 0.805521 0.523628 0.035279
C40   C     C_R   0.548892 0.194090 0.473103 0.037551
C41   C     C_R   0.438247 0.800362 0.475858 -0.034406
C42   C     C_R   0.440453 0.200467 0.526056 -0.036714
C43   C     C_R   0.492314 0.842276 0.500125 -0.047483
C44   C     C_R   0.492653 0.157968 0.499189 -0.045368
C45   C     C_R   0.487518 0.961788 0.448297 -0.181932
C46   C     C_R   0.491839 0.038480 0.550981 -0.181582
C47   C     C_R   0.489905 0.962851 0.551218 -0.185906
C48   C     C_R   0.486133 0.037485 0.448134 -0.186049
C49   C     C_R   0.489567 0.076957 0.499442 0.127143
C50   C     C_R   0.489043 0.923335 0.499866 0.128104
C51   C     C_R   0.472208 0.557080 0.880157 0.546026
C52   C     C_R   0.487890 0.429966 0.120680 0.550414
C53   C     C_R   0.493829 0.430381 0.880015 0.568944
C54   C     C_R   0.482647 0.558331 0.120611 0.564806
C55   C     C_R   0.490055 0.427975 0.939883 -0.030851
C56   C     C_R   0.477317 0.559742 0.060809 -0.029107
C57   C     C_R   0.481420 0.493703 0.970245 -0.064823
C58   C     C_R   0.482064 0.493601 0.030498 -0.064992
C59   C     C_R   0.472627 0.559546 0.940278 -0.078512
C60   C     C_R   0.487958 0.427482 0.060514 -0.079786
C61   C     C_R   0.495265 0.362139 0.969757 0.069347
C62   C     C_R   0.467805 0.625144 0.030978 0.069494
C63   C     C_R   0.493790 0.361752 0.029634 -0.058487
C64   C     C_R   0.464979 0.625094 0.971148 -0.058787
H1    H     H_    0.488239 0.933272 0.407942 0.140943
H2    H     H_    0.495888 0.066921 0.591236 0.141550
H3    H     H_    0.490026 0.935107 0.591710 0.142033
H4    H     H_    0.483185 0.065271 0.407712 0.142277
H5    H     H_    0.824444 0.438019 0.614012 0.148277
H6    H     H_    0.176608 0.570807 0.611526 0.146532
H7    H     H_    0.136561 0.430820 0.468607 0.146814
H8    H     H_    0.862834 0.565854 0.464982 0.146064
N1    N     N_R   0.484622 0.493881 0.852209 -0.333057
N2    N     N_R   0.486891 0.494411 0.148545 -0.333387
N3    N     N_R   0.500000 0.689440 0.500000 -0.136372
N4    N     N_R   0.500000 0.310560 0.500000 -0.138116
O1    O     O_R   0.398180 0.560840 0.499980 -0.601652
O2    O     O_R   0.601820 0.439160 0.500020 -0.632810
O3    O     O_R   0.601820 0.560840 0.500020 -0.640272
O4    O     O_R   0.398180 0.439160 0.499980 -0.589685
O5    O     O_R   0.499980 0.560830 0.416150 -0.598096
O6    O     O_R   0.500020 0.439170 0.583850 -0.587181
O7    O     O_R   0.500020 0.560830 0.583850 -0.628157
O8    O     O_R   0.499980 0.439170 0.416150 -0.625782
O9    O     O_2   0.459852 0.616893 0.849131 -0.549899
O10   O     O_2   0.488887 0.369040 0.151780 -0.548312
O11   O     O_2   0.507237 0.370285 0.849213 -0.527638
O12   O     O_2   0.484214 0.620003 0.151266 -0.530993
Zn1   Zn    Zn3+2 0.500000 0.581210 0.500000 0.959857
Zn2   Zn    Zn3+2 0.500000 0.418790 0.500000 0.973266
N5    N     N_3   0.501099 0.295054 0.939119 -0.372143
H9    H     H_    0.458739 0.262480 0.949841 0.190198
H10   H     H_    0.547733 0.269143 0.951152 0.195905
N6    N     N_3   0.459812 0.692009 0.061625 -0.372542
H11   H     H_    0.499611 0.726995 0.049333 0.196094
H12   H     H_    0.411212 0.715042 0.051199 0.189422
N7    N     N_3   0.613446 0.696010 0.548561 -0.423250
H13   H     H_    0.646068 0.678247 0.515652 0.217538
H14   H     H_    0.597518 0.653020 0.573450 0.213828
N8    N     N_3   0.608842 0.303259 0.445528 -0.415030
H15   H     H_    0.643239 0.322521 0.476652 0.218417
H16   H     H_    0.590554 0.344966 0.419745 0.233059
N9    N     N_3   0.392010 0.683064 0.445842 -0.391910
H17   H     H_    0.343528 0.693594 0.464969 0.197948
H18   H     H_    0.389362 0.700522 0.403562 0.173703
N10   N     N_3   0.396260 0.318228 0.558427 -0.365318
H19   H     H_    0.346444 0.308494 0.541386 0.204985
H20   H     H_    0.396976 0.300439 0.600661 0.191025
N11   N     N_3   0.610167 0.843868 0.545457 -0.425094
H21   H     H_    0.595392 0.872467 0.581943 0.192653
H22   H     H_    0.627143 0.880083 0.514539 0.200723
N12   N     N_3   0.606458 0.155054 0.448147 -0.424108
H23   H     H_    0.588590 0.126923 0.412388 0.193015
H24   H     H_    0.626162 0.118337 0.477982 0.200449
N13   N     N_3   0.375874 0.833368 0.453103 -0.468413
H25   H     H_    0.388871 0.863332 0.417201 0.195124
H26   H     H_    0.354583 0.867913 0.483948 0.211713
N14   N     N_3   0.379954 0.168256 0.551279 -0.466976
H27   H     H_    0.395633 0.137942 0.586519 0.196162
H28   H     H_    0.356499 0.134203 0.521272 0.212432
C65   C     C_1   0.499836 0.292532 0.057825 0.260422
N15   N     N_1   0.504693 0.237136 0.079993 -0.162815
C66   C     C_1   0.455492 0.693985 0.942999 0.260307
N16   N     N_1   0.447924 0.749118 0.920870 -0.163088
N17   N     N_3   0.614235 0.460089 0.203233 -0.434671
H29   H     H_    0.654111 0.496286 0.213429 0.198623
H30   H     H_    0.631207 0.408247 0.214141 0.216561
N18   N     N_3   0.373278 0.438182 0.787832 -0.433957
H31   H     H_    0.328734 0.467452 0.775390 0.197079
H32   H     H_    0.367061 0.384625 0.774969 0.212883
C67   C     C_1   0.621878 0.459001 0.325369 0.161527
N19   N     N_1   0.673564 0.443028 0.348260 -0.203430
C68   C     C_1   0.377479 0.442100 0.666535 0.165345
N20   N     N_1   0.329863 0.420772 0.641033 -0.206914
N21   N     N_3   0.372204 0.536528 0.331620 -0.463198
H33   H     H_    0.382875 0.583072 0.355105 0.206089
H34   H     H_    0.361004 0.495189 0.360108 0.195240
N22   N     N_3   0.607175 0.566390 0.680175 -0.460232
H35   H     H_    0.628376 0.534389 0.647776 0.183549
H36   H     H_    0.587815 0.614088 0.662594 0.204956
N23   N     N_3   0.365961 0.529502 0.211304 -0.435762
H37   H     H_    0.350044 0.581796 0.222169 0.221426
H38   H     H_    0.327836 0.493801 0.225602 0.207824
N24   N     N_3   0.602888 0.552913 0.799644 -0.438258
H39   H     H_    0.608247 0.607769 0.791005 0.223731
H40   H     H_    0.649305 0.526564 0.787792 0.206072
C69   C     C_1   0.689758 0.417664 0.597021 0.158516
N25   N     N_1   0.653922 0.383221 0.625560 -0.177841
C70   C     C_1   0.311518 0.587755 0.594865 0.191423
N26   N     N_1   0.347943 0.623026 0.622766 -0.177802
C71   C     C_1   0.267446 0.414619 0.434660 0.153522
N27   N     N_1   0.285993 0.378334 0.397306 -0.190228
C72   C     C_1   0.731398 0.577881 0.429931 0.179124
N28   N     N_1   0.712092 0.609904 0.390574 -0.183523
C73   C     C_1   0.924134 0.635737 0.560553 0.180861
N29   N     N_1   0.893328 0.689597 0.563492 -0.179505
C74   C     C_1   0.076294 0.369576 0.567314 0.185102
N30   N     N_1   0.107143 0.316119 0.573000 -0.180652
C75   C     C_1   0.072140 0.636437 0.548078 0.173792
N31   N     N_1   0.100790 0.690698 0.542946 -0.186697
C76   C     C_1   0.928294 0.367688 0.554017 0.177617
N32   N     N_1   0.899689 0.313059 0.551244 -0.180411

loop_
_geom_bond_atom_site_label_1
_geom_bond_atom_site_label_2
_ccdc_geom_bond_type
C44   C49   S    
C30   C74   S    
C54   O12   S    
C74   N30   T    
C1    O1    A    
C1    C26   S    
C19   C23   A    
C69   N25   T    
N18   H31   S    
C51   O9    S    
N12   H24   S    
C76   N32   T    
C66   N16   T    
C40   N12   S    
C38   N4    A    
O2    Zn2   S    
C15   C19   A    
C46   C49   A    
O1    Zn1   S    
C59   C64   A    
O8    Zn2   S    
C21   H7    S    
C60   C63   A    
C17   C26   A    
C27   O8    A    
C38   C42   A    
C6    C68   S    
C52   N2    A    
N11   H22   S    
C57   C59   A    
N10   H19   S    
C58   C60   A    
N13   H25   S    
C7    C27   S    
N21   H34   S    
C22   H8    S    
C61   C63   A    
N14   H27   S    
C62   C64   A    
C2    O3    A    
C52   C60   A    
N7    H14   S    
C54   N2    A    
C37   C41   A    
N9    H18   S    
C20   C24   A    
N13   H26   S    
C71   N27   T    
C31   C33   A    
C16   C70   S    
C36   N4    A    
C3    C13   A    
C29   C73   S    
O5    Zn1   S    
N21   H33   S    
C37   N3    A    
C28   O7    A    
O4    Zn2   S    
C41   C43   A    
C20   H6    S    
C17   C71   S    
C18   C25   A    
C42   C44   A    
C41   N13   S    
C47   H3    S    
N12   H23   S    
C63   C65   S    
N7    H13   S    
C47   C50   A    
C53   C55   A    
C16   C26   A    
O7    Zn1   S    
C54   C56   A    
C4    N18   S    
C28   O6    A    
C39   N11   S    
C14   N1    S    
C36   C40   A    
C4    C6    A    
N5    H9    S    
C37   N9    S    
C42   N14   S    
C27   O5    A    
C39   C43   A    
C29   C34   A    
C17   C21   A    
C12   N24   S    
C15   C69   S    
C32   C34   A    
C38   N10   S    
C35   C39   A    
C62   N6    S    
C2    O2    A    
N5    H10   S    
C11   N23   S    
C75   N31   T    
C5    C67   S    
C16   C20   A    
C23   C34   S    
C35   N3    A    
C32   C76   S    
N8    H16   S    
C53   O11   S    
C48   H4    S    
N6    H12   S    
C9    C11   A    
C65   N15   T    
C18   C72   S    
C10   C12   A    
C9    N21   S    
N24   H40   S    
C48   C49   A    
C12   C14   A    
C55   C57   A    
C45   H1    S    
N17   H29   S    
C8    C28   S    
C56   C62   A    
C19   H5    S    
C51   C59   A    
C67   N19   T    
C73   N29   T    
C5    C7    A    
C45   C48   A    
C7    C9    A    
C46   C47   A    
C30   C33   A    
C18   C22   A    
C53   N1    A    
C51   N1    A    
N24   H39   S    
C3    C5    A    
N18   H32   S    
C6    C8    A    
C36   N8    S    
C43   C50   S    
C46   H2    S    
N22   H36   S    
C64   C66   S    
C24   C33   S    
O6    Zn2   S    
C3    N17   S    
N23   H38   S    
C29   C31   A    
C35   N7    S    
C70   N26   T    
C30   C32   A    
C11   C13   A    
C57   C58   A    
C68   N20   T    
N10   H20   S    
C45   C50   A    
C55   C61   A    
C52   O10   S    
N8    H15   S    
C56   C58   A    
C2    C25   S    
C4    C14   A    
N6    H11   S    
N14   H28   S    
O3    Zn1   S    
C15   C25   A    
N22   H35   S    
N3    Zn1   S    
C40   C44   A    
C13   N2    S    
C8    C10   A    
C21   C24   A    
N11   H21   S    
N9    H17   S    
N17   H30   S    
C1    O4    A    
C22   C23   A    
C10   N22   S    
C72   N28   T    
N23   H37   S    
C31   C75   S    
C61   N5    S    
N4    Zn2   S    
