data_mof_unit_20132.cif
_audit_creation_date              2012-12-11T15:10:50-0500
_audit_creation_method            fapswitch 2.2
_symmetry_space_group_name_H-M    P1
_symmetry_Int_Tables_number       1
_space_group_crystal_system       triclinic
_cell_length_a                    21.142752
_cell_length_b                    7.239269
_cell_length_c                    18.263523
_cell_angle_alpha                 90.001022
_cell_angle_beta                  93.431836
_cell_angle_gamma                 90.002226
_cell_volume                      2790.36666675

loop_
_atom_site_label
_atom_site_type_symbol
_atom_type_description
_atom_site_fract_x
_atom_site_fract_y
_atom_site_fract_z
_atom_type_partial_charge
O1    O     O_R   0.448880 0.506250 0.415280 -0.532567
O2    O     O_R   0.551120 0.006250 0.584720 -0.532535
O3    O     O_R   0.434830 0.174000 0.557310 -0.522379
O4    O     O_R   0.565170 0.674000 0.442690 -0.522407
C1    C     C_R   0.416987 0.344577 0.579650 0.693823
C2    C     C_R   0.583012 0.844580 0.420350 0.693852
O5    O     O_R   0.441680 0.176440 0.414130 -0.526673
O6    O     O_R   0.558320 0.676440 0.585870 -0.526727
O7    O     O_R   0.558020 0.007570 0.440520 -0.513943
O8    O     O_R   0.441980 0.507570 0.559480 -0.513978
C3    C     C_R   0.428073 0.344807 0.388288 0.763386
C4    C     C_R   0.571925 0.844816 0.611713 0.763408
O9    O     O_3   0.538160 0.339670 0.508820 -0.370331
O10   O     O_3   0.461840 0.839670 0.491180 -0.370327
V1    V     V_3+5 0.492920 0.064260 0.498360 1.506550
V2    V     V_3+5 0.507080 0.564260 0.501640 1.506391
C5    C     C_R   0.876466 0.981758 0.687572 0.577810
C6    C     C_R   0.123575 0.482443 0.312399 0.577802
C7    C     C_R   0.887436 0.942624 0.819474 -0.261464
C8    C     C_R   0.112565 0.442687 0.180528 -0.261458
C9    C     C_R   0.582473 0.814665 0.746336 0.618143
C10   C     C_R   0.417497 0.314229 0.253682 0.618163
C11   C     C_R   0.617531 0.812008 0.813196 -0.184105
C12   C     C_R   0.382431 0.311419 0.186830 -0.184114
C13   C     C_R   0.682639 0.843497 0.816699 -0.261335
C14   C     C_R   0.317334 0.343092 0.183321 -0.261337
C15   C     C_R   0.714965 0.879435 0.752619 0.147700
C16   C     C_R   0.285030 0.379369 0.247386 0.147707
C17   C     C_R   0.678488 0.883921 0.683865 -0.012350
C18   C     C_R   0.321520 0.384060 0.316130 -0.012342
C19   C     C_R   0.782158 0.910785 0.754550 0.043458
C20   C     C_R   0.217845 0.410865 0.245449 0.043451
C21   C     C_R   0.810909 0.947775 0.687635 -0.107623
C22   C     C_R   0.189120 0.448262 0.312345 -0.107589
C23   C     C_R   0.774083 0.951264 0.621273 -0.074506
C24   C     C_R   0.225959 0.451966 0.378696 -0.074507
C25   C     C_R   0.709194 0.919554 0.619319 -0.176582
C26   C     C_R   0.290837 0.420072 0.380658 -0.176620
C27   C     C_R   0.822033 0.907530 0.820350 -0.324163
C28   C     C_R   0.177955 0.407373 0.179663 -0.324162
C29   C     C_R   0.914122 0.980310 0.752908 0.556917
C30   C     C_R   0.085907 0.480801 0.247073 0.556947
C31   C     C_R   0.611951 0.850815 0.681194 -0.219509
C32   C     C_R   0.388045 0.350756 0.318809 -0.219518
C33   C     C_1   0.864617 0.938933 0.132210 -0.154709
C34   C     C_1   0.135384 0.438942 0.867790 -0.154710
C35   C     C_1   0.821803 0.924877 0.176019 0.040017
C36   C     C_1   0.178198 0.424884 0.823981 0.040031
C37   C     C_1   0.771269 0.905758 0.228180 0.036145
C38   C     C_1   0.228732 0.405759 0.771821 0.036163
C39   C     C_1   0.728710 0.889126 0.272186 0.034703
C40   C     C_1   0.271291 0.389123 0.727815 0.034722
C41   C     C_1   0.678150 0.870002 0.324312 0.037578
C42   C     C_1   0.321850 0.369995 0.675689 0.037599
C43   C     C_1   0.635293 0.855944 0.368061 -0.155425
C44   C     C_1   0.364706 0.355936 0.631940 -0.155416
O11   O     O_R   0.058070 0.289240 0.940580 -0.516166
O12   O     O_R   0.941930 0.789240 0.059420 -0.516141
O13   O     O_R   0.058330 0.616740 0.085880 -0.528555
O14   O     O_R   0.941670 0.116740 0.914120 -0.528595
C45   C     C_R   0.071992 0.448781 0.111764 0.799145
C46   C     C_R   0.928008 0.948772 0.888237 0.799164
O15   O     O_R   0.065180 0.619040 0.942700 -0.524708
O16   O     O_R   0.934820 0.119040 0.057300 -0.524731
O17   O     O_R   0.948870 0.787780 0.915270 -0.531363
O18   O     O_R   0.051130 0.287780 0.084730 -0.531377
C47   C     C_R   0.083166 0.450327 0.920173 0.703652
C48   C     C_R   0.916834 0.950324 0.079827 0.703684
O19   O     O_3   0.961870 0.453310 0.991210 -0.373038
O20   O     O_3   0.038130 0.953310 0.008790 -0.373028
V3    V     V_3+5 0.007070 0.728770 0.001630 1.501805
V4    V     V_3+5 0.992930 0.228770 0.998370 1.501678
F1    F     F_    0.977096 0.015902 0.751283 -0.630010
F2    F     F_    0.022950 0.516632 0.248687 -0.630015
H1    H     H_    0.795532 0.978865 0.569980 0.191353
H2    H     H_    0.204530 0.479877 0.429974 0.191349
F3    F     F_    0.904245 0.018016 0.623937 -0.607543
F4    F     F_    0.095823 0.519109 0.376014 -0.607563
H3    H     H_    0.803867 0.880538 0.873169 0.139524
H4    H     H_    0.196100 0.380058 0.126859 0.139550
F5    F     F_    0.519186 0.781519 0.745105 -0.685478
F6    F     F_    0.480770 0.280859 0.254921 -0.685479
H5    H     H_    0.706224 0.838618 0.870564 0.142319
H6    H     H_    0.293739 0.338078 0.129463 0.142319
H7    H     H_    0.594002 0.784362 0.863100 0.161969
H8    H     H_    0.405942 0.283499 0.136939 0.161969
H9    H     H_    0.683145 0.923596 0.566460 0.098590
H10   H     H_    0.316898 0.424286 0.433507 0.098667

loop_
_geom_bond_atom_site_label_1
_geom_bond_atom_site_label_2
_ccdc_geom_bond_type
C15   C17   A    
C1    C44   S    
O1    C3    A    
C2    C43   S    
O16   V4    S    
O2    C4    A    
C2    O7    A    
C35   C37   S    
O5    C3    A    
C23   H1    S    
O16   C48   A    
C23   C25   A    
C12   C14   A    
C4    C31   S    
C6    C30   A    
C8    C28   A    
O12   V3    S    
O14   V4    S    
C7    C46   S    
C18   C26   A    
O14   C46   A    
C8    C45   S    
C24   H2    S    
C9    C31   A    
C45   O18   A    
C10   C32   A    
O18   V4    S    
C16   C18   A    
C37   C39   T    
C38   C40   T    
C28   H4    S    
O20   V3    S    
O6    C4    A    
C36   C38   S    
O6    V2    S    
C17   C31   A    
C18   C32   A    
C5    C21   A    
O11   C47   A    
C40   C42   S    
O15   C47   A    
C33   C35   T    
C42   C44   T    
O13   C45   A    
C30   F2    S    
C19   C21   A    
C15   C19   A    
C16   C20   A    
O4    C2    A    
O17   V3    S    
C26   H10   S    
C39   C41   S    
C20   C22   A    
O4    V2    S    
O19   V4    S    
C6    F4    S    
C33   C48   S    
C5    F3    S    
C3    C32   S    
O1    V2    S    
O2    V1    S    
C6    C22   A    
C7    C27   A    
O12   C48   A    
C9    F5    S    
C9    C11   A    
C10   C12   A    
C41   C43   T    
C10   F6    S    
O3    V1    S    
C14   H6    S    
C46   O17   A    
C25   H9    S    
O15   V3    S    
O3    C1    A    
C8    C30   A    
C13   C15   A    
C14   C16   A    
C24   C26   A    
O7    V1    S    
C34   C47   S    
O8    V2    S    
O13   V3    S    
O5    V1    S    
C21   C23   A    
C19   C27   A    
C22   C24   A    
C20   C28   A    
O11   V4    S    
C5    C29   A    
C29   F1    S    
C34   C36   T    
C1    O8    A    
C11   C13   A    
C11   H7    S    
O9    V2    S    
C17   C25   A    
C13   H5    S    
O10   V1    S    
C12   H8    S    
C7    C29   A    
C27   H3    S    
