data_mof_unit_42085.cif
_audit_creation_date              2012-12-11T15:22:49-0500
_audit_creation_method            fapswitch 2.2
_symmetry_space_group_name_H-M    P1
_symmetry_Int_Tables_number       1
_space_group_crystal_system       triclinic
_cell_length_a                    22.435137
_cell_length_b                    12.953713
_cell_length_c                    26.983853
_cell_angle_alpha                 90.062835
_cell_angle_beta                  90.394184
_cell_angle_gamma                 89.746178
_cell_volume                      7841.73518987

loop_
_atom_site_label
_atom_site_type_symbol
_atom_type_description
_atom_site_fract_x
_atom_site_fract_y
_atom_site_fract_z
_atom_type_partial_charge
C1    C     C_R   0.705777 0.307030 0.173111 0.553785
C2    C     C_R   0.278986 0.346105 0.821432 0.542109
C3    C     C_R   0.205767 0.807003 0.173112 0.553811
C4    C     C_R   0.778980 0.846106 0.821430 0.542129
C5    C     C_R   0.476236 0.167071 0.870500 -0.004445
C6    C     C_R   0.533138 0.159227 0.125467 -0.007763
C7    C     C_R   0.976207 0.667119 0.870503 -0.004420
C8    C     C_R   0.033261 0.659229 0.125438 -0.007737
C9    C     C_R   0.510901 0.249805 0.103597 -0.155194
C10   C     C_R   0.468787 0.257984 0.898462 -0.134026
C11   C     C_R   0.010819 0.749697 0.103611 -0.155191
C12   C     C_R   0.968572 0.757932 0.898505 -0.134018
C13   C     C_R   0.501266 0.253569 0.052194 0.007960
C14   C     C_R   0.482288 0.258812 0.949050 0.009015
C15   C     C_R   0.001168 0.753491 0.052213 0.007947
C16   C     C_R   0.982103 0.758766 0.949084 0.008946
C17   C     C_R   0.513972 0.165617 0.022906 0.059416
C18   C     C_R   0.504895 0.168422 0.971413 0.060664
C19   C     C_R   0.014078 0.665685 0.022884 0.059355
C20   C     C_R   0.004944 0.668502 0.971399 0.060625
C21   C     C_R   0.480191 0.343938 0.029353 -0.137823
C22   C     C_R   0.470597 0.346467 0.978120 -0.136675
C23   C     C_R   0.979847 0.843738 0.029419 -0.137737
C24   C     C_R   0.970215 0.846286 0.978192 -0.136596
C25   C     C_R   0.736354 0.974745 0.126471 0.018715
C26   C     C_R   0.254755 0.944329 0.866807 0.012085
C27   C     C_R   0.236357 0.474704 0.126478 0.018645
C28   C     C_R   0.754766 0.444333 0.866807 0.012100
C29   C     C_R   0.757015 0.052560 0.094988 -0.134983
C30   C     C_R   0.204557 0.976855 0.893694 -0.136301
C31   C     C_R   0.257174 0.552411 0.095001 -0.134997
C32   C     C_R   0.704539 0.476787 0.893676 -0.136350
C33   C     C_R   0.753445 0.042340 0.044207 -0.125727
C34   C     C_R   0.195493 0.943662 0.941852 -0.122576
C35   C     C_R   0.253606 0.542212 0.044220 -0.125675
C36   C     C_R   0.695487 0.443632 0.941841 -0.122585
C37   C     C_R   0.732530 0.950855 0.022962 0.023200
C38   C     C_R   0.235846 0.875597 0.964546 0.024161
C39   C     C_R   0.232532 0.450839 0.022969 0.023234
C40   C     C_R   0.735883 0.375676 0.964559 0.024158
C41   C     C_R   0.711749 0.871603 0.054007 -0.119768
C42   C     C_R   0.283895 0.836780 0.937114 -0.119303
C43   C     C_R   0.211584 0.371700 0.054001 -0.119904
C44   C     C_R   0.783962 0.336919 0.937146 -0.119370
C45   C     C_R   0.554967 0.156749 0.176827 0.538203
C46   C     C_R   0.446591 0.157701 0.822197 0.548656
C47   C     C_R   0.054990 0.656747 0.176819 0.538207
C48   C     C_R   0.946584 0.657706 0.822198 0.548628
C49   C     C_R   0.712508 0.883158 0.105915 -0.020615
C50   C     C_R   0.293763 0.869842 0.888311 -0.018123
C51   C     C_R   0.212351 0.383242 0.105910 -0.020670
C52   C     C_R   0.793818 0.369941 0.888338 -0.018130
C53   C     C_R   0.697203 0.875376 0.942064 -0.117096
C54   C     C_R   0.279525 0.846809 0.049094 -0.129031
C55   C     C_R   0.197127 0.375671 0.942023 -0.117076
C56   C     C_R   0.779562 0.347062 0.049122 -0.129030
C57   C     C_R   0.707894 0.851499 0.892413 -0.128661
C58   C     C_R   0.272663 0.833183 0.100050 -0.135139
C59   C     C_R   0.207817 0.351820 0.892366 -0.128729
C60   C     C_R   0.772692 0.333421 0.100076 -0.135106
C61   C     C_R   0.797279 0.955833 0.894803 -0.126580
C62   C     C_R   0.165563 0.828396 0.088871 -0.127874
C63   C     C_R   0.297485 0.455426 0.894896 -0.126422
C64   C     C_R   0.665597 0.328365 0.088867 -0.127965
C65   C     C_R   0.787393 0.977666 0.944277 -0.117597
C66   C     C_R   0.172277 0.839670 0.038033 -0.115336
C67   C     C_R   0.287594 0.477224 0.944367 -0.117613
C68   C     C_R   0.672319 0.339652 0.038032 -0.115436
C69   C     C_R   0.738087 0.935795 0.968911 0.043721
C70   C     C_R   0.229285 0.850873 0.017650 0.029877
C71   C     C_R   0.238130 0.435733 0.968927 0.043739
C72   C     C_R   0.729327 0.350989 0.017665 0.029785
C73   C     C_R   0.759244 0.888798 0.869008 0.024011
C74   C     C_R   0.215412 0.824675 0.120183 0.022261
C75   C     C_R   0.259294 0.388782 0.869026 0.024055
C76   C     C_R   0.715437 0.324759 0.120191 0.022215
C77   C     C_R   0.527250 0.169904 0.370835 0.021899
C78   C     C_R   0.472818 0.169126 0.629190 0.022832
C79   C     C_R   0.027310 0.669919 0.370859 0.021883
C80   C     C_R   0.972881 0.669105 0.629215 0.022836
C81   C     C_R   0.536056 0.261414 0.397901 -0.133418
C82   C     C_R   0.464848 0.261378 0.602523 -0.132888
C83   C     C_R   0.036237 0.761371 0.397945 -0.133594
C84   C     C_R   0.965043 0.761415 0.602570 -0.132780
C85   C     C_R   0.524725 0.264280 0.448488 -0.132630
C86   C     C_R   0.476257 0.264526 0.551962 -0.132738
C87   C     C_R   0.024949 0.764222 0.448538 -0.132721
C88   C     C_R   0.976492 0.764574 0.552015 -0.132687
C89   C     C_R   0.730991 0.003492 0.178833 0.520957
C90   C     C_R   0.268088 0.999887 0.820181 0.535503
C91   C     C_R   0.230991 0.503487 0.178836 0.520965
C92   C     C_R   0.768090 0.499887 0.820180 0.535520
C93   C     C_R   0.503552 0.176210 0.472835 0.031700
C94   C     C_R   0.496664 0.175954 0.527232 0.031764
C95   C     C_R   0.003681 0.676207 0.472871 0.031716
C96   C     C_R   0.996794 0.675944 0.527269 0.031746
C97   C     C_R   0.490134 0.087441 0.444932 -0.118061
C98   C     C_R   0.509277 0.086233 0.554742 -0.117975
C99   C     C_R   0.990157 0.587505 0.444954 -0.118081
C100  C     C_R   0.009291 0.586156 0.554763 -0.117956
C101  C     C_R   0.502282 0.084059 0.394393 -0.121516
C102  C     C_R   0.497063 0.082614 0.605263 -0.121512
C103  C     C_R   0.002276 0.584127 0.394408 -0.121557
C104  C     C_R   0.997048 0.582536 0.605277 -0.121477
C105  C     C_R   0.734915 0.977825 0.375007 0.044157
C106  C     C_R   0.265362 0.977901 0.624913 0.045319
C107  C     C_R   0.234929 0.477830 0.374997 0.044318
C108  C     C_R   0.765364 0.477882 0.624908 0.045151
C109  C     C_R   0.728783 0.876722 0.392247 -0.140688
C110  C     C_R   0.271226 0.876763 0.607451 -0.141842
C111  C     C_R   0.229200 0.376657 0.392230 -0.140896
C112  C     C_R   0.771605 0.376811 0.607446 -0.141610
C113  C     C_R   0.728576 0.858768 0.443170 -0.130916
C114  C     C_R   0.271334 0.859079 0.556489 -0.131131
C115  C     C_R   0.229066 0.358695 0.443153 -0.130974
C116  C     C_R   0.771761 0.359120 0.556484 -0.131060
C117  C     C_R   0.732622 0.942332 0.476117 0.030830
C118  C     C_R   0.267394 0.942904 0.523730 0.030450
C119  C     C_R   0.232801 0.442301 0.476102 0.030727
C120  C     C_R   0.767503 0.442901 0.523725 0.030526
C121  C     C_R   0.734718 0.043513 0.458499 -0.104432
C122  C     C_R   0.265569 0.044032 0.541567 -0.105011
C123  C     C_R   0.234535 0.543506 0.458488 -0.104450
C124  C     C_R   0.765350 0.544011 0.541563 -0.104999
C125  C     C_R   0.736811 0.061046 0.408158 -0.099219
C126  C     C_R   0.263643 0.061340 0.591951 -0.098436
C127  C     C_R   0.236531 0.561070 0.408146 -0.098966
C128  C     C_R   0.763351 0.561300 0.591944 -0.098711
C129  C     C_R   0.795622 0.958016 0.551647 -0.022591
C130  C     C_R   0.204586 0.960189 0.448083 -0.022331
C131  C     C_R   0.295572 0.458553 0.551747 -0.022571
C132  C     C_R   0.704527 0.459767 0.448158 -0.022335
C133  C     C_R   0.721073 0.347530 0.321884 0.572917
C134  C     C_R   0.278956 0.347262 0.678065 0.564129
C135  C     C_R   0.221075 0.847535 0.321883 0.572789
C136  C     C_R   0.778959 0.847259 0.678064 0.564325
C137  C     C_R   0.803384 0.941514 0.602042 -0.183975
C138  C     C_R   0.196836 0.943437 0.397685 -0.185459
C139  C     C_R   0.303261 0.442013 0.602150 -0.184043
C140  C     C_R   0.696736 0.443064 0.397765 -0.185385
C141  C     C_R   0.706503 0.857431 0.606851 0.224015
C142  C     C_R   0.293533 0.857168 0.393027 0.223849
C143  C     C_R   0.206621 0.357052 0.606759 0.224017
C144  C     C_R   0.793602 0.357399 0.392970 0.223730
C145  C     C_R   0.697955 0.876647 0.556216 -0.133945
C146  C     C_R   0.302062 0.876544 0.443644 -0.134094
C147  C     C_R   0.198145 0.376277 0.556121 -0.133932
C148  C     C_R   0.802172 0.376746 0.443588 -0.134167
C149  C     C_R   0.742477 0.924517 0.528694 -0.013920
C150  C     C_R   0.257602 0.925513 0.471109 -0.013674
C151  C     C_R   0.242595 0.424572 0.528691 -0.013919
C152  C     C_R   0.757658 0.425426 0.471115 -0.013644
C153  C     C_R   0.760735 0.887277 0.629443 0.042241
C154  C     C_R   0.239360 0.887919 0.370393 0.040239
C155  C     C_R   0.260716 0.387309 0.629452 0.042172
C156  C     C_R   0.739340 0.387877 0.370403 0.040301
C157  C     C_R   0.554196 0.159165 0.321628 0.545467
C158  C     C_R   0.445785 0.158854 0.678364 0.541101
C159  C     C_R   0.054206 0.659166 0.321634 0.545451
C160  C     C_R   0.945796 0.658852 0.678370 0.541111
C161  C     C_R   0.731490 0.002971 0.323087 0.529670
C162  C     C_R   0.268567 0.002711 0.676896 0.526695
C163  C     C_R   0.231498 0.502948 0.323077 0.529640
C164  C     C_R   0.768572 0.502730 0.676889 0.526749
C165  C     C_R   0.543846 0.071381 0.095985 -0.125205
C166  C     C_R   0.502724 0.079907 0.892154 -0.134640
C167  C     C_R   0.044233 0.571546 0.095912 -0.125245
C168  C     C_R   0.002887 0.580084 0.892109 -0.134725
C169  C     C_R   0.535233 0.074271 0.045085 0.009827
C170  C     C_R   0.516665 0.079594 0.942541 0.012663
C171  C     C_R   0.035590 0.574463 0.045016 0.009809
C172  C     C_R   0.016886 0.579796 0.942488 0.012664
C173  C     C_R   0.539231 0.990096 0.964991 -0.135168
C174  C     C_R   0.548574 0.987493 0.016015 -0.131500
C175  C     C_R   0.039692 0.490429 0.964891 -0.135130
C176  C     C_R   0.049115 0.487829 0.015907 -0.131444
Cr1   Cr    Cr6+3 0.756570 0.170940 0.251190 1.051476
Cr2   Cr    Cr6+3 0.243430 0.170940 0.748810 1.050711
Cr3   Cr    Cr6+3 0.256570 0.670940 0.251190 1.051469
Cr4   Cr    Cr6+3 0.743430 0.670940 0.748810 1.050691
Cr5   Cr    Cr6+3 0.623740 0.299110 0.249580 0.988660
Cr6   Cr    Cr6+3 0.376260 0.299110 0.750420 1.002358
Cr7   Cr    Cr6+3 0.123740 0.799110 0.249580 0.988689
Cr8   Cr    Cr6+3 0.876260 0.799110 0.750420 1.002383
Cr9   Cr    Cr6+3 0.625990 0.036240 0.250480 1.023881
Cr10  Cr    Cr6+3 0.374010 0.036240 0.749520 1.033464
Cr11  Cr    Cr6+3 0.125990 0.536240 0.250480 1.023912
Cr12  Cr    Cr6+3 0.874010 0.536240 0.749520 1.033445
H1    H     H_    0.509063 0.010226 0.870482 0.126235
H2    H     H_    0.562025 0.001315 0.112210 0.139945
H3    H     H_    0.009359 0.510486 0.870404 0.126084
H4    H     H_    0.062608 0.501599 0.112106 0.139958
H5    H     H_    0.837192 0.986093 0.877855 0.130700
H6    H     H_    0.121344 0.821967 0.103951 0.127571
H7    H     H_    0.337514 0.485390 0.878009 0.130735
H8    H     H_    0.621381 0.321819 0.103939 0.127520
H9    H     H_    0.696742 0.799417 0.038056 0.105851
H10   H     H_    0.314035 0.780970 0.953821 0.095025
H11   H     H_    0.196449 0.299606 0.038034 0.105841
H12   H     H_    0.814136 0.281186 0.953874 0.094994
H13   H     H_    0.555624 0.328792 0.380842 0.131042
H14   H     H_    0.445886 0.329333 0.619868 0.130729
H15   H     H_    0.055868 0.828705 0.380894 0.131153
H16   H     H_    0.946155 0.829420 0.619927 0.130573
H17   H     H_    0.527134 0.017874 0.536990 0.100691
H18   H     H_    0.471690 0.019579 0.462386 0.101131
H19   H     H_    0.027072 0.517749 0.537001 0.100716
H20   H     H_    0.971646 0.519689 0.462399 0.101136
H21   H     H_    0.504019 0.010811 0.625052 0.131794
H22   H     H_    0.494690 0.012852 0.374281 0.132938
H23   H     H_    0.003911 0.510688 0.625051 0.131836
H24   H     H_    0.994600 0.512965 0.374282 0.132914
H25   H     H_    0.535371 0.333905 0.468806 0.114773
H26   H     H_    0.466256 0.334892 0.531957 0.114992
H27   H     H_    0.035691 0.833790 0.468869 0.114633
H28   H     H_    0.966596 0.835002 0.532026 0.115217
H29   H     H_    0.725449 0.812620 0.366586 0.101903
H30   H     H_    0.274404 0.812457 0.632965 0.100853
H31   H     H_    0.226120 0.312521 0.366568 0.101812
H32   H     H_    0.775040 0.312542 0.632960 0.100979
H33   H     H_    0.845281 0.964520 0.618894 0.135931
H34   H     H_    0.155029 0.967229 0.380747 0.135674
H35   H     H_    0.345038 0.465380 0.619090 0.135914
H36   H     H_    0.654851 0.466615 0.380885 0.135688
H37   H     H_    0.548566 0.921610 0.943233 0.095353
H38   H     H_    0.565696 0.917326 0.032804 0.098260
H39   H     H_    0.049153 0.422038 0.943104 0.095335
H40   H     H_    0.066429 0.417764 0.032659 0.098279
H41   H     H_    0.727524 0.780353 0.456946 0.105795
H42   H     H_    0.272226 0.780711 0.542538 0.106108
H43   H     H_    0.228305 0.280265 0.456928 0.105948
H44   H     H_    0.772939 0.280761 0.542538 0.105921
H45   H     H_    0.656947 0.853326 0.538006 0.098909
H46   H     H_    0.342985 0.852379 0.461901 0.098691
H47   H     H_    0.157252 0.352625 0.537835 0.099136
H48   H     H_    0.843172 0.352802 0.461794 0.098472
H49   H     H_    0.737281 0.108372 0.483832 0.113246
H50   H     H_    0.263124 0.109073 0.516380 0.113330
H51   H     H_    0.236858 0.608387 0.483824 0.113268
H52   H     H_    0.762677 0.609028 0.516378 0.113346
H53   H     H_    0.739041 0.139919 0.394943 0.140437
H54   H     H_    0.261604 0.140183 0.605350 0.141140
H55   H     H_    0.238470 0.639967 0.394928 0.140154
H56   H     H_    0.761040 0.640125 0.605334 0.141327
H57   H     H_    0.448329 0.325716 0.881844 0.130638
H58   H     H_    0.503363 0.317848 0.126168 0.114994
H59   H     H_    0.947950 0.825558 0.881925 0.130817
H60   H     H_    0.003096 0.817624 0.126219 0.114972
H61   H     H_    0.453116 0.416391 0.961339 0.104451
H62   H     H_    0.470600 0.412251 0.051146 0.108320
H63   H     H_    0.952543 0.916106 0.961447 0.104584
H64   H     H_    0.970089 0.911935 0.051244 0.108401
H65   H     H_    0.773865 0.124374 0.109761 0.137213
H66   H     H_    0.173561 0.033175 0.878641 0.132771
H67   H     H_    0.274152 0.624134 0.109776 0.137239
H68   H     H_    0.673508 0.533027 0.878601 0.132707
H69   H     H_    0.658139 0.843919 0.959767 0.092967
H70   H     H_    0.323964 0.856946 0.034541 0.107406
H71   H     H_    0.157965 0.344478 0.959686 0.092898
H72   H     H_    0.823997 0.357314 0.034577 0.107463
H73   H     H_    0.677666 0.799951 0.873204 0.119832
H74   H     H_    0.311884 0.830405 0.123629 0.129682
H75   H     H_    0.177472 0.300579 0.873097 0.119694
H76   H     H_    0.811904 0.330737 0.123669 0.129745
H77   H     H_    0.767622 0.106580 0.021588 0.114191
H78   H     H_    0.158330 0.975922 0.962150 0.106042
H79   H     H_    0.267922 0.606365 0.021600 0.114099
H80   H     H_    0.658296 0.475837 0.962126 0.106009
H81   H     H_    0.820632 0.022799 0.963720 0.096669
H82   H     H_    0.132745 0.840717 0.014771 0.118109
H83   H     H_    0.320937 0.522023 0.963869 0.096729
H84   H     H_    0.632794 0.340593 0.014759 0.118175
O1    O     O_R   0.769900 0.064540 0.196060 -0.530878
O2    O     O_R   0.230100 0.064540 0.803940 -0.526902
O3    O     O_R   0.269900 0.564540 0.196060 -0.530911
O4    O     O_R   0.730100 0.564540 0.803940 -0.526914
O5    O     O_R   0.574760 0.239320 0.300850 -0.506274
O6    O     O_R   0.425240 0.239320 0.699150 -0.507874
O7    O     O_R   0.074760 0.739320 0.300850 -0.506287
O8    O     O_R   0.925240 0.739320 0.699150 -0.507865
O9    O     O_R   0.566290 0.069580 0.305400 -0.509661
O10   O     O_R   0.433710 0.069580 0.694600 -0.514021
O11   O     O_R   0.066290 0.569580 0.305400 -0.509614
O12   O     O_R   0.933710 0.569580 0.694600 -0.514063
O13   O     O_R   0.680760 0.993330 0.302620 -0.497721
O14   O     O_R   0.319240 0.993330 0.697380 -0.502628
O15   O     O_R   0.180760 0.493330 0.302620 -0.497746
O16   O     O_R   0.819240 0.493330 0.697380 -0.502583
O17   O     O_3   0.668770 0.168760 0.250420 -0.270302
O18   O     O_3   0.331230 0.168760 0.749580 -0.249746
O19   O     O_3   0.168770 0.668760 0.250420 -0.270356
O20   O     O_3   0.831230 0.668760 0.749580 -0.249745
O21   O     O_R   0.750800 0.274080 0.199250 -0.504672
O22   O     O_R   0.249200 0.274080 0.800750 -0.502218
O23   O     O_R   0.250800 0.774080 0.199250 -0.504715
O24   O     O_R   0.749200 0.774080 0.800750 -0.502202
O25   O     O_R   0.669990 0.371670 0.194150 -0.520126
O26   O     O_R   0.330010 0.371670 0.805850 -0.526536
O27   O     O_R   0.169990 0.871670 0.194150 -0.520032
O28   O     O_R   0.830010 0.871670 0.805850 -0.526529
O29   O     O_R   0.574600 0.238480 0.197800 -0.520736
O30   O     O_R   0.425400 0.238480 0.802200 -0.504652
O31   O     O_R   0.074600 0.738480 0.197800 -0.520751
O32   O     O_R   0.925400 0.738480 0.802200 -0.504687
O33   O     O_R   0.566130 0.068680 0.194240 -0.515440
O34   O     O_R   0.433870 0.068680 0.805760 -0.507544
O35   O     O_R   0.066130 0.568680 0.194240 -0.515378
O36   O     O_R   0.933870 0.568680 0.805760 -0.507505
O37   O     O_R   0.680610 0.992490 0.199570 -0.492996
O38   O     O_R   0.319390 0.992490 0.800430 -0.486120
O39   O     O_R   0.180610 0.492490 0.199570 -0.493061
O40   O     O_R   0.819390 0.492490 0.800430 -0.486123
O41   O     O_R   0.770060 0.065440 0.307230 -0.497752
O42   O     O_R   0.229940 0.065440 0.692770 -0.499767
O43   O     O_R   0.270060 0.565440 0.307230 -0.497557
O44   O     O_R   0.729940 0.565440 0.692770 -0.500013
O45   O     O_R   0.750960 0.274920 0.302300 -0.430096
O46   O     O_R   0.249040 0.274920 0.697700 -0.437389
O47   O     O_R   0.250960 0.774920 0.302300 -0.430007
O48   O     O_R   0.749040 0.774920 0.697700 -0.437507
O49   O     O_R   0.670160 0.372580 0.305320 -0.547215
O50   O     O_R   0.329840 0.372580 0.694680 -0.546434
O51   O     O_R   0.170160 0.872580 0.305320 -0.547189
O52   O     O_R   0.829840 0.872580 0.694680 -0.546405
C177  C     C_R   0.689983 0.798067 0.137392 0.040423
C178  C     C_R   0.634350 0.752969 0.127086 -0.094128
C179  C     C_R   0.613292 0.672218 0.156426 -0.110918
C180  C     C_R   0.647528 0.635675 0.196183 -0.083242
C181  C     C_R   0.703037 0.679435 0.206529 -0.102428
C182  C     C_R   0.724334 0.760089 0.177247 -0.078972
H85   H     H_    0.607066 0.780856 0.096627 0.086452
H86   H     H_    0.570348 0.638097 0.148386 0.102929
H87   H     H_    0.631064 0.573422 0.218955 0.135440
H88   H     H_    0.729646 0.650691 0.237190 0.113761
H89   H     H_    0.767762 0.792300 0.185422 0.100459
C183  C     C_R   0.345107 0.825301 0.861467 0.048925
C184  C     C_R   0.403290 0.837668 0.880086 -0.085888
C185  C     C_R   0.451695 0.794599 0.854943 -0.112017
C186  C     C_R   0.442335 0.738580 0.811296 -0.104585
C187  C     C_R   0.384532 0.725312 0.792764 -0.110454
C188  C     C_R   0.335988 0.768261 0.817777 -0.072021
H90   H     H_    0.411140 0.881197 0.913794 0.105127
H91   H     H_    0.496465 0.804632 0.869296 0.090926
H92   H     H_    0.479859 0.705286 0.791886 0.107688
H93   H     H_    0.377333 0.681628 0.759051 0.104535
H94   H     H_    0.291374 0.757168 0.803186 0.098368
C189  C     C_R   0.189692 0.298238 0.137372 0.040513
C190  C     C_R   0.133973 0.253450 0.127073 -0.094089
C191  C     C_R   0.112812 0.172728 0.156374 -0.111008
C192  C     C_R   0.147035 0.135892 0.196080 -0.083290
C193  C     C_R   0.202623 0.179361 0.206423 -0.102304
C194  C     C_R   0.224019 0.259997 0.177183 -0.078951
H95   H     H_    0.106709 0.281550 0.096645 0.086397
H96   H     H_    0.069805 0.138842 0.148340 0.102951
H97   H     H_    0.130500 0.073642 0.218811 0.135157
H98   H     H_    0.229217 0.150396 0.237044 0.113820
H99   H     H_    0.267510 0.291977 0.185348 0.100439
C195  C     C_R   0.845200 0.325472 0.861517 0.048900
C196  C     C_R   0.903372 0.338021 0.880135 -0.085734
C197  C     C_R   0.951813 0.295014 0.855016 -0.111876
C198  C     C_R   0.942501 0.238877 0.811396 -0.104597
C199  C     C_R   0.884711 0.225431 0.792866 -0.110543
C200  C     C_R   0.836130 0.268316 0.817854 -0.072121
H100  H     H_    0.911184 0.381643 0.913821 0.105202
H101  H     H_    0.996573 0.305185 0.869368 0.090893
H102  H     H_    0.980054 0.205632 0.792005 0.107677
H103  H     H_    0.877550 0.181653 0.759174 0.104550
H104  H     H_    0.791526 0.257082 0.803267 0.098409
C201  C     C_R   0.845027 0.005343 0.523371 0.035378
C202  C     C_R   0.865019 0.104903 0.535420 -0.110669
C203  C     C_R   0.909328 0.151758 0.507160 -0.127091
C204  C     C_R   0.934651 0.098940 0.467257 -0.099592
C205  C     C_R   0.916189 0.998782 0.455867 -0.106890
C206  C     C_R   0.871575 0.951972 0.483785 -0.085146
H105  H     H_    0.845606 0.146703 0.566141 0.099569
H106  H     H_    0.923997 0.229070 0.516160 0.096764
H107  H     H_    0.968842 0.135393 0.445348 0.112192
H108  H     H_    0.936276 0.957541 0.425288 0.114445
H109  H     H_    0.857603 0.874374 0.474492 0.116639
C207  C     C_R   0.155282 0.008968 0.476269 0.035332
C208  C     C_R   0.135418 0.108719 0.463947 -0.110211
C209  C     C_R   0.091221 0.156952 0.492107 -0.128124
C210  C     C_R   0.065889 0.105352 0.532195 -0.100832
C211  C     C_R   0.084146 0.004958 0.543814 -0.105778
C212  C     C_R   0.128639 0.956764 0.515988 -0.085419
H110  H     H_    0.154837 0.149586 0.433078 0.100530
H111  H     H_    0.076654 0.234397 0.482891 0.097643
H112  H     H_    0.031818 0.142901 0.554048 0.109804
H113  H     H_    0.063994 0.964612 0.574501 0.113224
H114  H     H_    0.142451 0.879004 0.525463 0.116174
C213  C     C_R   0.344883 0.506468 0.523583 0.035364
C214  C     C_R   0.364601 0.606103 0.535811 -0.110626
C215  C     C_R   0.408812 0.653519 0.507664 -0.127581
C216  C     C_R   0.434307 0.601201 0.467690 -0.100015
C217  C     C_R   0.416152 0.500948 0.456140 -0.106382
C218  C     C_R   0.371641 0.453575 0.483949 -0.085198
H115  H     H_    0.345051 0.647521 0.566589 0.099717
H116  H     H_    0.423267 0.730882 0.516804 0.097048
H117  H     H_    0.468405 0.638101 0.445857 0.111660
H118  H     H_    0.436397 0.460075 0.425521 0.114284
H119  H     H_    0.357910 0.375910 0.474532 0.116550
C219  C     C_R   0.655150 0.508135 0.476415 0.035302
C220  C     C_R   0.635089 0.607831 0.464208 -0.110243
C221  C     C_R   0.590826 0.655686 0.492446 -0.127687
C222  C     C_R   0.565610 0.603744 0.532487 -0.100404
C223  C     C_R   0.584081 0.503413 0.544002 -0.106167
C224  C     C_R   0.628652 0.455607 0.516107 -0.085410
H120  H     H_    0.654411 0.648955 0.433372 0.100355
H121  H     H_    0.576108 0.733094 0.483323 0.097377
H122  H     H_    0.531470 0.640988 0.554390 0.110285
H123  H     H_    0.564032 0.462815 0.574662 0.113334
H124  H     H_    0.642636 0.377895 0.525504 0.116281
O53   O     O_3   0.663432 0.807850 0.634259 -0.685855
H125  H     H_    0.629000 0.791283 0.612454 0.313442
O54   O     O_3   0.336532 0.806433 0.365690 -0.683215
H126  H     H_    0.370916 0.789286 0.387530 0.313884
O55   O     O_3   0.163626 0.307036 0.634068 -0.685704
H127  H     H_    0.129302 0.290182 0.612193 0.313531
O56   O     O_3   0.836656 0.306957 0.365565 -0.683390
H128  H     H_    0.871103 0.290020 0.387358 0.313877

loop_
_geom_bond_atom_site_label_1
_geom_bond_atom_site_label_2
_ccdc_geom_bond_type
C99   C103  A    
C7    C168  A    
C146  H46   S    
C55   C59   A    
C142  C146  A    
C77   C101  A    
C19   C20   A    
C45   O33   A    
C53   C69   A    
C88   C96   A    
C184  C185  A    
C108  C164  S    
C209  C210  A    
C68   H84   S    
C37   C69   S    
C26   C50   A    
C197  H101  S    
C95   C99   A    
C78   C102  A    
C139  H35   S    
C29   C33   A    
C100  C104  A    
C204  C205  A    
C3    C74   S    
C9    C13   A    
C146  C150  A    
C131  C151  A    
C12   C16   A    
C56   C72   A    
C169  C174  A    
C178  C179  A    
C29   H65   S    
C92   O4    A    
Cr8   O20   S    
C172  C175  A    
C141  C145  A    
C132  C219  S    
C84   H16   S    
C6    C165  A    
C21   C22   A    
C89   O1    A    
C36   H80   S    
C56   H72   S    
C41   C49   A    
Cr12  O20   S    
C18   C170  A    
C165  C169  A    
C27   C31   A    
C42   H10   S    
Cr9   O17   S    
C187  C188  A    
Cr10  O14   S    
C82   H14   S    
C62   C66   A    
C193  H98   S    
C167  C171  A    
Cr4   O44   S    
C98   C102  A    
C60   C76   A    
C222  H122  S    
C23   H64   S    
C66   H82   S    
Cr5   O49   S    
C78   C82   A    
C134  C155  S    
C54   C70   A    
Cr3   O3    S    
C142  O54   S    
C68   C72   A    
C165  H2    S    
C137  C153  A    
C9    H58   S    
C3    O27   A    
C129  C201  S    
Cr8   O32   S    
C162  O14   A    
C163  O43   A    
C20   C172  A    
C131  C213  S    
C208  C209  A    
C54   H70   S    
C62   H6    S    
C210  C211  A    
C130  C138  A    
C5    C46   S    
C1    O25   A    
C160  O12   A    
C24   H63   S    
C84   C88   A    
C183  C184  A    
Cr7   O7    S    
C119  C123  A    
C26   C90   S    
C12   H59   S    
C215  C216  A    
Cr1   O17   S    
C105  C125  A    
Cr7   O19   S    
C7    C48   S    
Cr6   O30   S    
C132  C152  A    
C8    C47   S    
C133  O45   A    
C173  H37   S    
C222  C223  A    
C136  C153  S    
C66   C70   A    
C190  C191  A    
C206  H109  S    
C192  C193  A    
C80   C160  S    
C216  C217  A    
C157  O5    A    
C201  C206  A    
C61   C65   A    
C158  O10   A    
C129  C137  A    
C203  H106  S    
C196  C197  A    
C39   C71   S    
C47   O35   A    
C4    O28   A    
C35   H79   S    
C55   C71   A    
C2    C75   S    
C90   O38   A    
C207  C208  A    
C26   C30   A    
C198  H102  S    
Cr12  O12   S    
C191  C192  A    
Cr6   O50   S    
C130  C207  S    
C220  C221  A    
C159  O7    A    
C200  H104  S    
O56   H128  S    
C160  O8    A    
C134  O50   A    
C6    C9    A    
C202  C203  A    
Cr6   O6    S    
C129  C149  A    
Cr4   O20   S    
C64   C68   A    
C59   H75   S    
C144  O56   S    
C199  C200  A    
C138  H34   S    
C185  H91   S    
C118  C122  A    
C57   C73   A    
C162  O42   A    
C210  H112  S    
C189  C194  A    
C123  C127  A    
C208  H110  S    
C78   C158  S    
C87   C95   A    
C126  H54   S    
C23   C24   A    
C27   C91   S    
C196  H100  S    
C45   O29   A    
C97   H18   S    
Cr12  O36   S    
C110  C114  A    
C184  H90   S    
C44   C52   A    
C186  H92   S    
C116  H44   S    
Cr9   O33   S    
C79   C103  A    
C111  H31   S    
C197  C198  A    
C27   C51   A    
C123  H51   S    
C7    C12   A    
C176  H40   S    
C204  H107  S    
C30   C34   A    
C127  H55   S    
C221  C222  A    
C41   H9    S    
C10   C14   A    
C21   H62   S    
C140  H36   S    
C108  C128  A    
C116  C120  A    
C144  C156  A    
C147  C151  A    
C86   H26   S    
C121  C125  A    
C214  H115  S    
C217  H118  S    
C143  C155  A    
C139  C155  A    
C181  H88   S    
Cr7   O31   S    
C54   C58   A    
C17   C18   A    
C112  H32   S    
C90   O2    A    
C5    C166  A    
C142  C154  A    
C4    C73   S    
C42   C50   A    
C113  C117  A    
C107  C163  S    
C44   H12   S    
C115  C119  A    
C182  H89   S    
C105  C161  S    
C187  H93   S    
Cr10  O18   S    
C93   C97   A    
C112  C116  A    
C58   C74   A    
C219  C220  A    
Cr4   O48   S    
C105  C109  A    
C40   C72   S    
Cr8   O52   S    
C1    C76   S    
C107  C111  A    
C148  C152  A    
C180  C181  A    
C117  C149  S    
C102  H21   S    
C113  H41   S    
Cr8   O8    S    
C171  C176  A    
C1    O21   A    
C166  H1    S    
C14   C22   A    
C220  H120  S    
C3    O23   A    
C211  H113  S    
Cr8   O28   S    
C135  O47   A    
C122  H50   S    
C63   C75   A    
C192  H97   S    
C136  O48   A    
C64   H8    S    
C55   H71   S    
Cr1   O41   S    
C37   C41   A    
C109  H29   S    
C40   C44   A    
C138  C154  A    
Cr9   O9    S    
C191  H96   S    
C58   H74   S    
C83   C87   A    
C215  H116  S    
C38   C70   S    
Cr1   O21   S    
O53   H125  S    
C6    C45   S    
C145  H45   S    
Cr2   O18   S    
C133  C156  S    
Cr6   O26   S    
Cr3   O23   S    
C80   C84   A    
Cr1   O1    S    
C15   C19   A    
C57   H73   S    
C135  C154  S    
C80   C104  A    
C11   H60   S    
C141  O53   S    
C216  H117  S    
C79   C159  S    
C124  H52   S    
C158  O6    A    
C94   C98   A    
C135  O51   A    
C203  C204  A    
C137  H33   S    
C175  H39   S    
C118  C150  S    
C14   C18   A    
Cr12  O16   S    
C159  O11   A    
C30   H66   S    
C46   O34   A    
C202  H105  S    
C124  C128  A    
C67   H83   S    
Cr4   O24   S    
C25   C29   A    
Cr5   O17   S    
Cr7   O27   S    
C100  H19   S    
C199  H103  S    
C163  O15   A    
C53   H69   S    
C164  O16   A    
C213  C214  A    
C83   H15   S    
C189  C190  A    
C53   C57   A    
C81   H13   S    
C61   C73   A    
C82   C86   A    
C33   C37   A    
C56   C60   A    
C33   H77   S    
Cr12  O40   S    
C35   C39   A    
C8    C167  A    
C186  C187  A    
C28   C32   A    
C32   H68   S    
Cr9   O37   S    
C177  C182  A    
Cr10  O34   S    
C10   H57   S    
Cr11  O39   S    
C91   O39   A    
Cr5   O25   S    
C63   H7    S    
Cr1   O45   S    
C221  H121  S    
Cr2   O42   S    
C32   C36   A    
Cr3   O47   S    
C133  O49   A    
Cr11  O11   S    
C214  C215  A    
C218  H119  S    
C217  C218  A    
C31   H67   S    
C132  C140  A    
C106  C126  A    
C25   C89   S    
Cr10  O38   S    
C99   H20   S    
C91   O3    A    
C174  H38   S    
C179  C180  A    
C49   C177  S    
C79   C83   A    
C43   C51   A    
C65   C69   A    
C67   C71   A    
C106  C162  S    
C177  C178  A    
C25   C49   A    
Cr11  O19   S    
C219  C224  A    
C108  C112  A    
C168  C172  A    
C87   H27   S    
C223  C224  A    
C62   C74   A    
C145  C149  A    
C164  O44   A    
C170  C173  A    
C147  H47   S    
Cr7   O51   S    
C93   C94   S    
C181  C182  A    
C2    O22   A    
C95   C96   S    
C144  C148  A    
C141  C153  A    
C211  C212  A    
C134  O46   A    
O55   H127  S    
C60   H76   S    
C173  C174  A    
C143  C147  A    
C167  H4    S    
C180  H87   S    
C168  H3    S    
C13   C17   A    
C209  H111  S    
C19   C171  A    
C38   C42   A    
C179  H86   S    
C17   C169  A    
C61   H5    S    
C96   C100  A    
Cr9   O13   S    
C188  H94   S    
C117  C121  A    
Cr10  O10   S    
Cr11  O15   S    
C175  C176  A    
C50   C183  S    
Cr2   O22   S    
C98   H17   S    
Cr3   O19   S    
C77   C81   A    
C86   C94   A    
C115  H43   S    
C16   C20   A    
Cr2   O2    S    
C15   C23   A    
C16   C24   A    
C194  H99   S    
C85   C93   A    
C2    O26   A    
Cr2   O46   S    
C161  O13   A    
C190  H95   S    
C119  C151  S    
C213  C218  A    
C63   C67   A    
C120  C152  S    
C13   C21   A    
C36   C40   A    
C131  C139  A    
C22   H61   S    
C39   C43   A    
C143  O55   S    
C148  H48   S    
C122  C126  A    
C205  H108  S    
C46   O30   A    
C130  C150  A    
C183  C188  A    
C85   H25   S    
O54   H126  S    
C64   C76   A    
Cr5   O29   S    
C195  C200  A    
C28   C92   S    
C224  H124  S    
Cr6   O18   S    
C48   O36   A    
C125  H53   S    
C52   C195  S    
C114  C118  A    
C140  C156  A    
C11   C15   A    
C59   C75   A    
C65   H81   S    
C157  O9    A    
C201  C202  A    
C92   O40   A    
C88   H28   S    
C51   C189  S    
C34   C38   A    
C34   H78   S    
C121  H49   S    
C47   O31   A    
C4    O24   A    
C48   O32   A    
C89   O37   A    
C103  H24   S    
C114  H42   S    
C161  O41   A    
C109  C113  A    
C101  H22   S    
C198  C199  A    
C223  H123  S    
Cr11  O35   S    
C43   H11   S    
C5    C10   A    
Cr4   O4    S    
C205  C206  A    
Cr5   O5    S    
C28   C52   A    
C193  C194  A    
C8    C11   A    
C128  H56   S    
C166  C170  A    
C207  C212  A    
C136  O52   A    
C31   C35   A    
C195  C196  A    
C110  H30   S    
C81   C85   A    
Cr3   O43   S    
C212  H114  S    
C106  C110  A    
C185  C186  A    
C178  H85   S    
C111  C115  A    
C107  C127  A    
C104  H23   S    
C97   C101  A    
C120  C124  A    
C77   C157  S    
