data_mof_unit_5775.cif
_audit_creation_date              2013-03-05T15:55:16-0500
_audit_creation_method            fapswitch 2.2
_symmetry_space_group_name_H-M    P1
_symmetry_Int_Tables_number       1
_space_group_crystal_system       triclinic
_cell_length_a                    27.721247
_cell_length_b                    10.710589
_cell_length_c                    9.933784
_cell_angle_alpha                 90.788643
_cell_angle_beta                  90.133048
_cell_angle_gamma                 92.893983
_cell_volume                      2945.39456363

loop_
_atom_site_label
_atom_site_type_symbol
_atom_site_description
_atom_site_fract_x
_atom_site_fract_y
_atom_site_fract_z
_atom_type_partial_charge
O1    O     O_R   0.500000 0.316780 0.614690 -0.658576
O2    O     O_R   0.500000 0.316750 0.385360 -0.637591
C1    C     C_R   0.504584 0.261350 0.499802 0.867002
O3    O     O_R   0.428760 0.500030 0.614650 -0.572151
O4    O     O_R   0.428750 0.500010 0.385320 -0.647543
C2    C     C_R   0.405969 0.498947 0.499898 0.894869
Zn1   Zn    Zn3+2 0.500000 0.500020 0.653130 0.939925
Zn2   Zn    Zn3+2 0.500000 0.499980 0.346870 0.926034
O5    O     O_R   0.500000 0.683250 0.614640 -0.650364
O6    O     O_R   0.500000 0.683220 0.385310 -0.629012
O7    O     O_R   0.571250 0.499990 0.614680 -0.645948
O8    O     O_R   0.571240 0.499970 0.385350 -0.628303
C3    C     C_R   0.496889 0.739720 0.501941 0.887014
C4    C     C_R   0.593902 0.500197 0.500212 0.923195
C5    C     C_R   0.175153 0.370764 0.516163 0.516690
O9    O     O_2   0.198640 0.267589 0.547354 -0.552006
N1    N     N_R   0.200684 0.477590 0.480471 -0.348076
C6    C     C_R   0.178357 0.583291 0.445515 0.515433
C7    C     C_R   0.278751 0.480271 0.367480 -0.098059
C8    C     C_R   0.328806 0.486623 0.373403 -0.304782
C9    C     C_R   0.325789 0.494803 0.619011 0.425849
C10   C     C_R   0.275243 0.487976 0.611074 -0.221871
C11   C     C_R   0.252072 0.480914 0.486124 0.281996
C12   C     C_R   0.100937 0.477585 0.489938 -0.059271
C13   C     C_R   0.124691 0.368436 0.520836 -0.029247
C14   C     C_R   0.097733 0.260625 0.557832 -0.134275
C15   C     C_R   0.128011 0.585472 0.449845 -0.021926
C16   C     C_R   0.352882 0.494098 0.498401 -0.091765
H1    H     H_    0.253655 0.489150 0.701823 0.136707
H2    H     H_    0.115249 0.176144 0.584284 0.194254
C17   C     C_R   0.646623 0.498596 0.501042 -0.116528
C18   C     C_R   0.971737 0.367174 0.521899 0.025849
C19   C     C_R   0.976990 0.596887 0.504513 -0.069233
C20   C     C_R   0.949028 0.482397 0.512946 0.043861
C21   C     C_R   0.942773 0.255119 0.521227 -0.316982
C22   C     C_R   0.892265 0.255099 0.516596 0.509863
C23   C     C_R   0.869583 0.369990 0.512755 -0.079999
C24   C     C_R   0.898057 0.483441 0.511953 -0.129941
C25   C     C_R   0.875511 0.598484 0.509237 -0.114031
C26   C     C_R   0.825194 0.598856 0.505554 0.629575
N2    N     N_R   0.798357 0.488773 0.505094 -0.328063
C27   C     C_R   0.818949 0.375798 0.508927 0.641409
C28   C     C_R   0.722556 0.492641 0.379921 0.446676
C29   C     C_R   0.672140 0.495977 0.379360 -0.329992
C30   C     C_R   0.671669 0.498477 0.623902 -0.319537
C31   C     C_R   0.722034 0.495219 0.625815 0.442767
C32   C     C_R   0.747031 0.492073 0.503505 0.229107
O10   O     O_2   0.790218 0.270281 0.509201 -0.452287
C33   C     C_R   0.022792 0.367405 0.528293 0.070675
C34   C     C_R   0.050124 0.479060 0.499433 0.089167
C35   C     C_R   0.027077 0.592243 0.479176 0.036189
C36   C     C_R   0.047621 0.259674 0.560916 -0.209705
H3    H     H_    0.653002 0.496114 0.284151 0.172496
H4    H     H_    0.958692 0.165382 0.518832 0.159728
H5    H     H_    0.029307 0.174152 0.593417 0.163294
O11   O     O_2   0.204925 0.686421 0.409232 -0.549881
C37   C     C_R   0.104295 0.692475 0.414749 -0.139596
H6    H     H_    0.348606 0.485464 0.279562 0.191992
H7    H     H_    0.260611 0.475000 0.270745 0.152770
H8    H     H_    0.124109 0.774787 0.377923 0.196140
C38   C     C_R   0.953376 0.711301 0.520408 0.406492
C39   C     C_R   0.903339 0.710807 0.515685 -0.099735
O12   O     O_2   0.803036 0.708217 0.502815 -0.520271
C40   C     C_R   0.054510 0.695284 0.427565 -0.220710
H9    H     H_    0.652199 0.500651 0.718288 0.184041
H10   H     H_    0.886293 0.799507 0.523316 0.209706
H11   H     H_    0.037799 0.778208 0.393476 0.203028
H12   H     H_    0.495188 0.108479 0.286879 0.168880
C41   C     C_R   0.537223 0.126258 0.740637 -0.143939
H13   H     H_    0.557568 0.214891 0.734142 0.166749
C42   C     C_R   0.531344 0.072193 0.867286 0.245221
C43   C     C_R   0.506003 0.956967 0.877096 -0.126788
H14   H     H_    0.498686 0.916418 0.974739 0.141317
C44   C     C_R   0.490684 0.892054 0.760766 -0.177235
H15   H     H_    0.469483 0.806045 0.775347 0.187004
C45   C     C_R   0.500339 0.941794 0.631228 0.089595
C46   C     C_R   0.516800 0.066758 0.623959 0.045229
C47   C     C_R   0.510202 0.128942 0.500958 -0.095423
C48   C     C_R   0.499677 0.062350 0.382042 -0.208804
H16   H     H_    0.487877 0.885102 0.289987 0.171625
C49   C     C_R   0.493656 0.935044 0.384760 -0.213254
C50   C     C_R   0.494344 0.873515 0.507812 -0.101066
C51   C     C_R   0.437002 0.332794 0.137429 -0.147677
H17   H     H_    0.434831 0.328475 0.244350 0.206328
C52   C     C_R   0.406198 0.249267 0.066056 -0.215805
H18   H     H_    0.382106 0.184585 0.119432 0.162206
C53   C     C_R   0.406085 0.249234 0.926606 -0.165943
H19   H     H_    0.381866 0.184604 0.871344 0.156940
C54   C     C_R   0.436774 0.332712 0.857635 -0.029368
H20   H     H_    0.434115 0.328581 0.750672 0.202566
C55   C     C_R   0.468889 0.417582 0.926512 0.076189
C56   C     C_R   0.468933 0.417632 0.070931 0.102387
N3    N     N_R   0.499540 0.498800 0.142780 -0.153694
C57   C     C_R   0.530190 0.579207 0.072339 0.167395
C58   C     C_R   0.530110 0.579104 0.929897 0.423216
N4    N     N_R   0.499520 0.498720 0.857170 -0.199489
O13   O     O_3   0.348913 0.502720 0.742456 -0.759391
H21   H     H_    0.324485 0.500973 0.815281 0.332173
O14   O     O_3   0.977243 0.823768 0.552860 -0.791146
H22   H     H_    0.005448 0.805928 0.609715 0.341544
O15   O     O_3   0.747792 0.494934 0.744961 -0.730188
H23   H     H_    0.724937 0.497429 0.821517 0.343544
C59   C     C_3   0.549689 0.139235 0.992281 -0.901003
H24   H     H_    0.569105 0.229506 0.968584 0.238517
H25   H     H_    0.518796 0.159025 0.058651 0.238387
H26   H     H_    0.574786 0.079898 0.046724 0.255467
C60   C     C_3   0.565539 0.671264 0.140751 -0.709431
H27   H     H_    0.557374 0.767868 0.112083 0.222385
H28   H     H_    0.565632 0.668653 0.250055 0.267147
H29   H     H_    0.602817 0.652695 0.107917 0.231018
O16   O     O_3   0.562069 0.662624 0.868152 -0.778011
H30   H     H_    0.558602 0.653437 0.770718 0.395344
O17   O     O_3   0.748824 0.489703 0.262084 -0.729204
H31   H     H_    0.726289 0.490549 0.184438 0.342104
O18   O     O_3   0.864819 0.143531 0.515056 -0.672692
H32   H     H_    0.886269 0.072323 0.519168 0.342534

loop_
_geom_bond_atom_site_label_1
_geom_bond_atom_site_label_2
_geom_bond_distance
_ccdc_geom_bond_type
C46   C47   1.415506 A    
C53   H19   1.082677 S    
N3    C57   1.377928 A    
C10   H1    1.083476 S    
N2    C27   1.364689 A    
C41   C46   1.417821 A    
C58   N4    1.374273 A    
C12   C15   1.408423 A    
C4    C17   1.462458 S    
C49   C50   1.397205 A    
C52   H18   1.082664 S    
Zn1   O7    2.012617 S    
Zn1   N4    2.027198 S    
O15   H23   0.991892 S    
C26   O12   1.350356 S    
C44   C45   1.420357 A    
C51   H17   1.065473 S    
C22   C23   1.410802 A    
C41   H13   1.082242 S    
O4    C2    1.302844 A    
O7    C4    1.300226 A    
C5    C13   1.398722 A    
O18   H32   0.991691 S    
O13   H21   0.991797 S    
N1    C6    1.365979 A    
C23   C27   1.408612 A    
C41   C42   1.398637 A    
O5    C3    1.284542 A    
C55   N4    1.376740 A    
C29   H3    1.083419 S    
C2    C16   1.469962 S    
O16   H30   0.975551 S    
C60   H27   1.111026 S    
C54   C55   1.409030 A    
C6    C15   1.397786 A    
C38   C39   1.387501 A    
C36   H5    1.078410 S    
C6    O11   1.349988 S    
H12   C48   1.082476 S    
O1    Zn1   1.994245 S    
C9    C10   1.401387 A    
C21   H4    1.077665 S    
C60   H28   1.086548 S    
C38   O14   1.378604 S    
O3    Zn1   2.010653 S    
C19   C20   1.420810 A    
C52   C53   1.385257 A    
C12   C34   1.412840 A    
C31   O15   1.380992 S    
C57   C60   1.508374 S    
C17   C29   1.402597 A    
C39   H10   1.084019 S    
C18   C21   1.409827 A    
C12   C13   1.407541 A    
C43   C44   1.394602 A    
C44   H15   1.079071 S    
C45   C50   1.423933 A    
C55   C56   1.434613 A    
C48   C49   1.365961 A    
C47   C48   1.394077 A    
H16   C49   1.083936 S    
C37   H8    1.083359 S    
C27   O10   1.349364 S    
C8    C16   1.407724 A    
C7    H7    1.082996 S    
C13   C14   1.397410 A    
C30   C31   1.398460 A    
C3    C50   1.438704 S    
O1    C1    1.288704 A    
C21   C22   1.400761 A    
C18   C20   1.417197 A    
C7    C11   1.393004 A    
C28   C29   1.399851 A    
C40   H11   1.080371 S    
C23   C24   1.415311 A    
C51   C56   1.408403 A    
C14   C36   1.389086 A    
C9    O13   1.381973 S    
O14   H22   0.991389 S    
Zn2   O8    2.010649 S    
C33   C36   1.414084 A    
C34   C35   1.415119 A    
N2    C32   1.425102 S    
C59   H25   1.109104 S    
N1    C11   1.424144 S    
C45   C46   1.394986 A    
O3    C2    1.301645 A    
C26   N2    1.361946 A    
C51   C52   1.390974 A    
C9    C16   1.415664 A    
O8    C4    1.301164 A    
C14   H2    1.083467 S    
C53   C54   1.391166 A    
C15   C37   1.397590 A    
C60   H29   1.111007 S    
C8    H6    1.083127 S    
C25   C26   1.395467 A    
C37   C40   1.388081 A    
O17   H31   0.991871 S    
C5    N1    1.366113 A    
C25   C39   1.396584 A    
C42   C59   1.500541 S    
C31   C32   1.400964 A    
C20   C24   1.413579 A    
O2    Zn2   2.004558 S    
C35   C40   1.411305 A    
C43   H14   1.083604 S    
O6    C3    1.304762 A    
O4    Zn2   2.012619 S    
C17   C30   1.402780 A    
C19   C35   1.414916 A    
C7    C8    1.386885 A    
O2    C1    1.298517 A    
C42   C43   1.393624 A    
C58   O16   1.378012 S    
C28   O17   1.380835 S    
C30   H9    1.083497 S    
C1    C47   1.434692 S    
C24   C25   1.410048 A    
C19   C38   1.425241 A    
C56   N3    1.375025 A    
C59   H26   1.110316 S    
C57   C58   1.414972 A    
C18   C33   1.416453 A    
Zn1   O5    2.004561 S    
Zn2   O6    1.994245 S    
C33   C34   1.416116 A    
Zn2   N3    2.027258 S    
C59   H24   1.110959 S    
C10   C11   1.395629 A    
C54   H20   1.065084 S    
C22   O18   1.383719 S    
C28   C32   1.401518 A    
C5    O9    1.349890 S    
