data_mof_unit_40730.cif
_audit_creation_date              2013-03-05T16:02:30-0500
_audit_creation_method            fapswitch 2.2
_symmetry_space_group_name_H-M    P1
_symmetry_Int_Tables_number       1
_space_group_crystal_system       triclinic
_cell_length_a                    16.429406
_cell_length_b                    7.252104
_cell_length_c                    15.35421
_cell_angle_alpha                 89.550708
_cell_angle_beta                  94.567571
_cell_angle_gamma                 89.131785
_cell_volume                      1823.32520783

loop_
_atom_site_label
_atom_site_type_symbol
_atom_site_description
_atom_site_fract_x
_atom_site_fract_y
_atom_site_fract_z
_atom_type_partial_charge
O1    O     O_R   0.663460 0.361760 0.165970 -0.588832
O2    O     O_R   0.336540 0.638240 0.834030 -0.588832
O3    O     O_R   0.836540 0.861760 0.334030 -0.567473
O4    O     O_R   0.163460 0.138240 0.665970 -0.567460
O5    O     O_R   0.827100 0.689870 0.163730 -0.554668
O6    O     O_R   0.172900 0.310130 0.836270 -0.554663
O7    O     O_R   0.672900 0.189870 0.336270 -0.562268
O8    O     O_R   0.327100 0.810130 0.663730 -0.562230
H1    H     H_    0.212179 0.072508 0.511095 0.095272
H2    H     H_    0.787828 0.927388 0.488903 0.095314
H3    H     H_    0.290260 0.401916 0.994970 0.097292
H4    H     H_    0.709752 0.597973 0.005031 0.097228
C1    C     C_R   0.853072 0.522504 0.143385 0.970079
C2    C     C_R   0.146928 0.477497 0.856615 0.970090
C3    C     C_R   0.646827 0.023274 0.356513 0.967662
C4    C     C_R   0.353174 0.976726 0.643488 0.967649
O9    O     O_R   0.663490 0.691370 0.155500 -0.571369
O10   O     O_R   0.336510 0.308630 0.844500 -0.571392
O11   O     O_R   0.836510 0.191370 0.344500 -0.592549
O12   O     O_R   0.163490 0.808630 0.655500 -0.592549
O13   O     O_R   0.671770 0.863320 0.325740 -0.547126
O14   O     O_R   0.328230 0.136680 0.674260 -0.547132
O15   O     O_R   0.828230 0.363320 0.174260 -0.557352
O16   O     O_R   0.171770 0.636680 0.825740 -0.557376
C5    C     C_R   0.634422 0.524667 0.135567 0.966359
C6    C     C_R   0.365578 0.475333 0.864432 0.966368
C7    C     C_R   0.865854 0.021444 0.363763 0.965952
C8    C     C_R   0.134146 0.978555 0.636237 0.965949
H5    H     H_    0.136371 0.111691 0.240666 0.170557
H6    H     H_    0.863628 0.888339 0.759335 0.170600
H7    H     H_    0.367267 0.434083 0.265021 0.169592
H8    H     H_    0.632717 0.566040 0.734972 0.169541
O17   O     O_3   0.752910 0.528800 0.305860 -0.278649
O18   O     O_3   0.247090 0.471200 0.694140 -0.278628
O19   O     O_3   0.747090 0.028800 0.194140 -0.278668
O20   O     O_3   0.252910 0.971200 0.805860 -0.278687
V1    V     V_3+5 0.749460 0.803010 0.239640 1.274564
V2    V     V_3+5 0.250540 0.196990 0.760360 1.274555
V3    V     V_3+5 0.750540 0.303010 0.260360 1.255987
V4    V     V_3+5 0.249460 0.696990 0.739640 1.256001
C9    C     C_1   0.468767 0.994364 0.530031 0.090024
C10   C     C_1   0.531236 0.005636 0.469972 0.090010
C11   C     C_1   0.031294 0.495187 0.970016 0.094577
C12   C     C_1   0.968708 0.504815 0.029986 0.094589
C13   C     C_R   0.040530 0.053313 0.323553 0.284321
C14   C     C_R   0.959473 0.946715 0.676446 0.284357
C15   C     C_R   0.461119 0.484312 0.178478 0.285828
C16   C     C_R   0.538880 0.515752 0.821517 0.285806
C17   C     C_R   0.121045 0.092720 0.307416 -0.226560
C18   C     C_R   0.878961 0.907282 0.692585 -0.226684
C19   C     C_R   0.381953 0.439328 0.197514 -0.226753
C20   C     C_R   0.618047 0.560729 0.802482 -0.226729
C21   C     C_R   0.182290 0.100265 0.375084 0.206626
C22   C     C_R   0.817723 0.899667 0.624915 0.206559
C23   C     C_R   0.320872 0.410230 0.131283 0.209683
C24   C     C_R   0.679141 0.589731 0.868714 0.209722
C25   C     C_R   0.162608 0.068415 0.460495 -0.268684
C26   C     C_R   0.837399 0.931519 0.539503 -0.268656
C27   C     C_R   0.339677 0.422905 0.044505 -0.273147
C28   C     C_R   0.660333 0.577031 0.955492 -0.273184
C29   C     C_R   0.081578 0.031373 0.480333 0.096512
C30   C     C_R   0.918426 0.968606 0.519664 0.096497
C31   C     C_R   0.419555 0.463098 0.021944 0.095178
C32   C     C_R   0.580450 0.536884 0.978052 0.095200
C33   C     C_R   0.018057 0.030302 0.411203 -0.051754
C34   C     C_R   0.981945 0.969702 0.588796 -0.051742
C35   C     C_R   0.482810 0.489111 0.089958 -0.046822
C36   C     C_R   0.517192 0.510904 0.910038 -0.046832
C37   C     C_R   0.064432 0.994625 0.568035 -0.228456
C38   C     C_R   0.935570 0.005372 0.431963 -0.228462
C39   C     C_R   0.435684 0.479755 0.932631 -0.227507
C40   C     C_R   0.564319 0.520244 0.067365 -0.227496
C41   C     C_1   0.415852 0.985374 0.581311 -0.187863
C42   C     C_1   0.584150 0.014626 0.418691 -0.187894
C43   C     C_1   0.084277 0.487083 0.918773 -0.179814
C44   C     C_1   0.915724 0.512918 0.081228 -0.179811
N1    N     N_2   0.735901 0.859840 0.642566 -0.110136
H9    H     H_    0.699141 0.818369 0.588874 0.171287
C45   C     C_3   0.696275 0.996943 0.693450 -0.844777
H10   H     H_    0.633519 0.951973 0.704296 0.262327
H11   H     H_    0.692168 0.131438 0.658004 0.247407
H12   H     H_    0.730084 0.014066 0.758339 0.249827
N2    N     N_2   0.264121 0.140027 0.357442 -0.110050
H13   H     H_    0.300916 0.181209 0.411156 0.171330
C46   C     C_3   0.303682 0.003139 0.306392 -0.845144
H14   H     H_    0.366486 0.047924 0.295670 0.262376
H15   H     H_    0.269919 0.986582 0.241462 0.249889
H16   H     H_    0.307648 0.868434 0.341622 0.247459
N3    N     N_2   0.760130 0.630484 0.848317 -0.111230
H17   H     H_    0.796550 0.684992 0.899339 0.169846
C47   C     C_3   0.801422 0.485715 0.803583 -0.850972
H18   H     H_    0.864042 0.530061 0.791717 0.261201
H19   H     H_    0.768488 0.456604 0.739277 0.250114
H20   H     H_    0.806118 0.357767 0.844230 0.249614
N4    N     N_2   0.239895 0.369432 0.151693 -0.111295
H21   H     H_    0.203542 0.314509 0.100739 0.169922
C48   C     C_3   0.198500 0.514446 0.196130 -0.851400
H22   H     H_    0.135955 0.469961 0.208196 0.261280
H23   H     H_    0.193626 0.641900 0.155187 0.249688
H24   H     H_    0.231463 0.544385 0.260294 0.250229
N5    N     N_R   0.986038 0.015182 0.248960 0.217886
O21   O     O_R   0.974914 0.138181 0.186919 -0.418812
O22   O     O_R   0.971106 0.843779 0.230612 -0.412098
N6    N     N_R   0.013960 0.984903 0.751036 0.217883
O23   O     O_R   0.025101 0.861930 0.813087 -0.418804
O24   O     O_R   0.028874 0.156323 0.769368 -0.412125
N7    N     N_R   0.514326 0.547999 0.249655 0.217290
O25   O     O_R   0.529938 0.442653 0.318079 -0.409232
O26   O     O_R   0.524872 0.724575 0.257209 -0.419090
N8    N     N_R   0.485665 0.452127 0.750331 0.217294
O27   O     O_R   0.470068 0.557513 0.681918 -0.409256
O28   O     O_R   0.475106 0.275560 0.742752 -0.419073

loop_
_geom_bond_atom_site_label_1
_geom_bond_atom_site_label_2
_geom_bond_distance
_ccdc_geom_bond_type
C26   C30   1.418251 A    
C16   N8    1.428244 S    
N5    O21   1.300195 A    
O5    V1    1.969487 S    
C9    C10   1.436150 S    
N4    H21   1.032050 S    
O10   C6    1.335407 A    
N6    O24   1.299393 A    
C48   H22   1.110751 S    
H5    C17   1.082902 S    
N1    H9    1.031952 S    
C30   C38   1.421534 A    
C18   C22   1.389588 A    
O18   V4    1.785040 S    
C32   C36   1.429101 A    
O19   V1    1.773873 S    
C14   C34   1.432755 A    
C16   C20   1.398371 A    
C23   C27   1.394174 A    
O12   V4    1.994442 S    
C17   C21   1.389610 A    
C34   C37   1.430455 A    
C47   H19   1.110802 S    
C33   C38   1.430468 A    
O14   V2    1.956803 S    
C1    O15   1.326837 A    
C35   C40   1.430578 A    
C2    O16   1.326837 A    
C12   C44   1.220038 T    
N8    O27   1.300681 A    
H8    C20   1.083276 S    
O4    C8    1.331023 A    
O17   V3    1.785042 S    
C8    C37   1.491654 S    
N7    O25   1.300678 A    
O6    V2    1.969487 S    
N3    C47   1.448508 S    
O11   C7    1.338687 A    
O5    C1    1.328289 A    
C22   N1    1.425659 S    
O7    C3    1.330709 A    
H6    C18   1.082914 S    
N5    O22   1.299389 A    
O1    C5    1.334192 A    
C6    C39   1.494550 S    
N7    O26   1.299663 A    
H3    C27   1.080761 S    
C15   C35   1.432586 A    
N6    O23   1.300199 A    
C48   H23   1.112019 S    
N1    C45   1.447905 S    
C11   C43   1.220038 T    
C31   C35   1.429098 A    
C10   C42   1.220625 T    
C30   C34   1.428214 A    
C46   H15   1.109881 S    
C4    C41   1.460592 S    
C23   N4    1.425698 S    
C47   H18   1.110878 S    
C45   H11   1.111732 S    
C21   C25   1.393826 A    
C13   N5    1.427895 S    
C15   C19   1.398367 A    
O12   C8    1.338683 A    
C19   C23   1.390312 A    
C46   H14   1.110700 S    
C14   N6    1.427899 S    
C24   C28   1.394193 A    
C11   C12   1.435155 S    
O2    V4    1.992582 S    
O6    C2    1.328291 A    
N2    H13   1.031873 S    
C1    C44   1.459629 S    
C13   C17   1.398379 A    
O2    C6    1.334192 A    
C5    C40   1.494555 S    
O9    V1    2.019881 S    
C16   C36   1.432584 A    
C31   C39   1.421835 A    
C7    C38   1.491657 S    
O11   V3    1.994443 S    
C24   N3    1.425761 S    
N2    C46   1.447804 S    
O4    V2    2.006662 S    
C15   N7    1.428238 S    
C13   C33   1.432758 A    
C48   H24   1.110388 S    
C22   C26   1.393825 A    
C46   H16   1.111457 S    
C29   C37   1.421529 A    
C4    O14   1.327334 A    
H2    C26   1.080782 S    
H7    C19   1.083291 S    
C45   H12   1.110178 S    
N4    C48   1.448278 S    
C25   C29   1.418244 A    
C14   C18   1.398372 A    
C27   C31   1.417618 A    
C21   N2    1.425690 S    
C28   C32   1.417619 A    
O9    C5    1.335407 A    
C2    C43   1.459628 S    
O3    C7    1.331023 A    
O10   V2    2.019881 S    
C47   H20   1.112442 S    
C36   C39   1.430591 A    
O15   V3    1.960811 S    
O20   V2    1.773873 S    
O16   V4    1.960809 S    
H1    C25   1.080779 S    
C32   C40   1.421841 A    
N8    O28   1.299665 A    
O1    V3    1.992582 S    
C9    C41   1.220624 T    
C45   H10   1.110786 S    
H4    C28   1.080762 S    
C29   C33   1.428213 A    
C3    O13   1.327336 A    
C3    C42   1.460589 S    
O13   V1    1.956803 S    
O3    V1    2.006663 S    
O8    C4    1.330710 A    
O7    V3    1.977959 S    
O8    V4    1.977956 S    
N3    H17   1.032173 S    
C20   C24   1.390355 A    
