data_mof_unit_26085.cif
_audit_creation_date              2012-12-10T17:42:41-0500
_audit_creation_method            fapswitch 2.2
_symmetry_space_group_name_H-M    P1
_symmetry_Int_Tables_number       1
_space_group_crystal_system       triclinic
_cell_length_a                    10.049439
_cell_length_b                    10.90698
_cell_length_c                    13.47997
_cell_angle_alpha                 93.147178
_cell_angle_beta                  74.256245
_cell_angle_gamma                 90.489227
_cell_volume                      1419.92088498

loop_
_atom_site_label
_atom_site_type_symbol
_atom_type_description
_atom_site_fract_x
_atom_site_fract_y
_atom_site_fract_z
_atom_type_partial_charge
C1    C     C_R   0.502208 0.738790 0.489470 0.897741
C2    C     C_R   0.454562 0.481668 0.972311 -0.037717
C3    C     C_R   0.498155 0.461549 0.863790 -0.041190
C4    C     C_R   0.557610 0.492704 0.026590 0.030717
C5    C     C_R   0.696980 0.460665 0.974923 0.092268
C6    C     C_R   0.733876 0.426957 0.870205 0.128576
C7    C     C_R   0.635959 0.426126 0.815936 -0.133301
C8    C     C_R   0.528383 0.534368 0.130219 0.272015
C9    C     C_R   0.756260 0.473823 0.135824 -0.243854
C10   C     C_R   0.396613 0.454344 0.809226 -0.313557
C11   C     C_R   0.238834 0.877265 0.511152 0.222579
C12   C     C_R   0.427745 0.484395 0.699612 0.926145
C13   C     C_R   0.129808 0.910058 0.595838 -0.245229
C14   C     C_R   0.142269 0.013936 0.655611 0.200951
C15   C     C_R   0.235897 0.102649 0.606451 0.198098
C16   C     C_R   0.362450 0.060265 0.536038 -0.077436
C17   C     C_R   0.368428 0.935764 0.500880 -0.028110
C18   C     C_R   0.498274 0.872187 0.476134 -0.257315
C19   C     C_R   0.621110 0.939377 0.465807 0.433008
C20   C     C_R   0.611928 0.061546 0.501607 0.061058
C21   C     C_R   0.487869 0.126840 0.519062 -0.224918
C22   C     C_R   0.814171 0.642820 0.663680 0.455022
C23   C     C_R   0.495215 0.260777 0.509541 0.882465
C24   C     C_R   0.863200 0.683831 0.750173 0.001859
C25   C     C_R   0.002918 0.682322 0.742628 0.441641
C26   C     C_R   0.092159 0.631475 0.653145 -0.243037
C27   C     C_R   0.045943 0.561806 0.578964 -0.015350
C28   C     C_R   0.901596 0.564845 0.580678 -0.038975
C29   C     C_R   0.957791 0.450663 0.418752 0.452298
C30   C     C_R   0.101164 0.454180 0.417308 0.489564
C31   C     C_R   0.574744 0.503909 0.299032 0.860990
C32   C     C_R   0.796592 0.461297 0.029849 -0.125698
C33   C     C_R   0.619251 0.503424 0.187110 -0.157191
C34   C     C_R   0.278406 0.389150 0.857389 0.437429
C35   C     C_R   0.233381 0.397896 0.965619 -0.011159
C36   C     C_R   0.310848 0.467824 0.021221 0.379428
H1    H     H_    0.832608 0.460408 0.177153 0.234624
H2    H     H_    0.032161 0.862786 0.609711 0.182036
H3    H     H_    0.197728 0.655932 0.639732 0.231449
H4    H     H_    0.904600 0.446276 0.992660 0.190962
H5    H     H_    0.668085 0.385387 0.738401 0.202811
N1    N     N_R   0.856860 0.501200 0.500990 -0.141683
N2    N     N_R   0.142450 0.501280 0.501020 -0.133521
O1    O     O_R   0.385310 0.683220 0.500000 -0.635489
O2    O     O_R   0.614640 0.683250 0.500010 -0.510476
O3    O     O_R   0.328400 0.499950 0.653610 -0.616707
O4    O     O_R   0.557730 0.499970 0.653620 -0.573867
O5    O     O_R   0.385360 0.316750 0.499990 -0.602948
O6    O     O_R   0.614690 0.316780 0.500000 -0.620488
O7    O     O_R   0.442270 0.500030 0.346380 -0.547880
O8    O     O_R   0.671600 0.500050 0.346390 -0.596318
Zn1   Zn    Zn3+2 0.346880 0.499980 0.499990 1.021308
Zn2   Zn    Zn3+2 0.653120 0.500020 0.500010 1.034783
I1    I     I_    0.180905 0.782755 0.389315 -0.321642
I2    I     I_    0.984413 0.047187 0.794496 -0.149268
I3    I     I_    0.110334 0.214237 0.549553 -0.298212
I4    I     I_    0.753884 0.118621 0.585465 -0.365643
O9    O     O_3   0.924213 0.412542 0.329270 -0.603684
C37   C     C_3   0.883584 0.288155 0.332640 -0.195156
H6    H     H_    0.889094 0.242529 0.402991 0.170487
H7    H     H_    0.951063 0.235304 0.265819 0.183384
H8    H     H_    0.777383 0.280381 0.323856 0.196931
O10   O     O_3   0.686605 0.682467 0.657693 -0.548650
C38   C     C_3   0.658358 0.808161 0.688172 -0.132191
H9    H     H_    0.752312 0.865166 0.682418 0.184285
H10   H     H_    0.583937 0.817146 0.765503 0.167148
H11   H     H_    0.600807 0.847954 0.639501 0.167222
I5    I     I_    0.737234 0.757173 0.896306 -0.288071
O11   O     O_3   0.050992 0.751690 0.815090 -0.559067
C39   C     C_3   0.142572 0.682873 0.853047 -0.228979
H12   H     H_    0.104515 0.588225 0.869999 0.162205
H13   H     H_    0.150422 0.728411 0.926802 0.185162
H14   H     H_    0.247683 0.682287 0.798975 0.150026
I6    I     I_    0.935467 0.374103 0.788768 -0.277344
O12   O     O_3   0.199725 0.433177 0.324048 -0.535762
C40   C     C_3   0.233290 0.307364 0.303944 -0.090570
H15   H     H_    0.314798 0.282494 0.340311 0.173221
H16   H     H_    0.276855 0.289944 0.219573 0.201419
H17   H     H_    0.143812 0.245599 0.328111 0.122907
I7    I     I_    0.453832 0.716923 0.160333 -0.294838
O13   O     O_3   0.239394 0.289027 0.804847 -0.534948
C41   C     C_3   0.335759 0.192700 0.799723 -0.186537
H18   H     H_    0.370308 0.187154 0.871358 0.160973
H19   H     H_    0.287183 0.103300 0.789969 0.191026
H20   H     H_    0.427645 0.202839 0.733045 0.141472
O14   O     O_3   0.256159 0.494473 0.125517 -0.549528
C42   C     C_3   0.145719 0.578961 0.139287 -0.095472
H21   H     H_    0.059284 0.539486 0.111752 0.135482
H22   H     H_    0.104103 0.603683 0.222716 0.227083
H23   H     H_    0.181076 0.665049 0.099786 0.133193
I8    I     I_    0.085849 0.270787 0.044019 -0.338067
O15   O     O_3   0.748658 0.881440 0.442102 -0.571971
C43   C     C_3   0.794097 0.859102 0.334159 -0.176607
H24   H     H_    0.807748 0.946690 0.293905 0.153465
H25   H     H_    0.722317 0.797419 0.305269 0.150330
H26   H     H_    0.896103 0.812189 0.314608 0.196375

loop_
_geom_bond_atom_site_label_1
_geom_bond_atom_site_label_2
_ccdc_geom_bond_type
C42   H21   S    
C16   C21   A    
C29   N1    A    
C19   C20   A    
C40   H17   S    
C4    C8    A    
O13   C41   S    
C1    C18   S    
C43   H24   S    
C40   H16   S    
C18   C19   A    
C3    C7    A    
N1    Zn2   S    
C5    C6    A    
N2    Zn1   S    
C23   O6    A    
C15   C16   A    
O3    Zn1   S    
C34   C35   A    
C19   O15   S    
C9    C32   A    
C22   O10   S    
C35   C36   A    
C16   C17   A    
O7    Zn1   S    
C31   C33   S    
C39   H12   S    
C34   O13   S    
O4    Zn2   S    
C5    C32   A    
O1    Zn1   S    
C7    H5    S    
C14   I2    S    
O2    Zn2   S    
C37   H6    S    
C43   H25   S    
C22   C28   A    
C13   C14   A    
C9    C33   A    
C12   O4    A    
C6    I6    S    
C37   H7    S    
C38   H11   S    
C40   H15   S    
C12   O3    A    
O14   C42   S    
C36   O14   S    
O9    C37   S    
O8    Zn2   S    
C38   H10   S    
C2    C4    A    
O12   C40   S    
C29   C30   A    
C1    O1    A    
C39   H14   S    
C9    H1    S    
C17   C18   A    
C26   C27   A    
C10   C34   A    
C24   C25   A    
C13   H2    S    
C11   I1    S    
C10   C12   S    
C43   H26   S    
C41   H19   S    
C42   H22   S    
C22   C24   A    
C30   N2    A    
C25   O11   S    
C31   O7    A    
C29   O9    S    
C2    C36   A    
C11   C17   A    
C37   H8    S    
C23   O5    A    
C31   O8    A    
C4    C5    A    
C6    C7    A    
C41   H20   S    
C38   H9    S    
C21   C23   S    
C2    C3    A    
C25   C26   A    
C3    C10   A    
C15   I3    S    
C30   O12   S    
C11   C13   A    
C1    O2    A    
O6    Zn2   S    
C28   N1    A    
O15   C43   S    
C8    C33   A    
C32   H4    S    
O11   C39   S    
C26   H3    S    
C24   I5    S    
O10   C38   S    
C27   N2    A    
O5    Zn1   S    
C20   C21   A    
C41   H18   S    
C42   H23   S    
C27   C28   A    
C8    I7    S    
C14   C15   A    
C39   H13   S    
C20   I4    S    
C35   I8    S    
