data_mof_unit_30915.cif
_audit_creation_date              2012-12-10T18:45:31-0500
_audit_creation_method            fapswitch 2.2
_symmetry_space_group_name_H-M    P1
_symmetry_Int_Tables_number       1
_space_group_crystal_system       triclinic
_cell_length_a                    19.452948
_cell_length_b                    18.176895
_cell_length_c                    10.727043
_cell_angle_alpha                 87.163639
_cell_angle_beta                  89.542371
_cell_angle_gamma                 90.014539
_cell_volume                      3788.25178259

loop_
_atom_site_label
_atom_site_type_symbol
_atom_type_description
_atom_site_fract_x
_atom_site_fract_y
_atom_site_fract_z
_atom_type_partial_charge
C1    C     C_R   0.367567 0.499993 0.499928 0.782167
C2    C     C_R   0.632433 0.500007 0.500072 0.782167
C3    C     C_R   0.707933 0.500013 0.499338 -0.025622
C4    C     C_R   0.292067 0.499987 0.500662 -0.025621
C5    C     C_R   0.964757 0.551516 0.423422 -0.181276
C6    C     C_R   0.035243 0.448483 0.576582 -0.181277
C7    C     C_R   0.036330 0.551574 0.424199 -0.179767
C8    C     C_R   0.963670 0.448425 0.575805 -0.179768
C9    C     C_R   0.072110 0.500060 0.500789 0.099835
C10   C     C_R   0.927890 0.499939 0.499215 0.099836
C11   C     C_R   0.440074 0.721469 0.515491 0.082526
C12   C     C_R   0.559926 0.278530 0.484513 0.082520
C13   C     C_R   0.560070 0.721888 0.480890 0.053240
C14   C     C_R   0.439930 0.278112 0.519110 0.053241
C15   C     C_R   0.439238 0.798717 0.513519 -0.280255
C16   C     C_R   0.560761 0.201281 0.486491 -0.280255
C17   C     C_R   0.560972 0.799235 0.474168 -0.257994
C18   C     C_R   0.439026 0.200766 0.525835 -0.257995
C19   C     C_R   0.500002 0.838809 0.490904 0.144597
C20   C     C_R   0.499997 0.161190 0.509104 0.144599
C21   C     C_R   0.536135 0.956296 0.589882 -0.055079
C22   C     C_R   0.463863 0.043703 0.410129 -0.055082
C23   C     C_R   0.465175 0.965837 0.403379 -0.058811
C24   C     C_R   0.534821 0.034162 0.596635 -0.058813
C25   C     C_R   0.499559 0.078521 0.505649 -0.020950
C26   C     C_R   0.500438 0.921478 0.494363 -0.020950
C27   C     C_R   0.508115 0.502269 0.261168 0.834053
C28   C     C_R   0.491885 0.497731 0.738832 0.834054
C29   C     C_R   0.498548 0.643382 0.087762 0.229978
C30   C     C_R   0.501446 0.356620 0.912238 0.229979
C31   C     C_R   0.413964 0.608850 0.888179 0.226203
C32   C     C_R   0.586031 0.391148 0.111821 0.226203
C33   C     C_R   0.454703 0.696460 0.033025 -0.223872
C34   C     C_R   0.545289 0.303540 0.966974 -0.223874
C35   C     C_R   0.410634 0.678481 0.937915 -0.199652
C36   C     C_R   0.589359 0.321517 0.062084 -0.199648
C37   C     C_R   0.462158 0.556429 0.937312 0.036063
C38   C     C_R   0.537839 0.443571 0.062687 0.036061
C39   C     C_R   0.493990 0.569337 0.051955 0.029916
C40   C     C_R   0.506007 0.430665 0.948044 0.029917
C41   C     C_R   0.479495 0.491876 0.876441 -0.215682
C42   C     C_R   0.520503 0.508125 0.123558 -0.215681
C43   C     C_R   0.744304 0.433376 0.497075 -0.185155
C44   C     C_R   0.255695 0.566623 0.502933 -0.185156
C45   C     C_R   0.255643 0.433354 0.499119 -0.189510
C46   C     C_R   0.744357 0.566646 0.500876 -0.189510
C47   C     C_R   0.815871 0.433379 0.496747 -0.171935
C48   C     C_R   0.184129 0.566620 0.503262 -0.171935
C49   C     C_R   0.184071 0.433388 0.499470 -0.171667
C50   C     C_R   0.815929 0.566612 0.500528 -0.171667
C51   C     C_R   0.852223 0.499980 0.498661 0.108774
C52   C     C_R   0.147777 0.500019 0.501343 0.108773
Cu1   Cu    Cu3+1 0.500000 0.573360 0.500000 0.937772
Cu2   Cu    Cu3+1 0.500000 0.426640 0.500000 0.937772
H1    H     H_    0.625044 0.280432 0.099285 0.140305
H2    H     H_    0.374947 0.719564 0.900714 0.140305
H3    H     H_    0.544307 0.247638 0.937005 0.166676
H4    H     H_    0.455684 0.752363 0.062992 0.166674
H5    H     H_    0.717596 0.381188 0.495387 0.135689
H6    H     H_    0.282403 0.618811 0.504625 0.135688
H7    H     H_    0.282320 0.381163 0.497042 0.138864
H8    H     H_    0.717680 0.618838 0.502947 0.138863
H9    H     H_    0.842836 0.381368 0.493701 0.121975
H10   H     H_    0.157164 0.618630 0.506312 0.121976
H11   H     H_    0.157075 0.381393 0.496500 0.123553
H12   H     H_    0.842925 0.618607 0.503493 0.123552
H13   H     H_    0.938215 0.591089 0.362285 0.125973
H14   H     H_    0.061785 0.408910 0.637718 0.125974
H15   H     H_    0.063743 0.591167 0.363588 0.126461
H16   H     H_    0.936257 0.408833 0.636417 0.126461
H17   H     H_    0.392135 0.692569 0.529497 0.107097
H18   H     H_    0.607864 0.307430 0.470508 0.107096
H19   H     H_    0.607773 0.693172 0.466917 0.124091
H20   H     H_    0.392226 0.306829 0.533080 0.124091
H21   H     H_    0.391454 0.826883 0.531320 0.118619
H22   H     H_    0.608545 0.173114 0.468697 0.118620
H23   H     H_    0.609154 0.828015 0.457335 0.131176
H24   H     H_    0.390844 0.171986 0.542668 0.131174
N1    N     N_R   0.500000 0.683620 0.500000 -0.166421
N2    N     N_R   0.500000 0.316380 0.500000 -0.166419
O1    O     O_R   0.400190 0.561980 0.499980 -0.599108
O2    O     O_R   0.599810 0.438020 0.500020 -0.599107
O3    O     O_R   0.599810 0.561980 0.500020 -0.598721
O4    O     O_R   0.400190 0.438020 0.499980 -0.598723
O5    O     O_R   0.500000 0.561950 0.319660 -0.568290
O6    O     O_R   0.500000 0.438050 0.680340 -0.568289
O7    O     O_R   0.500000 0.561950 0.680340 -0.552818
O8    O     O_R   0.500000 0.438050 0.319660 -0.552817
C53   C     C_3   0.556536 0.670799 0.165228 -0.827384
H25   H     H_    0.586766 0.712710 0.109615 0.200972
H26   H     H_    0.534888 0.697333 0.247229 0.249371
H27   H     H_    0.592889 0.626458 0.195205 0.225913
C54   C     C_3   0.443456 0.329206 0.834772 -0.827387
H28   H     H_    0.413223 0.287298 0.890387 0.200976
H29   H     H_    0.407106 0.373550 0.804793 0.225912
H30   H     H_    0.465103 0.302670 0.752772 0.249369
C55   C     C_3   0.359783 0.590063 0.795311 -0.850642
H31   H     H_    0.308073 0.601452 0.834495 0.219930
H32   H     H_    0.366771 0.624751 0.708684 0.233726
H33   H     H_    0.360368 0.531154 0.773163 0.208623
C56   C     C_3   0.640212 0.409934 0.204690 -0.850636
H34   H     H_    0.691923 0.398544 0.165506 0.219928
H35   H     H_    0.639628 0.468842 0.226840 0.208622
H36   H     H_    0.633223 0.375245 0.291316 0.233728
C57   C     C_R   0.575889 0.911157 0.683188 0.140148
C58   C     C_R   0.648020 0.914858 0.683033 -0.145265
C59   C     C_R   0.685725 0.871806 0.769660 -0.137780
C60   C     C_R   0.651722 0.824506 0.856293 -0.109674
C61   C     C_R   0.580034 0.820227 0.856181 -0.136728
C62   C     C_R   0.542070 0.863341 0.770122 -0.141211
H37   H     H_    0.674935 0.950632 0.615258 0.111765
H38   H     H_    0.741286 0.874894 0.769284 0.120725
H39   H     H_    0.680882 0.791018 0.923240 0.120007
H40   H     H_    0.553922 0.783513 0.922737 0.139250
H41   H     H_    0.486503 0.859429 0.770951 0.115865
C63   C     C_R   0.424112 0.088841 0.316816 0.140151
C64   C     C_R   0.457937 0.136650 0.229879 -0.141227
C65   C     C_R   0.419978 0.179766 0.143814 -0.136736
C66   C     C_R   0.348289 0.175495 0.143699 -0.109670
C67   C     C_R   0.314281 0.128200 0.230332 -0.137778
C68   C     C_R   0.351981 0.085146 0.316964 -0.145258
H42   H     H_    0.513504 0.140558 0.229054 0.115865
H43   H     H_    0.446094 0.216474 0.077257 0.139252
H44   H     H_    0.319134 0.208985 0.076749 0.120006
H45   H     H_    0.258720 0.125118 0.230706 0.120724
H46   H     H_    0.325062 0.049376 0.384739 0.111766
C69   C     C_R   0.436237 0.932488 0.291912 0.144569
C70   C     C_R   0.368822 0.904897 0.293144 -0.147053
C71   C     C_R   0.340316 0.879389 0.184068 -0.122591
C72   C     C_R   0.378443 0.882556 0.072926 -0.131236
C73   C     C_R   0.445376 0.910550 0.071035 -0.163645
C74   C     C_R   0.474388 0.935092 0.180181 -0.132653
H47   H     H_    0.337879 0.904790 0.377441 0.101684
H48   H     H_    0.288304 0.858211 0.185258 0.119060
H49   H     H_    0.356129 0.863455 0.988249 0.114263
H50   H     H_    0.474614 0.913816 0.984913 0.136783
H51   H     H_    0.525948 0.957679 0.177167 0.120198
C75   C     C_R   0.563753 0.067510 0.708109 0.144564
C76   C     C_R   0.525596 0.064908 0.819832 -0.132656
C77   C     C_R   0.554601 0.089448 0.928985 -0.163653
C78   C     C_R   0.621535 0.117439 0.927112 -0.131246
C79   C     C_R   0.659669 0.120607 0.815979 -0.122585
C80   C     C_R   0.631170 0.095101 0.706894 -0.147043
H52   H     H_    0.474034 0.042324 0.822833 0.120197
H53   H     H_    0.525357 0.086181 0.015101 0.136795
H54   H     H_    0.643843 0.136538 0.011795 0.114262
H55   H     H_    0.711682 0.141783 0.814803 0.119059
H56   H     H_    0.662117 0.095209 0.622604 0.101683

loop_
_geom_bond_atom_site_label_1
_geom_bond_atom_site_label_2
_ccdc_geom_bond_type
C15   H21   S    
C57   C62   A    
C13   N1    A    
C54   H28   S    
C59   H38   S    
C14   C18   A    
C72   H49   S    
C32   C56   S    
C5    H13   S    
C70   C71   A    
C6    C9    A    
C29   C53   S    
C55   H31   S    
Cu1   Cu2   S    
C60   C61   A    
C1    O4    A    
C15   C19   A    
C3    C43   A    
C33   H4    S    
C49   H11   S    
C46   H8    S    
C14   H20   S    
Cu1   N1    S    
C38   C42   A    
C30   C54   S    
C75   C80   A    
C47   H9    S    
C11   H17   S    
C48   H10   S    
C20   C25   S    
C1    O1    A    
C29   C33   A    
C28   C41   S    
C63   C64   A    
Cu1   O1    S    
C23   C26   A    
C45   H7    S    
C27   O5    A    
C19   C26   S    
C65   C66   A    
C17   C19   A    
C69   C74   A    
C11   C15   A    
C12   C16   A    
C22   C25   A    
C34   H3    S    
C59   C60   A    
C32   C38   A    
C53   H26   S    
C18   C20   A    
C43   H5    S    
C58   H37   S    
C22   C63   S    
C12   H18   S    
C56   H35   S    
C38   C40   A    
C2    O3    A    
C9    C52   S    
Cu2   O6    S    
C10   C51   S    
Cu2   O4    S    
C55   H32   S    
C21   C26   A    
C39   C42   A    
Cu2   N2    S    
C4    C45   A    
C80   H56   S    
C63   C68   A    
C30   C34   A    
C56   H34   S    
C77   C78   A    
C73   H50   S    
C5    C7    A    
C67   H45   S    
C6    C8    A    
C4    C44   A    
C24   C75   S    
C74   H51   S    
C66   H44   S    
C18   H24   S    
C31   C37   A    
C68   H46   S    
C60   H39   S    
C64   H42   S    
C70   H47   S    
C76   H52   S    
C45   C49   A    
C16   C20   A    
C49   C52   A    
C29   C39   A    
C28   O7    A    
C17   H23   S    
C50   C51   A    
C30   C40   A    
Cu1   O7    S    
C24   C25   A    
C53   H27   S    
C50   H12   S    
C11   N1    A    
C78   H54   S    
C61   H40   S    
C8    C10   A    
C40   C41   A    
C13   H19   S    
C56   H36   S    
C14   N2    A    
C28   O6    A    
C31   C35   A    
C2    O2    A    
C73   C74   A    
C32   C36   A    
Cu2   O2    S    
C55   H33   S    
C67   C68   A    
C23   C69   S    
C71   C72   A    
C7    C9    A    
C35   H2    S    
C16   H22   S    
C79   H55   S    
C77   H53   S    
C7    H15   S    
C47   C51   A    
C76   C77   A    
C54   H30   S    
C57   C58   A    
C46   C50   A    
C3    C46   A    
C8    H16   S    
C13   C17   A    
Cu1   O3    S    
C1    C4    S    
C2    C3    S    
C5    C10   A    
C37   C39   A    
C36   H1    S    
C78   C79   A    
Cu2   O8    S    
C27   C42   S    
C44   H6    S    
C12   N2    A    
C6    H14   S    
C33   C35   A    
C72   C73   A    
C34   C36   A    
C65   H43   S    
C31   C55   S    
C37   C41   A    
C27   O8    A    
C75   C76   A    
C71   H48   S    
C44   C48   A    
C48   C52   A    
C54   H29   S    
C66   C67   A    
C58   C59   A    
C21   C24   A    
C61   C62   A    
C79   C80   A    
C22   C23   A    
Cu1   O5    S    
C53   H25   S    
C64   C65   A    
C43   C47   A    
C62   H41   S    
C21   C57   S    
C69   C70   A    
