data_mof_unit_31855.cif
_audit_creation_date              2012-12-10T17:02:04-0500
_audit_creation_method            fapswitch 2.2
_symmetry_space_group_name_H-M    P1
_symmetry_Int_Tables_number       1
_space_group_crystal_system       triclinic
_cell_length_a                    10.77033
_cell_length_b                    11.050395
_cell_length_c                    9.836205
_cell_angle_alpha                 111.408392
_cell_angle_beta                  98.023435
_cell_angle_gamma                 91.141573
_cell_volume                      1076.03358066

loop_
_atom_site_label
_atom_site_type_symbol
_atom_type_description
_atom_site_fract_x
_atom_site_fract_y
_atom_site_fract_z
_atom_type_partial_charge
C1    C     C_R   0.490408 0.253764 0.439922 0.784682
C2    C     C_R   0.081463 0.621231 0.606708 0.093698
C3    C     C_R   0.129740 0.512107 0.506073 -0.097350
C4    C     C_R   0.049501 0.409951 0.401004 -0.200985
C5    C     C_R   0.921197 0.411176 0.398132 -0.202113
C6    C     C_R   0.871317 0.514611 0.500326 -0.099614
C7    C     C_2   0.484620 0.113109 0.403463 0.085702
C8    C     C_2   0.502728 0.068021 0.513453 -0.183825
C9    C     C_2   0.515075 0.885502 0.593718 -0.391884
C10   C     C_2   0.492475 0.929090 0.483881 -0.125569
C11   C     C_2   0.510576 0.510778 0.081440 -0.065270
C12   C     C_R   0.262867 0.503870 0.502280 0.787458
C13   C     C_2   0.488833 0.489910 0.918782 -0.066063
C14   C     C_R   0.508924 0.745979 0.559795 0.843627
C15   C     C_R   0.737465 0.504926 0.499919 0.790570
C16   C     C_R   0.160119 0.730657 0.706333 -0.173696
C17   C     C_R   0.109376 0.837756 0.802214 -0.133115
C18   C     C_R   0.979927 0.839107 0.799106 -0.138890
C19   C     C_R   0.900418 0.733321 0.700187 -0.178699
C20   C     C_R   0.949853 0.622561 0.603605 0.097240
Cu1   Cu    Cu3+1 0.521920 0.521810 0.644910 0.931210
Cu2   Cu    Cu3+1 0.478080 0.478190 0.355090 0.938515
H1    H     H_    0.086766 0.327512 0.322405 0.144833
H2    H     H_    0.415028 0.418015 0.845857 0.160235
H3    H     H_    0.583760 0.583370 0.154554 0.160788
H4    H     H_    0.624813 0.621685 0.934312 0.191496
H5    H     H_    0.376264 0.377137 0.065366 0.189707
H6    H     H_    0.260834 0.736059 0.709795 0.151768
H7    H     H_    0.170696 0.920772 0.877945 0.131267
H8    H     H_    0.940785 0.923206 0.872352 0.131328
H9    H     H_    0.800336 0.740736 0.698471 0.143448
H10   H     H_    0.860632 0.329224 0.318420 0.146807
H11   H     H_    0.466689 0.861072 0.370426 0.219252
H12   H     H_    0.524362 0.134825 0.628126 0.153265
H13   H     H_    0.539438 0.952452 0.707978 0.152927
N1    N     N_2   0.445130 0.445430 0.137370 -0.285093
N2    N     N_2   0.554930 0.554500 0.862630 -0.284857
O1    O     O_R   0.511700 0.332330 0.577400 -0.587091
O2    O     O_R   0.474680 0.295500 0.332650 -0.573675
O3    O     O_R   0.338160 0.518420 0.622400 -0.581756
O4    O     O_R   0.301140 0.481590 0.377650 -0.567767
O5    O     O_R   0.525320 0.704500 0.667350 -0.589700
O6    O     O_R   0.488300 0.667670 0.422600 -0.574725
O7    O     O_R   0.698860 0.518410 0.622350 -0.571441
O8    O     O_R   0.661840 0.481580 0.377600 -0.575410
N3    N     N_2   0.457038 0.026349 0.252337 -0.428153
H14   H     H_    0.392600 0.058893 0.188079 0.258137
C21   C     C_3   0.567080 0.983991 0.183801 -0.698873
H15   H     H_    0.537532 0.911633 0.069808 0.227396
H16   H     H_    0.628686 0.936951 0.247188 0.234509
H17   H     H_    0.620916 0.068401 0.178026 0.225748

loop_
_geom_bond_atom_site_label_1
_geom_bond_atom_site_label_2
_ccdc_geom_bond_type
C12   O3    A    
C9    C14   S    
H4    N2    S    
C16   H6    S    
C12   O4    A    
C18   H8    S    
H5    N1    S    
Cu1   O7    S    
C2    C16   A    
C9    C10   D    
C13   N2    D    
Cu2   O6    S    
C14   O5    A    
C5    H10   S    
C19   H9    S    
C21   H16   S    
C2    C3    A    
Cu1   N2    S    
C7    C8    D    
C8    H12   S    
C17   H7    S    
C11   C13   S    
C11   H3    S    
Cu1   O3    S    
C1    O1    A    
C21   H15   S    
Cu2   O2    S    
Cu1   Cu2   S    
C11   N1    D    
C15   O7    A    
C17   C18   A    
C10   H11   S    
C5    C6    A    
C16   C17   A    
N3    C21   S    
Cu2   O4    S    
Cu1   O5    S    
C1    O2    A    
C2    C20   A    
C3    C4    A    
C7    N3    S    
Cu2   O8    S    
C6    C20   A    
C8    C10   S    
C18   C19   A    
C9    H13   S    
C4    H1    S    
C15   O8    A    
N3    H14   S    
C4    C5    A    
C3    C12   S    
C6    C15   S    
C1    C7    S    
C21   H17   S    
Cu2   N1    S    
Cu1   O1    S    
C19   C20   A    
C13   H2    S    
C14   O6    A    
