data_mof_unit_44662.cif
_audit_creation_date              2013-03-05T15:48:15-0500
_audit_creation_method            fapswitch 2.2
_symmetry_space_group_name_H-M    P1
_symmetry_Int_Tables_number       1
_space_group_crystal_system       triclinic
_cell_length_a                    11.868326
_cell_length_b                    12.944097
_cell_length_c                    15.603866
_cell_angle_alpha                 95.928347
_cell_angle_beta                  75.671572
_cell_angle_gamma                 102.011952
_cell_volume                      2268.32440327

loop_
_atom_site_label
_atom_site_type_symbol
_atom_site_description
_atom_site_fract_x
_atom_site_fract_y
_atom_site_fract_z
_atom_type_partial_charge
O1    O     O_R   0.419950 0.645670 0.495380 -0.596864
O2    O     O_R   0.580050 0.354330 0.504620 -0.634775
O3    O     O_R   0.611110 0.658410 0.506370 -0.514876
O4    O     O_R   0.388890 0.341590 0.493630 -0.524106
C1    C     C_R   0.526029 0.701746 0.495459 0.807249
C2    C     C_R   0.474005 0.298595 0.504702 0.833131
O5    O     O_R   0.350820 0.490050 0.621260 -0.611564
O6    O     O_R   0.649180 0.509950 0.378740 -0.595966
O7    O     O_R   0.541970 0.502800 0.632250 -0.577330
O8    O     O_R   0.458030 0.497200 0.367750 -0.522820
C3    C     C_R   0.427790 0.490612 0.668521 0.803597
C4    C     C_R   0.571783 0.508262 0.331784 0.787397
Cu1   Cu    Cu3+1 0.386820 0.492450 0.493500 0.996855
Cu2   Cu    Cu3+1 0.613180 0.507550 0.506500 0.980444
C5    C     C_R   0.384850 0.460810 0.762915 -0.144699
C6    C     C_R   0.614094 0.519641 0.234774 -0.126219
C7    C     C_R   0.245264 0.351056 0.877166 -0.068086
C8    C     C_R   0.752511 0.596593 0.103769 -0.001025
C9    C     C_R   0.269138 0.402813 0.796858 -0.073395
C10   C     C_R   0.723883 0.583430 0.196079 -0.103283
C11   C     C_R   0.469695 0.471674 0.813207 -0.223521
C12   C     C_R   0.538714 0.470726 0.180293 -0.225966
C13   C     C_R   0.446842 0.423036 0.893539 0.035438
C14   C     C_R   0.578193 0.464737 0.087521 0.016624
C15   C     C_R   0.328959 0.373955 0.931214 0.053554
C16   C     C_R   0.691082 0.523386 0.048608 0.075770
C17   C     C_R   0.536618 0.432833 0.941524 -0.003051
C18   C     C_R   0.502784 0.412469 0.032016 -0.024561
C19   C     C_R   0.391083 0.348261 0.063740 0.096295
C20   C     C_R   0.660249 0.453675 0.902272 0.108139
C21   C     C_R   0.299298 0.348695 0.021581 0.145775
C22   C     C_R   0.739071 0.504307 0.956448 0.158292
H1    H     H_    0.448733 0.437050 0.211227 0.202462
H2    H     H_    0.554417 0.521407 0.790106 0.154018
C23   C     C_R   0.451818 0.182254 0.512610 -0.092165
C24   C     C_R   0.549811 0.818436 0.485240 -0.106657
C25   C     C_R   0.647671 0.997900 0.521255 -0.075103
C26   C     C_R   0.358077 0.006507 0.467444 -0.077147
C27   C     C_R   0.647316 0.887971 0.510506 -0.097856
C28   C     C_R   0.351135 0.113480 0.493376 -0.043366
C29   C     C_R   0.475961 0.862480 0.446453 0.099166
C30   C     C_R   0.528624 0.137829 0.546220 0.054275
C31   C     C_R   0.459949 0.967618 0.473855 0.022122
C32   C     C_R   0.545107 0.034237 0.515503 0.012783
N1    N     N_R   0.216750 0.481110 0.483710 -0.231450
N2    N     N_R   0.783250 0.518890 0.516290 -0.230290
C33   C     C_R   0.938585 0.582826 0.597748 -0.131360
C34   C     C_R   0.049024 0.390551 0.421826 -0.150506
C35   C     C_R   0.821299 0.575690 0.587329 0.129519
C36   C     C_R   0.167594 0.400577 0.430809 0.154527
C37   C     C_R   0.860120 0.464031 0.457110 0.101458
C38   C     C_R   0.145214 0.547203 0.534250 0.095669
C39   C     C_R   0.976856 0.462640 0.469253 -0.041895
C40   C     C_R   0.021080 0.532673 0.533771 -0.018577
C41   C     C_3   0.174892 0.345502 0.079991 -0.380289
C42   C     C_3   0.173129 0.436903 0.150639 -0.701295
H3    H     H_    0.225464 0.428875 0.198637 0.251198
H4    H     H_    0.209563 0.513630 0.118957 0.240820
H5    H     H_    0.080658 0.437665 0.187633 0.311654
H6    H     H_    0.110570 0.355809 0.042544 0.196834
H7    H     H_    0.141526 0.268775 0.111865 0.261405
C43   C     C_3   0.873358 0.524760 0.919901 -0.324260
C44   C     C_3   0.927162 0.428195 0.922594 -0.887984
H8    H     H_    0.882956 0.385122 0.983683 0.268512
H9    H     H_    0.921264 0.374411 0.863332 0.273579
H10   H     H_    0.022588 0.454033 0.922221 0.229071
H11   H     H_    0.896469 0.553194 0.852348 0.192222
H12   H     H_    0.920944 0.588471 0.957235 0.230795
C45   C     C_2   0.230582 0.314086 0.388633 0.489564
H13   H     H_    0.184506 0.232950 0.395551 0.059031
O9    O     O_2   0.327979 0.330295 0.338925 -0.583764
C46   C     C_2   0.739296 0.623747 0.660339 0.509239
H14   H     H_    0.733568 0.606516 0.727939 0.021105
O10   O     O_2   0.685429 0.688853 0.647846 -0.547729
C47   C     C_2   0.968781 0.630637 0.682293 0.351160
H15   H     H_    0.015037 0.589870 0.715898 0.021181
O11   O     O_2   0.947178 0.717108 0.712603 -0.474160
C48   C     C_2   0.996675 0.295254 0.372161 0.359244
H16   H     H_    0.910273 0.250243 0.401088 0.051278
O12   O     O_2   0.048211 0.267927 0.298095 -0.546346
C49   C     C_2   0.803048 0.643872 0.251896 0.422969
H17   H     H_    0.766745 0.675486 0.317532 0.129057
O13   O     O_2   0.910552 0.656810 0.225395 -0.499836
C50   C     C_2   0.173259 0.398822 0.750032 0.385515
H18   H     H_    0.158839 0.471479 0.729360 0.050981
O14   O     O_2   0.110635 0.315552 0.733276 -0.505343
C51   C     C_2   0.143420 0.260788 0.896644 0.399427
H19   H     H_    0.058699 0.263259 0.883681 0.124528
O15   O     O_2   0.154330 0.181108 0.926991 -0.530367
C52   C     C_2   0.819603 0.701543 0.070945 0.321341
H20   H     H_    0.879257 0.752549 0.106661 0.139878
O16   O     O_2   0.804266 0.734747 0.005005 -0.518436
C53   C     C_3   0.375210 0.263512 0.128677 -0.408216
C54   C     C_3   0.354206 0.152810 0.083808 -0.733336
H21   H     H_    0.348176 0.092823 0.131565 0.257546
H22   H     H_    0.270287 0.137053 0.061244 0.279787
H23   H     H_    0.428833 0.144461 0.025955 0.248467
H24   H     H_    0.455581 0.269572 0.154503 0.229601
H25   H     H_    0.299421 0.270496 0.185471 0.260732
C55   C     C_3   0.705635 0.392734 0.815462 -0.428811
C56   C     C_3   0.694474 0.276034 0.831836 -0.755819
H26   H     H_    0.741717 0.266893 0.882759 0.261835
H27   H     H_    0.600287 0.238729 0.856044 0.244072
H28   H     H_    0.732088 0.233287 0.769325 0.252175
H29   H     H_    0.656776 0.395758 0.764445 0.195143
H30   H     H_    0.798614 0.425005 0.783414 0.196610
C57   C     C_3   0.562380 0.188178 0.631631 -0.449053
C58   C     C_3   0.451775 0.201654 0.703894 -0.703896
H31   H     H_    0.401555 0.254161 0.683443 0.258134
H32   H     H_    0.393095 0.123555 0.718308 0.273722
H33   H     H_    0.477015 0.237563 0.765463 0.236571
H34   H     H_    0.607826 0.137527 0.659309 0.219754
H35   H     H_    0.623184 0.265596 0.620097 0.215659
C59   C     C_3   0.437030 0.805566 0.364608 -0.398331
C60   C     C_3   0.541436 0.776648 0.293520 -0.794758
H36   H     H_    0.583635 0.721563 0.318545 0.209075
H37   H     H_    0.510073 0.737498 0.234646 0.254083
H38   H     H_    0.608393 0.848865 0.273024 0.261804
H39   H     H_    0.368363 0.733876 0.382633 0.238461
H40   H     H_    0.400130 0.857027 0.330787 0.226989
C61   C     C_2   0.232678 0.144155 0.523105 0.405952
H41   H     H_    0.158681 0.104809 0.495671 0.137332
O17   O     O_2   0.213569 0.209819 0.584091 -0.492413
C62   C     C_2   0.753437 0.848980 0.517201 0.584096
H42   H     H_    0.786049 0.865987 0.577195 0.148682
O18   O     O_2   0.808348 0.801798 0.454156 -0.525618
C63   C     C_2   0.757541 0.077541 0.527284 0.331831
H43   H     H_    0.765248 0.157898 0.509560 0.059865
O19   O     O_2   0.838644 0.056584 0.553230 -0.541218
C64   C     C_2   0.254251 0.934704 0.442853 0.325859
H44   H     H_    0.226533 0.855563 0.465668 0.172537
O20   O     O_2   0.203736 0.961355 0.391832 -0.527546
C65   C     C_2   0.199813 0.638235 0.585098 0.407760
H45   H     H_    0.248511 0.627836 0.632407 0.088873
O21   O     O_2   0.189338 0.727635 0.575174 -0.557441
C66   C     C_2   0.824393 0.413343 0.376518 0.436807
H46   H     H_    0.746576 0.351647 0.380659 0.072635
O22   O     O_2   0.882980 0.440439 0.303662 -0.523846

loop_
_geom_bond_atom_site_label_1
_geom_bond_atom_site_label_2
_geom_bond_distance
_ccdc_geom_bond_type
C15   C21   1.421536 A    
C26   C28   1.415293 A    
C41   C42   1.531302 S    
C44   H9    1.106088 S    
C16   C22   1.425892 A    
C56   H26   1.107834 S    
C57   H34   1.108268 S    
C8    C16   1.422981 A    
C29   C59   1.530762 S    
O7    Cu2   1.936675 S    
C49   H17   1.081864 S    
C33   C35   1.424077 A    
C39   C40   1.409154 A    
C42   H3    1.109393 S    
O5    C3    1.306887 A    
C28   C61   1.490259 S    
N2    C35   1.383633 A    
C55   H29   1.102664 S    
C53   C54   1.528427 S    
C43   H11   1.103088 S    
O1    C1    1.316092 A    
C26   C64   1.487665 S    
C18   C19   1.412390 A    
C36   C45   1.482565 S    
C50   O14   1.219448 D    
C48   O12   1.220918 D    
C60   H36   1.102125 S    
C1    C24   1.495523 S    
C20   C55   1.530440 S    
C58   H31   1.107507 S    
C34   C48   1.493328 S    
O4    Cu1   1.958223 S    
C45   O9    1.212734 D    
C23   C30   1.397769 A    
C57   H35   1.108763 S    
Cu1   Cu2   2.709188 S    
C5    C9    1.422348 A    
C3    C5    1.497338 S    
C4    C6    1.484691 S    
C58   H32   1.110828 S    
C60   H37   1.110791 S    
C35   C46   1.479452 S    
C6    C12   1.397652 A    
C57   C58   1.532029 S    
C13   C17   1.425121 A    
C30   C57   1.528930 S    
C53   H25   1.106959 S    
C59   H39   1.109092 S    
C6    C10   1.417717 A    
C34   C36   1.426418 A    
C44   H10   1.110871 S    
C56   H27   1.108804 S    
C41   H6    1.105114 S    
C17   C20   1.423179 A    
C38   C65   1.476958 S    
C29   C31   1.420649 A    
C24   C29   1.414699 A    
O2    C2    1.313755 A    
C30   C32   1.412808 A    
C49   O13   1.221127 D    
C38   C40   1.447679 A    
C59   C60   1.527404 S    
C34   C39   1.424180 A    
C8    C52   1.494481 S    
C50   H18   1.083886 S    
Cu2   N2    2.035600 S    
C19   C53   1.521417 S    
C48   H16   1.082251 S    
C46   H14   1.083433 S    
C11   H2    1.074483 S    
N1    C38   1.380659 A    
N2    C37   1.380767 A    
C27   C62   1.480724 S    
C37   C39   1.448018 A    
C64   O20   1.221201 D    
C47   H15   1.083987 S    
C63   O19   1.219949 D    
C43   C44   1.525859 S    
O7    C3    1.315833 A    
C37   C66   1.472881 S    
C52   O16   1.221944 D    
C5    C11   1.399631 A    
O6    C4    1.304815 A    
C60   H38   1.111012 S    
C54   H21   1.110557 S    
C54   H22   1.109831 S    
C47   O11   1.221594 D    
C61   H41   1.081108 S    
O3    Cu2   1.958223 S    
O8    C4    1.311198 A    
C33   C40   1.422511 A    
C46   O10   1.215242 D    
C56   H28   1.110263 S    
C11   C13   1.401732 A    
C31   C32   1.426176 A    
C65   H45   1.077591 S    
C12   C14   1.406171 A    
O4    C2    1.303944 A    
O1    Cu1   1.938563 S    
C63   H43   1.083539 S    
Cu1   N1    2.035601 S    
C66   O22   1.220052 D    
C62   O18   1.220532 D    
C12   H1    1.076119 S    
O6    Cu2   1.934796 S    
C7    C51   1.490740 S    
C24   C27   1.422569 A    
C14   C18   1.421074 A    
C14   C16   1.417482 A    
C66   H46   1.081218 S    
O3    C1    1.305322 A    
O8    Cu1   1.936675 S    
C58   H33   1.104994 S    
C2    C23   1.486479 S    
C55   H30   1.104732 S    
C54   H23   1.111320 S    
C42   H5    1.107937 S    
C43   H12   1.099170 S    
C7    C15   1.423455 A    
C25   C32   1.418496 A    
C51   O15   1.221296 D    
C64   H44   1.077702 S    
C22   C43   1.530060 S    
C26   C31   1.431363 A    
C19   C21   1.406217 A    
C20   C22   1.428666 A    
C52   H20   1.082801 S    
N1    C36   1.384142 A    
C41   H7    1.109683 S    
C55   C56   1.531136 S    
C7    C9    1.420593 A    
C42   H4    1.111125 S    
C23   C28   1.410669 A    
C8    C10   1.415466 A    
C13   C15   1.416585 A    
C45   H13   1.081128 S    
O2    Cu2   1.938561 S    
C61   O17   1.218929 D    
C33   C47   1.491588 S    
C44   H8    1.111416 S    
O5    Cu1   1.934795 S    
C51   H19   1.080901 S    
C25   C27   1.414728 A    
C17   C18   1.405957 A    
C65   O21   1.218591 D    
C21   C41   1.526026 S    
C10   C49   1.487208 S    
C53   H24   1.109507 S    
C59   H40   1.105624 S    
C9    C50   1.486839 S    
C62   H42   1.084400 S    
C25   C63   1.501022 S    
