data_mof_unit_17784.cif
_audit_creation_date              2012-12-10T17:12:40-0500
_audit_creation_method            fapswitch 2.2
_symmetry_space_group_name_H-M    P1
_symmetry_Int_Tables_number       1
_space_group_crystal_system       triclinic
_cell_length_a                    23.026791
_cell_length_b                    10.711187
_cell_length_c                    10.03318
_cell_angle_alpha                 90.697128
_cell_angle_beta                  92.290651
_cell_angle_gamma                 90.543339
_cell_volume                      2472.34279702

loop_
_atom_site_label
_atom_site_type_symbol
_atom_type_description
_atom_site_fract_x
_atom_site_fract_y
_atom_site_fract_z
_atom_type_partial_charge
C1    C     C_R   0.501000 0.262711 0.499281 0.987144
C2    C     C_R   0.974864 0.382856 0.734132 -0.238034
C3    C     C_R   0.035994 0.386672 0.747143 -0.081335
C4    C     C_R   0.067247 0.480586 0.681191 -0.063848
C5    C     C_R   0.037033 0.578626 0.616241 0.001525
C6    C     C_R   0.068751 0.679143 0.563225 -0.075252
C7    C     C_R   0.038928 0.786305 0.516113 -0.104806
C8    C     C_R   0.977487 0.786972 0.510480 -0.113823
C9    C     C_R   0.128066 0.478291 0.671104 0.610743
C10   C     C_R   0.129627 0.665888 0.558929 0.576544
C11   C     C_R   0.235253 0.587882 0.421536 -0.034485
C12   C     C_R   0.389107 0.498430 0.497429 0.945756
C13   C     C_R   0.295637 0.581836 0.416878 -0.250111
C14   C     C_R   0.325986 0.492371 0.491068 -0.179347
C15   C     C_R   0.295428 0.393290 0.548863 -0.176788
C16   C     C_R   0.234329 0.397394 0.546067 0.442330
C17   C     C_R   0.207055 0.512381 0.515348 0.055934
C18   C     C_R   0.769705 0.522271 0.420694 -0.123182
C19   C     C_R   0.709647 0.505430 0.404453 -0.179358
C20   C     C_R   0.674674 0.517827 0.514800 -0.129085
C21   C     C_R   0.700314 0.550265 0.640023 -0.244003
C22   C     C_R   0.759677 0.572239 0.656224 0.480922
C23   C     C_R   0.497837 0.737292 0.500408 0.936636
C24   C     C_R   0.794877 0.554590 0.546285 0.168544
C25   C     C_2   0.490974 0.931838 0.387319 -0.138907
C26   C     C_2   0.489928 0.868528 0.501071 -0.312307
C27   C     C_2   0.488022 0.066037 0.388544 -0.098347
C28   C     C_2   0.504615 0.130923 0.497967 -0.282864
C29   C     C_2   0.514936 0.596303 0.929570 -0.026107
C30   C     C_2   0.504112 0.599918 0.076475 -0.156746
C31   C     C_R   0.611298 0.502449 0.503060 0.906973
C32   C     C_R   0.885309 0.665186 0.521988 0.600132
C33   C     C_R   0.884641 0.466815 0.627877 0.580938
C34   C     C_R   0.944858 0.474593 0.657572 -0.077530
C35   C     C_R   0.975900 0.577720 0.607668 0.020181
C36   C     C_R   0.945927 0.678412 0.546588 -0.075861
H1    H     H_    0.690799 0.480967 0.306895 0.187573
H2    H     H_    0.674111 0.559545 0.726484 0.240288
H3    H     H_    0.494660 0.885475 0.291150 0.183950
H4    H     H_    0.481783 0.911985 0.596625 0.176392
H5    H     H_    0.473465 0.111633 0.297128 0.183973
H6    H     H_    0.522033 0.088545 0.588429 0.151326
H7    H     H_    0.477916 0.429684 0.894217 0.172307
H8    H     H_    0.504094 0.689997 0.126969 0.190393
H9    H     H_    0.506349 0.416704 0.100898 0.175666
H10   H     H_    0.319126 0.645966 0.355317 0.204681
H11   H     H_    0.796884 0.508866 0.336166 0.176787
N1    N     N_R   0.856733 0.561769 0.563782 -0.341799
N2    N     N_R   0.153602 0.550862 0.578498 -0.325350
N3    N     N_2   0.500610 0.501330 0.852150 -0.221841
N4    N     N_2   0.500630 0.501360 0.147810 -0.194806
O1    O     O_R   0.499990 0.319060 0.613040 -0.606325
O2    O     O_2   0.853784 0.364308 0.659238 -0.492364
O3    O     O_2   0.161416 0.409308 0.754501 -0.472565
O4    O     O_2   0.164511 0.765809 0.543060 -0.537385
O5    O     O_R   0.500010 0.319100 0.386900 -0.619702
O6    O     O_R   0.416150 0.499940 0.613100 -0.609748
O7    O     O_R   0.416160 0.499980 0.386960 -0.594098
O8    O     O_R   0.499990 0.680900 0.613100 -0.601490
O9    O     O_R   0.500010 0.680940 0.386960 -0.623950
O10   O     O_R   0.583840 0.500020 0.613040 -0.577815
O11   O     O_R   0.583850 0.500060 0.386900 -0.610182
O12   O     O_2   0.854810 0.752602 0.454479 -0.509241
Zn1   Zn    Zn3+2 0.499990 0.499970 0.650990 1.008892
Zn2   Zn    Zn3+2 0.500010 0.500030 0.349010 0.982628
C37   C     C_2   0.942990 0.287010 0.809629 1.074223
O13   O     O_2   0.943619 0.177785 0.773625 -0.470543
O14   O     O_R   0.912312 0.320393 0.921753 -0.689881
H12   H     H_    0.916220 0.412631 0.944377 0.326299
S1    S     S_3+6 0.788005 0.619116 0.816097 0.058564
O15   O     O_2   0.842585 0.695864 0.805867 -0.267234
O16   O     O_2   0.743501 0.694900 0.886030 -0.269835
O17   O     O_3   0.802628 0.490701 0.905451 -0.507789
H13   H     H_    0.815242 0.522405 0.995255 0.384845
C38   C     C_2   0.543245 0.708149 0.875974 1.001092
O18   O     O_2   0.527307 0.812155 0.909247 -0.652626
O19   O     O_R   0.590024 0.695446 0.792908 -0.769364
H14   H     H_    0.606208 0.778824 0.764173 0.346411
C39   C     C_2   0.066143 0.290168 0.828142 1.037010
O20   O     O_2   0.069914 0.183692 0.784312 -0.506930
O21   O     O_R   0.089579 0.321565 0.954895 -0.729617
H15   H     H_    0.108981 0.248157 0.000670 0.377030
C40   C     C_2   0.070816 0.897316 0.468763 1.052912
O22   O     O_2   0.070714 0.994837 0.533352 -0.542046
O23   O     O_R   0.099694 0.890574 0.349021 -0.718418
H16   H     H_    0.119766 0.972065 0.327314 0.381161
C41   C     C_2   0.947154 0.903397 0.470385 1.053570
O24   O     O_2   0.954165 0.947589 0.360288 -0.564925
O25   O     O_R   0.910990 0.962518 0.559770 -0.673560
H17   H     H_    0.892969 0.041131 0.521824 0.378985
C42   C     C_2   0.203145 0.658639 0.316189 1.055742
O26   O     O_2   0.153837 0.626553 0.279853 -0.566810
O27   O     O_R   0.229916 0.759637 0.255373 -0.762990
H18   H     H_    0.203749 0.799609 0.184652 0.374780
C43   C     C_2   0.326271 0.283258 0.604563 1.010250
O28   O     O_2   0.366476 0.237117 0.545779 -0.638050
O29   O     O_R   0.309027 0.232151 0.724365 -0.716017
H19   H     H_    0.333083 0.157298 0.751957 0.353251
S2    S     S_3+6 0.194440 0.254431 0.523231 0.094330
O30   O     O_2   0.133671 0.278612 0.470064 -0.262208
O31   O     O_2   0.224712 0.173899 0.424304 -0.283125
O32   O     O_3   0.191704 0.177402 0.667956 -0.432483
H20   H     H_    0.177238 0.092630 0.642856 0.415624

loop_
_geom_bond_atom_site_label_1
_geom_bond_atom_site_label_2
_ccdc_geom_bond_type
C37   O14   S    
C41   O24   D    
O27   H18   S    
N3    Zn1   S    
O17   H13   S    
C31   O10   A    
C7    C40   S    
C43   O28   D    
C30   N4    D    
C3    C39   S    
C18   H11   S    
O29   H19   S    
C7    C8    A    
O19   H14   S    
C23   O8    A    
O8    Zn1   S    
C40   O22   D    
C18   C24   A    
C32   C36   A    
C1    O5    A    
C18   C19   A    
C15   C43   S    
C5    C6    A    
H9    N4    S    
O5    Zn2   S    
C34   C35   A    
C8    C36   A    
C23   C26   S    
C19   H1    S    
C21   H2    S    
C19   C20   A    
O14   H12   S    
C1    C28   S    
S1    O15   D    
C12   O7    A    
C2    C34   A    
C37   O13   D    
C21   C22   A    
C32   N1    A    
C31   O11   A    
C30   H8    S    
O21   H15   S    
C29   N3    D    
C33   O2    S    
C23   O9    A    
C24   N1    S    
C9    N2    A    
O1    Zn1   S    
C17   N2    S    
C42   O26   D    
C39   O21   S    
C16   C17   A    
C25   C26   D    
O23   H16   S    
C35   C36   A    
O10   Zn1   S    
C38   O18   D    
C29   C30   S    
C42   O27   S    
C27   H5    S    
O7    Zn2   S    
S2    O30   D    
S1    O17   S    
C33   C34   A    
H7    N3    S    
C10   O4    S    
C38   O19   S    
C12   O6    A    
C40   O23   S    
C12   C14   S    
O9    Zn2   S    
C41   O25   S    
C22   C24   A    
C3    C4    A    
O6    Zn1   S    
C11   C17   A    
O11   Zn2   S    
S2    O31   D    
C32   O12   S    
C4    C5    A    
C2    C37   S    
C6    C10   A    
C43   O29   S    
C16   S2    S    
C6    C7    A    
C29   C38   S    
C25   C27   S    
C8    C41   S    
C2    C3    A    
C4    C9    A    
C25   H3    S    
C11   C13   A    
C26   H4    S    
C13   H10   S    
C5    C35   A    
C28   H6    S    
O32   H20   S    
C1    O1    A    
N4    Zn2   S    
C39   O20   D    
C11   C42   S    
S2    O32   S    
C20   C21   A    
C27   C28   D    
C33   N1    A    
C14   C15   A    
S1    O16   D    
C9    O3    S    
O25   H17   S    
C13   C14   A    
C10   N2    A    
C22   S1    S    
C15   C16   A    
C20   C31   S    
