data_mof_unit_48463.cif
_audit_creation_date              2012-12-11T15:42:38-0500
_audit_creation_method            fapswitch 2.2
_symmetry_space_group_name_H-M    P1
_symmetry_Int_Tables_number       1
_space_group_crystal_system       triclinic
_cell_length_a                    6.925247
_cell_length_b                    14.574195
_cell_length_c                    16.186312
_cell_angle_alpha                 90.473778
_cell_angle_beta                  90.260845
_cell_angle_gamma                 89.817053
_cell_volume                      1633.60194005

loop_
_atom_site_label
_atom_site_type_symbol
_atom_type_description
_atom_site_fract_x
_atom_site_fract_y
_atom_site_fract_z
_atom_type_partial_charge
O1    O     O_R   0.505810 0.583360 0.413880 -0.544239
O2    O     O_R   0.175870 0.595480 0.585520 -0.546408
O3    O     O_R   0.005540 0.416640 0.586120 -0.543701
C1    C     C_R   0.345043 0.617811 0.614548 0.672014
O4    O     O_R   0.176100 0.594390 0.414490 -0.509085
O5    O     O_R   0.005770 0.415540 0.413870 -0.541031
C2    C     C_R   0.344525 0.617032 0.386205 0.742749
O6    O     O_R   0.505580 0.584460 0.586130 -0.545079
O7    O     O_3   0.339190 0.441320 0.500000 -0.373738
V1    V     V_3+5 0.064350 0.510890 0.500000 1.432868
O8    O     O_R   0.676050 0.404520 0.414480 -0.545389
C3    C     C_R   0.845040 0.382176 0.385621 0.691054
O9    O     O_R   0.675830 0.405610 0.585510 -0.540761
C4    C     C_R   0.845567 0.384769 0.614603 0.771263
V2    V     V_3+5 0.564340 0.489110 0.500000 1.399836
O10   O     O_3   0.839370 0.558680 0.500000 -0.369947
C5    C     C_2   0.720046 0.228079 0.800091 0.448245
C6    C     C_2   0.880650 0.179298 0.820198 -0.394056
H1    H     H_    0.011254 0.185700 0.784136 0.110470
C7    C     C_2   0.708941 0.286468 0.724271 -0.241370
C8    C     C_2   0.862896 0.321429 0.685247 -0.374201
H2    H     H_    0.565342 0.304255 0.702261 0.154454
H3    H     H_    0.007652 0.307960 0.707939 0.137742
C9    C     C_R   0.047510 0.223340 0.219188 -0.160466
H4    H     H_    0.188437 0.204745 0.195543 0.114500
C10   C     C_R   0.036171 0.287273 0.284038 -0.149557
H5    H     H_    0.168979 0.316125 0.308213 0.118305
C11   C     C_R   0.856287 0.313588 0.317085 -0.045749
C12   C     C_R   0.688027 0.274384 0.283282 -0.157162
H6    H     H_    0.547088 0.293045 0.306862 0.116087
C13   C     C_R   0.699359 0.210454 0.218428 -0.153637
H7    H     H_    0.566540 0.181676 0.194183 0.115663
C14   C     C_R   0.879279 0.183946 0.185554 -0.043528
C15   C     C_R   0.188203 0.724115 0.718379 -0.160189
H8    H     H_    0.047221 0.706187 0.694102 0.114964
C16   C     C_R   0.199467 0.786254 0.784787 -0.149890
H9    H     H_    0.066596 0.814526 0.809313 0.116970
C17   C     C_R   0.379315 0.811679 0.818849 -0.046674
C18   C     C_R   0.547587 0.773262 0.784391 -0.157960
H10   H     H_    0.688579 0.791247 0.808613 0.114887
C19   C     C_R   0.536328 0.711121 0.717985 -0.154743
H11   H     H_    0.669206 0.682905 0.693408 0.116505
C20   C     C_R   0.356457 0.685558 0.684042 -0.046127
C21   C     C_R   0.196814 0.741996 0.296944 0.440756
C22   C     C_R   0.211070 0.802220 0.229940 -0.252293
H12   H     H_    0.087600 0.845126 0.215515 0.174233
C23   C     C_R   0.381099 0.808528 0.182995 -0.217327
C24   C     C_R   0.538019 0.749505 0.203078 0.371880
C25   C     C_R   0.524532 0.690917 0.270929 -0.202491
H13   H     H_    0.646773 0.647000 0.284851 0.191256
C26   C     C_R   0.354516 0.684687 0.317696 -0.242365
O11   O     O_R   0.230120 0.912300 0.917180 -0.541915
O12   O     O_R   0.559740 0.902430 0.088770 -0.536408
O13   O     O_R   0.729930 0.081310 0.089370 -0.543187
C27   C     C_R   0.391209 0.878341 0.115997 0.708773
O14   O     O_R   0.559840 0.901330 0.917750 -0.548170
O15   O     O_R   0.730030 0.080210 0.917120 -0.502556
C28   C     C_R   0.390690 0.879170 0.888574 0.684593
O16   O     O_R   0.230020 0.913400 0.089430 -0.537192
O17   O     O_3   0.396460 0.055470 0.003290 -0.361170
V3    V     V_3+5 0.671360 0.985960 0.003250 1.452654
O18   O     O_R   0.059740 0.091300 0.917690 -0.544580
C29   C     C_R   0.889964 0.113848 0.889852 0.777061
O19   O     O_R   0.059640 0.092400 0.088720 -0.549076
C30   C     C_R   0.890602 0.114975 0.117367 0.675576
V4    V     V_3+5 0.171350 0.007820 0.003190 1.428619
O20   O     O_3   0.896380 0.938200 0.003220 -0.372511
O21   O     O_3   0.555074 0.218584 0.847693 -0.537853
C31   C     C_3   0.505176 0.304594 0.882647 0.088824
H14   H     H_    0.441747 0.350351 0.834937 0.110040
H15   H     H_    0.632873 0.338747 0.911667 0.105363
C32   C     C_3   0.354978 0.290820 0.949642 -0.666313
H16   H     H_    0.413630 0.245458 0.998571 0.223295
H17   H     H_    0.316079 0.358044 0.977856 0.158443
H18   H     H_    0.222908 0.259547 0.922663 0.216463
O22   O     O_3   0.024219 0.736769 0.339242 -0.535735
C33   C     C_3   0.017197 0.808820 0.398004 0.116253
H19   H     H_    0.029670 0.877026 0.367889 0.101831
H20   H     H_    0.134991 0.801067 0.444601 0.095866
C34   C     C_3   0.824558 0.806067 0.442721 -0.687674
H21   H     H_    0.807461 0.739393 0.474408 0.233005
H22   H     H_    0.818134 0.862113 0.489524 0.161543
H23   H     H_    0.704180 0.815183 0.397942 0.214304
O23   O     O_3   0.704766 0.744684 0.157134 -0.631918
H24   H     H_    0.668194 0.749386 0.098112 0.286209

loop_
_geom_bond_atom_site_label_1
_geom_bond_atom_site_label_2
_ccdc_geom_bond_type
C27   O16   A    
C19   H11   S    
C1    O6    A    
C14   C30   S    
C18   C19   A    
O13   C30   A    
C33   H19   S    
C10   H5    S    
O18   C29   A    
C3    C11   S    
C4    C8    S    
C11   C12   A    
C9    C10   A    
C6    H1    S    
C34   H23   S    
O16   V4    S    
O5    C3    A    
C17   C18   A    
C6    C29   S    
V2    O10   S    
C5    C7    S    
C31   H15   S    
C15   H8    S    
C22   C23   A    
C21   O22   S    
C17   C28   S    
O8    V2    S    
O23   H24   S    
C23   C24   A    
O21   C31   S    
C25   C26   A    
C13   C14   A    
O1    V2    S    
O7    V1    S    
C33   H20   S    
V4    O20   S    
O17   V4    S    
O9    C4    A    
C19   C20   A    
O12   V3    S    
C32   H18   S    
O15   C29   A    
O12   C27   A    
O18   V4    S    
C9    H4    S    
C32   H17   S    
C18   H10   S    
O4    C2    A    
C34   H21   S    
C22   H12   S    
C24   O23   S    
O17   V3    S    
O19   V4    S    
C31   C32   S    
O2    C1    A    
C12   H6    S    
V3    O20   S    
C13   H7    S    
C5    C6    D    
O22   C33   S    
O3    C4    A    
O11   C28   A    
C21   C26   A    
C34   H22   S    
C24   C25   A    
C1    C20   S    
C7    H2    S    
O6    V2    S    
O9    V2    S    
O2    V1    S    
O11   V4    S    
C21   C22   A    
C23   C27   S    
C33   C34   S    
C16   H9    S    
C5    O21   S    
O1    C2    A    
C15   C20   A    
C32   H16   S    
O5    V1    S    
O8    C3    A    
O15   V3    S    
O13   V3    S    
C10   C11   A    
C9    C14   A    
O19   C30   A    
C8    H3    S    
O7    V2    S    
C2    C26   S    
O4    V1    S    
C12   C13   A    
O3    V1    S    
V1    O10   S    
C16   C17   A    
O14   C28   A    
C15   C16   A    
C31   H14   S    
C7    C8    D    
C25   H13   S    
O14   V3    S    
