data_mof_unit_30544.cif
_audit_creation_date              2012-12-10T18:20:32-0500
_audit_creation_method            fapswitch 2.2
_symmetry_space_group_name_H-M    P1
_symmetry_Int_Tables_number       1
_space_group_crystal_system       triclinic
_cell_length_a                    14.012979
_cell_length_b                    13.620156
_cell_length_c                    15.014806
_cell_angle_alpha                 89.960105
_cell_angle_beta                  90.061588
_cell_angle_gamma                 82.641463
_cell_volume                      2842.10592997

loop_
_atom_site_label
_atom_site_type_symbol
_atom_type_description
_atom_site_fract_x
_atom_site_fract_y
_atom_site_fract_z
_atom_type_partial_charge
C1    C     C_R   0.499956 0.500144 0.326450 0.893469
C2    C     C_R   0.500057 0.499726 0.673548 0.895084
C3    C     C_R   0.500117 0.499150 0.953667 0.060775
C4    C     C_R   0.500047 0.499510 0.046336 0.061453
C5    C     C_R   0.412774 0.497377 0.907241 0.117564
C6    C     C_R   0.587393 0.501254 0.092760 0.119669
C7    C     C_R   0.673946 0.502249 0.953937 -0.217337
C8    C     C_R   0.326234 0.496287 0.046069 -0.220333
C9    C     C_R   0.673888 0.502516 0.046468 -0.223472
C10   C     C_R   0.326314 0.495860 0.953532 -0.216018
C11   C     C_R   0.804766 0.447585 0.563389 -0.048068
C12   C     C_R   0.195308 0.551741 0.436186 -0.047570
C13   C     C_R   0.791257 0.552525 0.436528 -0.041812
C14   C     C_R   0.208697 0.448257 0.564008 -0.045046
C15   C     C_R   0.892134 0.553025 0.433725 -0.013091
C16   C     C_R   0.108115 0.445372 0.565337 -0.011366
C17   C     C_R   0.949498 0.499298 0.499251 0.032840
C18   C     C_R   0.050759 0.498908 0.499669 0.033924
C19   C     C_R   0.905453 0.446329 0.564735 0.004898
C20   C     C_R   0.094674 0.552720 0.434701 0.004400
C21   C     C_R   0.936973 0.606182 0.368172 0.223357
C22   C     C_R   0.063302 0.391805 0.630663 0.216898
C23   C     C_R   0.517440 0.314023 0.499982 0.915640
C24   C     C_R   0.482552 0.685938 0.499534 0.917029
C25   C     C_R   0.037547 0.606170 0.369780 -0.287031
C26   C     C_R   0.962504 0.393419 0.630015 -0.286232
C27   C     C_1   0.468699 0.789624 0.494822 -0.172327
C28   C     C_1   0.531270 0.210173 0.497738 -0.174740
C29   C     C_2   0.457722 0.982420 0.484836 0.401811
C30   C     C_2   0.542808 0.017078 0.492061 0.401709
C31   C     C_1   0.540161 0.122324 0.495174 -0.094245
C32   C     C_1   0.459927 0.877321 0.489955 -0.093057
C33   C     C_R   0.413448 0.497324 0.815120 -0.254973
C34   C     C_R   0.586660 0.501603 0.184873 -0.257077
C35   C     C_R   0.500149 0.499190 0.769432 -0.075464
C36   C     C_R   0.499912 0.500177 0.230566 -0.074058
C37   C     C_R   0.586893 0.500610 0.815307 -0.259536
C38   C     C_R   0.413196 0.498554 0.184697 -0.261244
C39   C     C_R   0.587521 0.500633 0.907439 0.119024
C40   C     C_R   0.412626 0.498137 0.092565 0.118588
H1    H     H_    0.346426 0.495954 0.779193 0.164328
H2    H     H_    0.653633 0.502916 0.220810 0.160095
H3    H     H_    0.653925 0.501891 0.779517 0.160630
H4    H     H_    0.346139 0.497463 0.220491 0.160815
H5    H     H_    0.741322 0.503315 0.918788 0.144888
H6    H     H_    0.258865 0.495181 0.081224 0.145086
H7    H     H_    0.741234 0.503636 0.081747 0.149181
H8    H     H_    0.259005 0.494444 0.918215 0.147642
H9    H     H_    0.769700 0.406840 0.612911 0.129057
H10   H     H_    0.230357 0.592471 0.386640 0.128036
H11   H     H_    0.744913 0.593962 0.388264 0.169721
H12   H     H_    0.254794 0.409549 0.613977 0.166301
H13   H     H_    0.071132 0.647363 0.319453 0.139658
H14   H     H_    0.928828 0.352485 0.680473 0.140247
N1    N     N_R   0.750030 0.500040 0.500070 -0.109765
N2    N     N_R   0.249970 0.499960 0.499930 -0.108743
O1    O     O_R   0.580280 0.500020 0.367860 -0.632290
O2    O     O_R   0.419720 0.499980 0.632140 -0.631716
O3    O     O_R   0.419730 0.500030 0.367840 -0.629779
O4    O     O_R   0.580270 0.499970 0.632160 -0.629215
O5    O     O_R   0.591830 0.359650 0.500030 -0.622562
O6    O     O_R   0.408170 0.640350 0.499970 -0.622914
O7    O     O_R   0.431280 0.359660 0.500010 -0.596530
O8    O     O_R   0.568720 0.640340 0.499990 -0.594489
Zn1   Zn    Zn3+2 0.607200 0.499990 0.500020 0.948355
Zn2   Zn    Zn3+2 0.392800 0.500010 0.499980 0.947359
O9    O     O_3   0.627441 0.950774 0.500931 -0.623985
C41   C     C_3   0.711583 0.996561 0.489925 0.109187
H15   H     H_    0.719572 0.048420 0.545921 0.148782
H16   H     H_    0.710126 0.036895 0.425252 0.140715
C42   C     C_3   0.798651 0.917348 0.489888 -0.806512
H17   H     H_    0.793000 0.864568 0.434318 0.259530
H18   H     H_    0.865401 0.952359 0.481338 0.197931
H19   H     H_    0.802851 0.876144 0.553931 0.260691
O10   O     O_3   0.372708 0.048393 0.477150 -0.625709
C43   C     C_3   0.292852 0.000942 0.451963 0.107045
H20   H     H_    0.273433 0.951625 0.506381 0.150785
H21   H     H_    0.308300 0.957471 0.389630 0.139325
C44   C     C_3   0.206961 0.078743 0.434426 -0.813849
H22   H     H_    0.224480 0.129998 0.381037 0.261414
H23   H     H_    0.144273 0.042227 0.413090 0.200041
H24   H     H_    0.187590 0.121726 0.495949 0.255321
N3    N     N_2   0.881536 0.660485 0.300763 -0.315248
H25   H     H_    0.908140 0.724668 0.282155 0.226718
C45   C     C_3   0.861378 0.601604 0.224502 -0.830881
H26   H     H_    0.929138 0.575158 0.188604 0.242921
H27   H     H_    0.812136 0.647367 0.178359 0.245117
H28   H     H_    0.826053 0.536862 0.245469 0.240125
N4    N     N_2   0.118575 0.337549 0.698262 -0.325489
H29   H     H_    0.082971 0.336041 0.758268 0.224808
C46   C     C_3   0.161161 0.239794 0.671133 -0.798538
H30   H     H_    0.103999 0.193076 0.654955 0.238616
H31   H     H_    0.205972 0.204329 0.726236 0.246467
H32   H     H_    0.208147 0.244202 0.612168 0.257238

loop_
_geom_bond_atom_site_label_1
_geom_bond_atom_site_label_2
_ccdc_geom_bond_type
C2    C35   S    
C14   N2    A    
C34   H2    S    
C43   C44   S    
C6    C9    A    
C45   H26   S    
C11   C19   A    
C7    H5    S    
C35   C37   A    
C25   H13   S    
C29   C32   S    
C1    O3    A    
O3    Zn2   S    
C30   C31   S    
C2    O4    A    
C20   C25   A    
C44   H24   S    
C7    C9    A    
C19   C26   A    
C33   C35   A    
C13   H11   S    
O2    Zn2   S    
C14   H12   S    
C4    C40   A    
C41   H15   S    
C5    C33   A    
C16   C22   A    
C24   C27   S    
N4    C46   S    
C34   C36   A    
C30   O9    S    
C23   O7    A    
O7    Zn2   S    
C3    C39   A    
C24   O8    A    
C26   H14   S    
N1    Zn1   S    
C45   H27   S    
O6    Zn2   S    
O9    C41   S    
C21   N3    S    
C43   H20   S    
C4    C6    A    
O1    Zn1   S    
C46   H30   S    
C44   H23   S    
C6    C34   A    
C37   H3    S    
O10   C43   S    
C38   H4    S    
C29   C30   D    
C11   H9    S    
C1    O1    A    
C46   H31   S    
N3    H25   S    
C15   C21   A    
C12   C20   A    
C17   C18   A    
C23   C28   S    
C12   N2    A    
C8    C10   A    
N3    C45   S    
O4    Zn1   S    
C9    H7    S    
C13   C15   A    
C10   H8    S    
C14   C16   A    
C3    C4    A    
C11   N1    A    
C42   H18   S    
C45   H28   S    
C15   C17   A    
C21   C25   A    
C24   O6    A    
C27   C32   T    
C28   C31   T    
C43   H21   S    
C3    C5    A    
C42   H19   S    
C12   H10   S    
C2    O2    A    
C29   O10   S    
C33   H1    S    
O8    Zn1   S    
C36   C38   A    
C5    C10   A    
C37   C39   A    
C46   H32   S    
C38   C40   A    
C41   C42   S    
N2    Zn2   S    
C17   C19   A    
C22   N4    S    
C18   C20   A    
C8    H6    S    
C44   H22   S    
O5    Zn1   S    
C23   O5    A    
C42   H17   S    
C16   C18   A    
C22   C26   A    
C41   H16   S    
C7    C39   A    
C8    C40   A    
N4    H29   S    
C1    C36   S    
C13   N1    A    
