data_mof_unit_36530.cif
_audit_creation_date              2012-12-10T17:37:24-0500
_audit_creation_method            fapswitch 2.2
_symmetry_space_group_name_H-M    P1
_symmetry_Int_Tables_number       1
_space_group_crystal_system       triclinic
_cell_length_a                    12.07553
_cell_length_b                    12.750686
_cell_length_c                    17.020412
_cell_angle_alpha                 91.406476
_cell_angle_beta                  81.856138
_cell_angle_gamma                 92.581897
_cell_volume                      2591.15611243

loop_
_atom_site_label
_atom_site_type_symbol
_atom_type_description
_atom_site_fract_x
_atom_site_fract_y
_atom_site_fract_z
_atom_type_partial_charge
C1    C     C_R   0.522157 0.700595 0.491043 0.884984
C2    C     C_R   0.561790 0.134024 0.539203 0.009892
C3    C     C_R   0.448993 0.977549 0.517920 -0.044909
C4    C     C_R   0.556257 0.026911 0.519641 -0.039919
C5    C     C_R   0.965398 0.414304 0.415416 -0.097927
C6    C     C_R   0.038544 0.606116 0.571085 -0.068237
C7    C     C_R   0.847125 0.415504 0.428699 -0.009377
C8    C     C_R   0.154952 0.592494 0.565501 0.018207
C9    C     C_R   0.852621 0.539458 0.534822 0.107298
C10   C     C_R   0.145349 0.454722 0.469858 0.023987
C11   C     C_R   0.972491 0.539159 0.525939 -0.027574
C12   C     C_R   0.478012 0.301447 0.513242 0.923428
C13   C     C_R   0.028265 0.468758 0.469673 -0.040256
C14   C     C_R   0.484832 0.501422 0.652774 0.930908
C15   C     C_R   0.515514 0.511112 0.347443 0.919519
C16   C     C_R   0.473343 0.500529 0.738321 -0.282807
C17   C     C_R   0.522323 0.541124 0.263624 -0.332007
C18   C     C_R   0.481274 0.406070 0.778138 -0.223312
C19   C     C_R   0.428879 0.584801 0.235773 -0.207307
C20   C     C_R   0.471958 0.409218 0.861095 0.531601
C21   C     C_R   0.427573 0.591988 0.154126 0.538930
C22   C     C_R   0.441204 0.502091 0.902706 -0.150012
C23   C     C_R   0.465469 0.191949 0.537474 -0.251928
C24   C     C_R   0.524174 0.569861 0.101433 -0.099882
C25   C     C_R   0.419326 0.593296 0.863075 -0.156182
C26   C     C_R   0.623398 0.542077 0.128754 -0.163730
C27   C     C_R   0.443629 0.593870 0.780059 0.517806
C28   C     C_R   0.623411 0.533013 0.211027 0.469156
C29   C     C_2   0.444922 0.504628 0.987463 -0.124985
C30   C     C_2   0.517128 0.571220 0.017034 -0.217341
C31   C     C_2   0.497108 0.305050 0.733270 0.571515
C32   C     C_2   0.337969 0.636100 0.289084 0.417409
C33   C     C_2   0.221495 0.656855 0.616046 0.626308
C34   C     C_R   0.536117 0.814399 0.481249 -0.294769
C35   C     C_2   0.780842 0.347010 0.380418 0.599901
C36   C     C_2   0.022649 0.372719 0.338124 0.465211
C37   C     C_2   0.991024 0.698695 0.616408 0.384675
C38   C     C_3   0.774458 0.623105 0.247342 0.161871
C39   C     C_3   0.887084 0.614437 0.276307 -0.778863
C40   C     C_3   0.534796 0.744527 0.733844 0.115152
C41   C     C_3   0.518207 0.852287 0.702231 -0.751064
C42   C     C_2   0.370098 0.686085 0.908383 0.460711
C43   C     C_2   0.725432 0.519515 0.071439 0.446328
C44   C     C_3   0.242087 0.554462 0.140184 0.071285
C45   C     C_R   0.654505 0.971544 0.494136 0.444842
C46   C     C_3   0.164022 0.564762 0.078272 -0.745761
C47   C     C_3   0.607879 0.318792 0.905872 0.123422
C48   C     C_3   0.628652 0.232709 0.961594 -0.704900
C49   C     C_2   0.657399 0.179972 0.576391 0.486711
C50   C     C_2   0.342196 0.840685 0.446994 0.539878
C51   C     C_2   0.257079 0.197033 0.588078 0.531284
C52   C     C_2   0.739951 0.815367 0.424666 0.429486
C53   C     C_3   0.832377 0.995830 0.528743 0.069612
C54   C     C_3   0.927405 0.078730 0.527784 -0.628563
C55   C     C_3   0.242581 0.959692 0.656186 0.021037
C56   C     C_R   0.352473 0.031656 0.549222 0.477416
C57   C     C_3   0.119788 0.958936 0.691824 -0.707796
C58   C     C_2   0.199465 0.361661 0.430911 0.439146
C59   C     C_2   0.788021 0.593051 0.602444 0.465112
C60   C     C_R   0.643721 0.864815 0.472971 -0.116474
C61   C     C_R   0.359446 0.140930 0.556007 -0.129105
C62   C     C_R   0.440611 0.875255 0.487531 -0.098548
H1    H     H_    0.572427 0.624337 0.978978 0.147284
H2    H     H_    0.789754 0.663050 0.189068 0.141531
H3    H     H_    0.938841 0.557620 0.238477 0.255577
H4    H     H_    0.932226 0.692368 0.273836 0.225751
H5    H     H_    0.874390 0.588542 0.338619 0.249249
H6    H     H_    0.600362 0.705727 0.692423 0.132396
H7    H     H_    0.564253 0.755920 0.792807 0.150897
H8    H     H_    0.458780 0.895998 0.745447 0.281997
H9    H     H_    0.599497 0.897626 0.692076 0.218427
H10   H     H_    0.483764 0.843543 0.645456 0.232389
H11   H     H_    0.355837 0.687025 0.972601 0.134226
H12   H     H_    0.398341 0.444396 0.024080 0.193615
H13   H     H_    0.731963 0.542192 0.009955 0.054232
H14   H     H_    0.193296 0.572080 0.198926 0.156194
H15   H     H_    0.267454 0.471338 0.139290 0.117408
H16   H     H_    0.206869 0.542536 0.018557 0.244932
H17   H     H_    0.088545 0.512007 0.092866 0.237552
H18   H     H_    0.137404 0.646928 0.077406 0.270446
H19   H     H_    0.641814 0.394447 0.928793 0.122771
H20   H     H_    0.654324 0.301502 0.846028 0.175565
H21   H     H_    0.597583 0.155534 0.939893 0.271826
H22   H     H_    0.719776 0.229535 0.964324 0.217180
H23   H     H_    0.520330 0.305205 0.669806 0.018205
H24   H     H_    0.584571 0.249085 0.022176 0.250538
H25   H     H_    0.709627 0.244914 0.550562 0.131559
H26   H     H_    0.325367 0.759702 0.431460 0.076251
H27   H     H_    0.175462 0.165445 0.577503 0.121882
H28   H     H_    0.763334 0.837974 0.363343 0.082676
H29   H     H_    0.871154 0.921284 0.508054 0.178112
H30   H     H_    0.790897 0.986192 0.591065 0.165342
H31   H     H_    0.894712 0.155386 0.550183 0.254345
H32   H     H_    0.988336 0.054136 0.566103 0.194696
H33   H     H_    0.971353 0.088290 0.466326 0.295994
H34   H     H_    0.284114 0.593401 0.334848 0.057496
H35   H     H_    0.288064 0.020140 0.689658 0.164774
H36   H     H_    0.276397 0.882229 0.665456 0.194210
H37   H     H_    0.069448 0.907037 0.656003 0.264904
H38   H     H_    0.109515 0.930395 0.753652 0.255350
H39   H     H_    0.088565 0.039579 0.692433 0.226685
H40   H     H_    0.277992 0.369127 0.392135 0.101116
H41   H     H_    0.738504 0.658721 0.592808 0.092218
H42   H     H_    0.267641 0.726565 0.592894 0.008894
H43   H     H_    0.753555 0.376066 0.327666 0.130108
H44   H     H_    0.097607 0.413616 0.309096 -0.009924
H45   H     H_    0.943352 0.753068 0.587936 0.045109
H46   H     H_    0.720923 0.672659 0.290656 0.121647
N1    N     N_R   0.206400 0.519440 0.514690 -0.174955
N2    N     N_R   0.793600 0.480560 0.485310 -0.179607
O1    O     O_R   0.421320 0.658850 0.503920 -0.688952
O2    O     O_2   0.318314 0.727423 0.278624 -0.517488
O3    O     O_2   0.219702 0.634978 0.685616 -0.463789
O4    O     O_2   0.763088 0.254519 0.396525 -0.535783
O5    O     O_2   0.988786 0.292591 0.306930 -0.500028
O6    O     O_2   0.001365 0.712650 0.686263 -0.506960
O7    O     O_3   0.723367 0.521848 0.240261 -0.579739
O8    O     O_3   0.433023 0.684338 0.738850 -0.551871
O9    O     O_2   0.341498 0.761824 0.874867 -0.503439
O10   O     O_2   0.803011 0.473521 0.091682 -0.519137
O11   O     O_3   0.334529 0.627284 0.124271 -0.576818
O12   O     O_R   0.578680 0.341150 0.496080 -0.649375
O13   O     O_3   0.491697 0.321442 0.902640 -0.566923
O14   O     O_2   0.677474 0.144981 0.638732 -0.598036
O15   O     O_2   0.281894 0.904702 0.424438 -0.494537
O16   O     O_2   0.262202 0.275222 0.630512 -0.554805
O17   O     O_2   0.796666 0.753801 0.453463 -0.633770
O18   O     O_3   0.757251 0.026244 0.477404 -0.584363
O19   O     O_3   0.251779 0.977988 0.573759 -0.621001
O20   O     O_2   0.155488 0.274175 0.442104 -0.571418
O21   O     O_2   0.790306 0.563863 0.669981 -0.566732
O22   O     O_R   0.609840 0.646370 0.494500 -0.590604
O23   O     O_R   0.390160 0.353630 0.505500 -0.588794
O24   O     O_R   0.394600 0.506990 0.621070 -0.542408
O25   O     O_R   0.605400 0.493010 0.378930 -0.601030
O26   O     O_R   0.583120 0.494520 0.611640 -0.652346
O27   O     O_R   0.416880 0.505480 0.388360 -0.692450
O28   O     O_2   0.481415 0.220539 0.766131 -0.503050
Zn1   Zn    Zn3+2 0.374120 0.508330 0.506290 0.964998
Zn2   Zn    Zn3+2 0.625880 0.491670 0.493710 0.961087

loop_
_geom_bond_atom_site_label_1
_geom_bond_atom_site_label_2
_ccdc_geom_bond_type
C40   O8    S    
C45   C60   A    
C31   H23   S    
C22   C29   S    
C33   H42   S    
C49   H25   S    
C52   H28   S    
C51   C61   S    
O26   Zn2   S    
C1    O22   A    
O1    Zn1   S    
C37   O6    D    
C53   C54   S    
O27   Zn1   S    
C12   C23   S    
C59   O21   D    
C35   O4    D    
C44   H15   S    
C53   O18   S    
C24   C26   A    
C37   H45   S    
C28   O7    S    
C46   H17   S    
C42   O9    D    
C3    C62   A    
C15   O25   A    
C45   O18   S    
C57   H37   S    
C5    C36   S    
C44   O11   S    
C34   C62   A    
C1    C34   S    
C10   N1    A    
C47   H20   S    
C44   H14   S    
C20   O13   S    
C52   C60   S    
C38   O7    S    
C55   O19   S    
C22   C25   A    
C53   H29   S    
C58   H40   S    
C5    C13   A    
C56   O19   S    
C50   H26   S    
C43   O10   D    
C41   H9    S    
C33   O3    D    
C16   C27   A    
C30   H1    S    
C34   C60   A    
C39   H3    S    
C7    C35   S    
C19   C32   S    
C52   O17   D    
C44   C46   S    
C26   C43   S    
C38   H2    S    
C4    C45   A    
C43   H13   S    
O25   Zn2   S    
C40   H7    S    
C36   H44   S    
C21   O11   S    
C6    C11   A    
C46   H16   S    
C6    C8    A    
C29   H12   S    
C14   O24   A    
C49   O14   D    
C48   H22   S    
C9    C59   S    
C2    C4    A    
C29   C30   D    
C35   H43   S    
C2    C49   S    
C3    C56   A    
C47   O13   S    
C47   C48   S    
C55   H35   S    
C53   H30   S    
C6    C37   S    
C50   O15   D    
C31   O28   D    
C9    C11   A    
C54   H33   S    
C41   H10   S    
C40   C41   S    
C32   H34   S    
C20   C22   A    
O23   Zn1   S    
C12   O23   A    
C55   C57   S    
C50   C62   S    
C39   H4    S    
C48   H24   S    
O22   Zn2   S    
C3    C4    A    
O24   Zn1   S    
C5    C7    A    
C27   O8    S    
C9    N2    A    
C15   C17   S    
C42   H11   S    
C32   O2    D    
C10   C58   S    
C17   C28   A    
C39   H5    S    
C57   H38   S    
C51   O16   D    
C10   C13   A    
C25   C42   S    
C18   C20   A    
C48   H21   S    
C25   C27   A    
C57   H39   S    
C26   C28   A    
C54   H31   S    
C7    N2    A    
N1    Zn1   S    
C59   H41   S    
N2    Zn2   S    
O12   Zn2   S    
C8    N1    A    
C1    O1    A    
C46   H18   S    
C11   C13   A    
C38   C39   S    
C14   O26   A    
C58   O20   D    
C55   H36   S    
C17   C19   A    
C14   C16   S    
C8    C33   S    
C47   H19   S    
C38   H46   S    
C24   C30   S    
C54   H32   S    
C23   C61   A    
C12   O12   A    
C16   C18   A    
C40   H6    S    
C21   C24   A    
C2    C23   A    
C56   C61   A    
C18   C31   S    
C15   O27   A    
C36   O5    D    
C51   H27   S    
C41   H8    S    
C19   C21   A    
