data_mof_unit_27547.cif
_audit_creation_date              2012-10-26T20:19:16-0400
_audit_creation_method            fapswitch 2.2
_symmetry_space_group_name_H-M    P1
_symmetry_Int_Tables_number       1
_space_group_crystal_system       triclinic
_cell_length_a                    15.078117
_cell_length_b                    12.99435
_cell_length_c                    11.703585
_cell_angle_alpha                 100.491423
_cell_angle_beta                  94.101517
_cell_angle_gamma                 90.611456
_cell_volume                      2248.32069783

loop_
_atom_site_label
_atom_site_type_symbol
_atom_type_description
_atom_site_fract_x
_atom_site_fract_y
_atom_site_fract_z
_atom_type_partial_charge
C1    C     C_R   0.498673 0.298986 0.478113 0.536322
C2    C     C_R   0.528083 0.877827 0.642868 -0.113917
C3    C     C_R   0.517912 0.140049 0.562979 -0.134586
C4    C     C_R   0.482059 0.859945 0.437119 -0.135806
C5    C     C_R   0.512856 0.031912 0.554634 0.010463
C6    C     C_R   0.487243 0.968065 0.445454 0.010120
C7    C     C_R   0.424130 0.393882 0.016697 0.266763
C8    C     C_R   0.579637 0.605221 0.981189 0.204879
C9    C     C_R   0.431808 0.401995 0.138626 0.393388
C10   C     C_R   0.571622 0.595139 0.857181 0.408324
C11   C     C_R   0.530813 0.548399 0.158984 0.016099
C12   C     C_R   0.501333 0.701004 0.521893 0.549519
C13   C     C_R   0.468658 0.453253 0.841284 -0.000106
C14   C     C_R   0.527977 0.539550 0.035358 -0.068416
C15   C     C_R   0.473156 0.461898 0.964052 -0.085056
C16   C     C_R   0.328867 0.502690 0.500505 0.525857
C17   C     C_R   0.671188 0.496146 0.499408 0.539229
C18   C     C_R   0.819218 0.541221 0.595781 -0.150839
C19   C     C_R   0.181814 0.444679 0.408206 -0.153845
C20   C     C_R   0.767805 0.487777 0.499111 -0.029541
C21   C     C_R   0.232271 0.504651 0.501587 -0.023743
C22   C     C_R   0.808631 0.428022 0.404569 0.228455
C23   C     C_R   0.039721 0.375490 0.313891 0.296027
C24   C     C_R   0.190727 0.561022 0.597260 0.223594
C25   C     C_R   0.902530 0.426617 0.406272 0.022246
C26   C     C_R   0.098420 0.547102 0.603568 0.013769
C27   C     C_R   0.953800 0.485002 0.503974 -0.088282
C28   C     C_R   0.047302 0.489138 0.505666 -0.087424
C29   C     C_R   0.911613 0.541084 0.599331 -0.032571
C30   C     C_R   0.089636 0.436933 0.408490 -0.029378
C31   C     C_R   0.947066 0.369173 0.312912 0.272201
C32   C     C_R   0.054883 0.593780 0.702920 0.272872
C33   C     C_3   0.283948 0.348485 0.938447 -0.005879
C34   C     C_R   0.962133 0.596658 0.697317 0.297517
C35   C     C_3   0.227790 0.264541 0.856408 -0.372992
C36   C     C_3   0.719969 0.638643 0.064740 -0.022962
C37   C     C_3   0.778137 0.716863 0.151539 -0.368854
C38   C     C_3   0.100714 0.221707 0.235452 -0.012554
C39   C     C_3   0.155732 0.169198 0.138214 -0.362236
C40   C     C_3   0.916042 0.754450 0.787385 0.006442
C41   C     C_3   0.871127 0.811252 0.892290 -0.365351
C42   C     C_3   0.511747 0.935760 0.169919 -0.016728
C43   C     C_3   0.480965 0.866174 0.054553 -0.336896
C44   C     C_3   0.490235 0.062858 0.831568 -0.020678
C45   C     C_R   0.503131 0.814642 0.534859 -0.062760
C46   C     C_3   0.522280 0.130989 0.947309 -0.329635
C47   C     C_R   0.496910 0.185334 0.465183 -0.063323
C48   C     C_R   0.468301 0.013402 0.346177 0.253578
C49   C     C_R   0.532008 0.986549 0.653852 0.254034
C50   C     C_R   0.472205 0.122096 0.357117 -0.120686
Cu1   Cu    Cu3+1 0.506660 0.507730 0.615930 1.003476
Cu2   Cu    Cu3+1 0.493340 0.492270 0.384070 0.956236
H1    H     H_    0.786372 0.585508 0.667785 0.193794
H2    H     H_    0.254932 0.362234 0.024656 0.176812
H3    H     H_    0.229579 0.190115 0.890406 0.159668
H4    H     H_    0.157836 0.289859 0.848879 0.119876
H5    H     H_    0.253897 0.251201 0.768661 0.149228
H6    H     H_    0.752189 0.622587 0.980822 0.168951
H7    H     H_    0.715907 0.564764 0.100127 0.167233
H8    H     H_    0.845890 0.685599 0.162164 0.132053
H9    H     H_    0.782987 0.792192 0.120053 0.148303
H10   H     H_    0.749029 0.730974 0.237414 0.156257
H11   H     H_    0.707186 0.338794 0.339409 0.328034
H12   H     H_    0.215285 0.402702 0.335494 0.164797
H13   H     H_    0.287613 0.663817 0.644900 0.335316
H14   H     H_    0.870245 0.251916 0.250449 0.331000
H15   H     H_    0.148513 0.586758 0.821732 0.352777
H16   H     H_    0.038360 0.174438 0.232935 0.152709
H17   H     H_    0.139920 0.222262 0.320054 0.111038
H18   H     H_    0.219278 0.213664 0.140056 0.186544
H19   H     H_    0.170820 0.088121 0.149837 0.117890
H20   H     H_    0.118281 0.166247 0.052395 0.164823
H21   H     H_    0.876194 0.766121 0.706982 0.115247
H22   H     H_    0.983676 0.790318 0.788965 0.175821
H23   H     H_    0.462390 0.810547 0.353950 0.182554
H24   H     H_    0.909457 0.801209 0.974000 0.168688
H25   H     H_    0.867858 0.896051 0.889260 0.109918
H26   H     H_    0.802547 0.779345 0.891706 0.154319
H27   H     H_    0.566542 0.895854 0.212425 0.150433
H28   H     H_    0.537529 0.011216 0.151606 0.121640
H29   H     H_    0.459132 0.788164 0.069673 0.178676
H30   H     H_    0.424439 0.902349 0.011667 0.152630
H31   H     H_    0.536355 0.856089 0.996140 0.130287
H32   H     H_    0.464958 0.986890 0.849125 0.120045
H33   H     H_    0.434860 0.103333 0.790974 0.154686
H34   H     H_    0.537446 0.189460 0.646186 0.183341
H35   H     H_    0.544029 0.209342 0.933149 0.183676
H36   H     H_    0.467593 0.140459 0.006835 0.161946
H37   H     H_    0.579174 0.093968 0.988401 0.146113
H38   H     H_    0.647713 0.717886 0.859395 0.319072
H39   H     H_    0.369879 0.354332 0.258364 0.357861
H40   H     H_    0.545908 0.843195 0.718583 0.160233
H41   H     H_    0.454674 0.156629 0.281272 0.174941
H42   H     H_    0.426268 0.393974 0.785859 0.170073
H43   H     H_    0.572288 0.608404 0.214706 0.176113
H44   H     H_    0.280702 0.421843 0.901669 0.127540
N1    N     N_R   0.516670 0.519360 0.790130 -0.229426
N2    N     N_R   0.483330 0.480640 0.209870 -0.268566
O1    O     O_R   0.504720 0.354460 0.582000 -0.519030
O2    O     O_3   0.635228 0.681412 0.048961 -0.619841
O3    O     O_3   0.757980 0.372503 0.310031 -0.669844
O4    O     O_3   0.237424 0.635021 0.680425 -0.683975
O5    O     O_3   0.902335 0.306239 0.218766 -0.620819
O6    O     O_3   0.100204 0.635233 0.808031 -0.635907
O7    O     O_3   0.081254 0.324237 0.218578 -0.530187
O8    O     O_3   0.920716 0.646980 0.793125 -0.535461
O9    O     O_3   0.439228 0.952297 0.240387 -0.565507
O10   O     O_3   0.561788 0.047609 0.759376 -0.567493
O11   O     O_3   0.619004 0.660046 0.801389 -0.676299
O12   O     O_R   0.495280 0.645540 0.418000 -0.519488
O13   O     O_3   0.388165 0.325075 0.180944 -0.713350
O14   O     O_R   0.493480 0.341410 0.386200 -0.503220
O15   O     O_R   0.506520 0.658590 0.613800 -0.452989
O16   O     O_R   0.375880 0.506510 0.597910 -0.492600
O17   O     O_R   0.624120 0.493490 0.402090 -0.485584
O18   O     O_R   0.364640 0.493450 0.402110 -0.535454
O19   O     O_R   0.635360 0.506550 0.597890 -0.460605
O20   O     O_3   0.372177 0.314087 0.948747 -0.573677

loop_
_geom_bond_atom_site_label_1
_geom_bond_atom_site_label_2
_ccdc_geom_bond_type
C25   C31   A    
Cu1   N1    S    
C16   C21   S    
C27   C29   A    
C43   H31   S    
C9    O13   S    
H11   O3    S    
C36   H7    S    
C1    O1    A    
C12   O12   A    
C37   H10   S    
C46   H37   S    
C26   C32   A    
C9    N2    A    
C22   O3    S    
C6    C48   A    
C11   N2    A    
C5    C6    A    
C36   C37   S    
C19   C21   A    
C24   C26   A    
C46   H35   S    
Cu2   O18   S    
C36   H6    S    
C1    O14   A    
C41   H25   S    
C42   H28   S    
C11   C14   A    
C48   O9    S    
Cu2   O14   S    
C23   O7    S    
C17   C20   S    
C40   H21   S    
C10   O11   S    
H39   O13   S    
C4    H23   S    
C18   H1    S    
C33   C35   S    
C22   C25   A    
C39   H20   S    
C32   O6    S    
C49   O10   S    
C42   O9    S    
C24   O4    S    
C17   O19   A    
C48   C50   A    
C38   H17   S    
C33   O20   S    
C3    H34   S    
C7    O20   S    
C5    C49   A    
H13   O4    S    
C16   O18   A    
C44   C46   S    
H15   O6    S    
C47   C50   A    
C46   H36   S    
C4    C45   A    
C44   O10   S    
C2    C45   A    
Cu1   O1    S    
Cu1   O16   S    
C35   H3    S    
Cu1   Cu2   S    
C34   O8    S    
C23   C30   A    
C4    C6    A    
C41   H26   S    
C1    C47   S    
C7    C15   A    
C3    C5    A    
C32   C34   A    
C29   C34   A    
C31   O5    S    
C10   N1    A    
C2    C49   A    
Cu2   O12   S    
C19   H12   S    
C36   O2    S    
C18   C29   A    
Cu1   O15   S    
C2    H40   S    
C3    C47   A    
C40   C41   S    
C20   C22   A    
C13   C15   A    
C43   H29   S    
C42   C43   S    
C44   H33   S    
C33   H44   S    
C17   O17   A    
C40   O8    S    
C12   O15   A    
Cu2   O17   S    
C11   H43   S    
C33   H2    S    
C7    C9    A    
C8    C14   A    
C35   H4    S    
H14   O5    S    
C38   H16   S    
C12   C45   S    
C44   H32   S    
C16   O16   A    
C37   H9    S    
C50   H41   S    
C25   C27   A    
C26   C28   A    
C13   H42   S    
C35   H5    S    
C38   O7    S    
C28   C30   A    
C8    O2    S    
C41   H24   S    
C38   C39   S    
Cu2   N2    S    
Cu1   O19   S    
C39   H18   S    
C40   H22   S    
C18   C20   A    
C13   N1    A    
C37   H8    S    
C42   H27   S    
C8    C10   A    
C21   C24   A    
C27   C28   A    
C43   H30   S    
C39   H19   S    
C14   C15   A    
H38   O11   S    
C19   C30   A    
C23   C31   A    
