data_mof_unit_5508.cif
_audit_creation_date              2012-12-11T16:21:52-0500
_audit_creation_method            fapswitch 2.2
_symmetry_space_group_name_H-M    P1
_symmetry_Int_Tables_number       1
_space_group_crystal_system       triclinic
_cell_length_a                    13.501287
_cell_length_b                    14.025044
_cell_length_c                    30.045868
_cell_angle_alpha                 97.875494
_cell_angle_beta                  89.908741
_cell_angle_gamma                 118.719322
_cell_volume                      4928.89149947

loop_
_atom_site_label
_atom_site_type_symbol
_atom_type_description
_atom_site_fract_x
_atom_site_fract_y
_atom_site_fract_z
_atom_type_partial_charge
C1    C     C_R   0.719989 0.098496 0.569369 0.540253
C2    C     C_R   0.334389 0.662368 0.674911 0.038543
C3    C     C_R   0.241771 0.651571 0.649653 -0.132134
C4    C     C_R   0.255660 0.685378 0.607592 -0.134851
C5    C     C_R   0.256981 0.676455 0.837054 0.250769
C6    C     C_R   0.258780 0.667642 0.883351 0.026917
C7    C     C_R   0.379723 0.582635 0.870175 0.222869
C8    C     C_R   0.379530 0.594198 0.825107 -0.066833
C9    C     C_R   0.315438 0.635890 0.807925 -0.037167
C10   C     C_1   0.316675 0.640367 0.760567 -0.066209
C11   C     C_1   0.321769 0.646591 0.721137 -0.052576
C12   C     C_R   0.383443 0.788423 0.551021 0.532690
C13   C     C_R   0.308405 0.607471 0.898760 -0.036849
C14   C     C_3   0.234313 0.134907 0.725496 0.215747
C15   C     C_3   0.245940 0.058544 0.755482 -0.173886
C16   C     C_1   0.300302 0.196075 0.877786 0.028857
C17   C     C_1   0.367415 0.134416 0.614166 0.012596
C18   C     C_3   0.308238 0.236590 0.760232 0.259714
C19   C     C_3   0.321882 0.162362 0.790352 0.009379
C20   C     C_3   0.414271 0.250890 0.736824 0.223122
C21   C     C_3   0.340037 0.149415 0.701637 0.044517
C22   C     C_3   0.428362 0.177297 0.766679 0.231016
C23   C     C_R   0.397388 0.118676 0.569493 0.528923
C24   C     C_3   0.354412 0.074480 0.731598 -0.002496
C25   C     C_1   0.311188 0.176017 0.838620 0.020845
C26   C     C_1   0.351394 0.142883 0.653361 0.027211
C27   C     C_3   0.886683 0.267533 0.735611 -0.002725
C28   C     C_3   0.793377 0.249673 0.768839 -0.102311
C29   C     C_1   0.889473 0.202498 0.879704 0.009480
C30   C     C_1   0.763146 0.128823 0.615396 0.001905
C31   C     C_3   0.922083 0.198290 0.760070 0.280870
C32   C     C_3   0.829773 0.179560 0.793013 0.031591
C33   C     C_3   0.838789 0.093827 0.729171 0.270028
C34   C     C_R   0.721277 0.096261 0.442562 0.561240
C35   C     C_3   0.803422 0.162008 0.704294 0.037385
C36   C     C_3   0.745046 0.073038 0.761890 -0.146286
C37   C     C_3   0.709018 0.143087 0.736805 -0.134760
C38   C     C_1   0.855934 0.190606 0.841223 -0.003977
C39   C     C_1   0.786043 0.146973 0.655342 -0.012663
C40   C     C_3   0.250565 0.669470 0.258315 0.021323
C41   C     C_3   0.331682 0.753889 0.229744 0.249918
C42   C     C_1   0.310960 0.611513 0.110371 -0.012839
C43   C     C_1   0.368166 0.737525 0.377975 0.002174
C44   C     C_3   0.262211 0.577229 0.227894 0.020071
C45   C     C_R   0.382550 0.784498 0.424367 0.563778
C46   C     C_3   0.343090 0.663316 0.199290 0.036031
C47   C     C_3   0.366155 0.601569 0.257995 0.254252
C48   C     C_3   0.354394 0.691782 0.288614 0.034829
C49   C     C_3   0.447384 0.685989 0.229252 -0.136164
C50   C     C_3   0.435650 0.778462 0.260216 -0.140614
C51   C     C_1   0.330716 0.641803 0.150224 -0.024827
C52   C     C_1   0.360927 0.711234 0.337827 -0.029726
C53   C     C_R   0.356495 0.136511 0.402995 0.056757
C54   C     C_R   0.354331 0.236238 0.401120 -0.024844
C55   C     C_R   0.342593 0.263482 0.358233 0.018956
C56   C     C_R   0.395031 0.115878 0.444212 0.574042
C57   C     C_R   0.331470 0.189375 0.319177 -0.009056
C58   C     C_R   0.325138 0.088675 0.322144 -0.134719
C59   C     C_R   0.338690 0.061613 0.363640 0.212949
C60   C     C_R   0.211979 0.189009 0.165964 0.238926
C61   C     C_R   0.206144 0.187373 0.119778 -0.081556
C62   C     C_R   0.409277 0.253181 0.117810 0.000627
C63   C     C_R   0.414732 0.253768 0.164531 -0.134521
C64   C     C_R   0.318015 0.224584 0.188588 0.011032
C65   C     C_1   0.327300 0.223081 0.235751 -0.037181
C66   C     C_1   0.330331 0.213340 0.274567 -0.030027
C67   C     C_R   0.362576 0.730143 0.590206 -0.001955
C68   C     C_R   0.303486 0.222347 0.095373 -0.008556
C69   C     C_R   0.777133 0.134147 0.400485 -0.001790
C70   C     C_R   0.814355 0.070802 0.371612 0.012724
C71   C     C_R   0.807812 0.070634 0.324787 0.238673
C72   C     C_R   0.787636 0.149996 0.308110 -0.014646
C73   C     C_R   0.776701 0.230517 0.338071 -0.008823
C74   C     C_R   0.768804 0.220867 0.384362 0.223883
C75   C     C_R   0.841231 0.276399 0.161582 0.229099
C76   C     C_R   0.883198 0.294554 0.118886 -0.144021
C77   C     C_R   0.834297 0.102731 0.100700 -0.120257
C78   C     C_R   0.453738 0.733401 0.614182 -0.106924
C79   C     C_R   0.792757 0.083057 0.143023 -0.004899
C80   C     C_R   0.802276 0.172091 0.174350 0.095495
C81   C     C_1   0.789800 0.161678 0.221158 0.020541
C82   C     C_1   0.786677 0.154739 0.260559 -0.039486
C83   C     C_R   0.885300 0.209225 0.089323 -0.028785
C84   C     C_R   0.284760 0.232221 0.922488 0.555470
C85   C     C_R   0.268632 0.550432 0.938772 0.543685
C86   C     C_R   0.944426 0.221917 0.923200 0.551813
C87   C     C_R   0.291607 0.244646 0.049772 0.526732
C88   C     C_R   0.275595 0.559524 0.064799 0.534985
C89   C     C_R   0.441563 0.701038 0.657092 0.027696
C90   C     C_R   0.952216 0.231956 0.049499 0.535859
Cr1   Cr    Cr6+3 0.583430 0.162610 0.509470 1.065854
Cr2   Cr    Cr6+3 0.584210 0.916680 0.495400 1.018435
Cr3   Cr    Cr6+3 0.332380 0.920740 0.495100 1.051648
Cr4   Cr    Cr6+3 0.086810 0.177030 0.983130 1.024820
Cr5   Cr    Cr6+3 0.337180 0.419300 0.994610 1.032882
Cr6   Cr    Cr6+3 0.084840 0.422330 0.995830 1.021409
H1    H     H_    0.773492 0.313312 0.785719 0.148782
H2    H     H_    0.622288 0.123061 0.725890 0.171362
H3    H     H_    0.686842 0.992965 0.772603 0.105878
H4    H     H_    0.505669 0.861726 0.273779 0.126638
H5    H     H_    0.527342 0.691409 0.217086 0.116827
H6    H     H_    0.124627 0.164500 0.103410 0.165549
H7    H     H_    0.314813 0.032733 0.291599 0.100794
H8    H     H_    0.159864 0.622364 0.663551 0.112169
H9    H     H_    0.494741 0.277073 0.182411 0.125985
H10   H     H_    0.920563 0.376565 0.110051 0.115840
H11   H     H_    0.183983 0.681695 0.589741 0.139653
H12   H     H_    0.831961 0.035219 0.077473 0.137879
H13   H     H_    0.535469 0.767645 0.600300 0.138414
H14   H     H_    0.429647 0.569284 0.803153 0.160259
H15   H     H_    0.176536 0.979561 0.763259 0.124112
O1    O     O_R   0.493980 0.188910 0.559650 -0.507536
O2    O     O_R   0.480180 0.824400 0.444640 -0.497845
O3    O     O_R   0.308310 0.808540 0.439800 -0.477679
O4    O     O_R   0.340740 0.020600 0.455570 -0.452416
O5    O     O_3   0.500010 0.000010 0.499990 -0.252657
O6    O     O_R   0.969650 0.150960 0.933380 -0.501704
O7    O     O_R   0.187740 0.180870 0.937580 -0.494544
O8    O     O_R   0.358510 0.327410 0.940870 -0.479508
O9    O     O_R   0.324180 0.507870 0.953930 -0.474988
O10   O     O_R   0.170560 0.527890 0.952050 -0.520851
O11   O     O_R   0.987620 0.318470 0.945550 -0.491152
O12   O     O_R   0.678640 0.153520 0.554450 -0.496256
O13   O     O_R   0.976400 0.159270 0.031530 -0.526685
O14   O     O_R   0.194000 0.188570 0.028560 -0.512554
O15   O     O_R   0.365260 0.335720 0.039020 -0.518968
O16   O     O_R   0.330440 0.515580 0.044910 -0.504012
O17   O     O_R   0.177310 0.536200 0.050190 -0.512060
O18   O     O_R   0.993870 0.326170 0.036530 -0.501145
O19   O     O_3   0.169610 0.339550 0.991190 -0.241377
O20   O     O_R   0.698130 0.004030 0.549500 -0.509607
O21   O     O_R   0.481060 0.827210 0.535360 -0.508642
O22   O     O_R   0.309260 0.811560 0.537660 -0.516062
O23   O     O_R   0.341620 0.023400 0.546290 -0.504487
O24   O     O_R   0.493030 0.185890 0.461780 -0.519911
O25   O     O_R   0.677760 0.150720 0.463730 -0.423907
O26   O     O_R   0.697180 0.001010 0.451640 -0.536981
C91   C     C_3   0.211137 0.726380 0.915599 -0.225123
C92   C     C_3   0.281115 0.851496 0.918690 -0.423210
H16   H     H_    0.371037 0.879576 0.929082 0.138588
H17   H     H_    0.276803 0.878523 0.886089 0.207019
H18   H     H_    0.247853 0.891662 0.944283 0.128644
H19   H     H_    0.121685 0.698396 0.904437 0.185453
H20   H     H_    0.212592 0.709751 0.950463 0.150513
O27   O     O_3   0.134408 0.114647 0.702754 -0.669415
H21   H     H_    0.073264 0.070837 0.721407 0.364226
C93   C     C_3   0.377764 0.980398 0.713614 -0.260433
C94   C     C_3   0.407251 0.935042 0.751795 -0.418020
H22   H     H_    0.482245 0.000117 0.773264 0.204465
H23   H     H_    0.334675 0.899787 0.773000 0.166918
H24   H     H_    0.428029 0.870365 0.737459 0.138963
H25   H     H_    0.301299 0.913412 0.693285 0.150528
H26   H     H_    0.448028 0.009741 0.691022 0.141102
O28   O     O_3   0.530313 0.200977 0.788874 -0.724782
H27   H     H_    0.555756 0.272244 0.808801 0.325923
O29   O     O_3   0.501099 0.350294 0.726712 -0.693791
H28   H     H_    0.529452 0.400077 0.755962 0.330058
O30   O     O_3   0.285319 0.322003 0.775910 -0.658515
H29   H     H_    0.290758 0.359591 0.749646 0.330017
C95   C     C_3   0.964208 0.375846 0.719081 -0.294006
C96   C     C_3   0.027161 0.468257 0.758266 -0.406214
H30   H     H_    0.966678 0.479673 0.780481 0.165798
H31   H     H_    0.083297 0.449904 0.778259 0.198714
H32   H     H_    0.079068 0.545831 0.744731 0.144890
H33   H     H_    0.026091 0.365384 0.697398 0.153904
H34   H     H_    0.912163 0.398043 0.698588 0.155681
O31   O     O_3   0.863287 0.013585 0.707674 -0.699289
H35   H     H_    0.866609 0.972923 0.731629 0.315535
O32   O     O_3   0.195602 0.722783 0.821860 -0.731388
H36   H     H_    0.199921 0.723182 0.789059 0.320933
O33   O     O_3   0.033053 0.225903 0.773021 -0.660028
H37   H     H_    0.076919 0.254875 0.747034 0.361176
O34   O     O_3   0.315169 0.834175 0.213373 -0.695730
H38   H     H_    0.314879 0.882887 0.240494 0.307727
C97   C     C_3   0.144631 0.667937 0.277361 -0.272814
C98   C     C_3   0.057979 0.650526 0.240324 -0.419982
H39   H     H_    0.093173 0.719762 0.220649 0.191522
H40   H     H_    0.032955 0.572663 0.217349 0.165132
H41   H     H_    0.981319 0.646164 0.255657 0.143066
H42   H     H_    0.105808 0.601937 0.298544 0.146305
H43   H     H_    0.169816 0.747640 0.299276 0.146294
O35   O     O_3   0.385187 0.521875 0.273315 -0.736766
H44   H     H_    0.391313 0.477543 0.245861 0.320347
C99   C     C_3   0.170655 0.461221 0.207131 -0.260946
C100  C     C_3   0.102809 0.392738 0.242574 -0.398811
H45   H     H_    0.159757 0.389312 0.268146 0.172966
H46   H     H_    0.051278 0.427149 0.259398 0.160604
H47   H     H_    0.044218 0.307560 0.226005 0.182582
H48   H     H_    0.112378 0.467096 0.183016 0.152117
H49   H     H_    0.212271 0.418576 0.187899 0.154149
O36   O     O_3   0.112332 0.156972 0.187171 -0.735650
H50   H     H_    0.127047 0.165986 0.220108 0.329324
O37   O     O_3   0.342293 0.965611 0.366334 -0.686273
H51   H     H_    0.332908 0.924729 0.335592 0.303119
C101  C     C_3   0.359622 0.309514 0.444631 -0.283139
C102  C     C_3   0.241309 0.274428 0.460470 -0.445566
H52   H     H_    0.188859 0.285616 0.435484 0.147916
H53   H     H_    0.199438 0.186747 0.465359 0.153065
H54   H     H_    0.247415 0.325783 0.493036 0.150786
H55   H     H_    0.412251 0.307025 0.472145 0.167750
H56   H     H_    0.400909 0.397564 0.440869 0.146817
C103  C     C_3   0.516374 0.284003 0.093371 -0.265115
C104  C     C_3   0.507615 0.185921 0.060958 -0.425518
H57   H     H_    0.489863 0.116651 0.079469 0.163209
H58   H     H_    0.439453 0.158094 0.033870 0.151603
H59   H     H_    0.589027 0.210095 0.045141 0.138513
H60   H     H_    0.535629 0.353619 0.075024 0.173192
H61   H     H_    0.590586 0.312861 0.117788 0.142293
C105  C     C_3   0.347255 0.372030 0.353673 -0.252994
C106  C     C_3   0.469914 0.463074 0.354122 -0.395344
H62   H     H_    0.521316 0.467938 0.383995 0.131583
H63   H     H_    0.508378 0.447022 0.323256 0.172907
H64   H     H_    0.472478 0.543676 0.355214 0.189566
H65   H     H_    0.300364 0.364698 0.321984 0.185705
H66   H     H_    0.303476 0.395650 0.380633 0.135574
O38   O     O_3   0.843104 0.360409 0.192147 -0.734819
H67   H     H_    0.866501 0.425814 0.177035 0.309341
C107  C     C_3   0.772779 0.325874 0.320615 -0.272353
C108  C     C_3   0.652443 0.293995 0.303734 -0.421294
H68   H     H_    0.620653 0.224729 0.275258 0.175272
H69   H     H_    0.594034 0.269146 0.331115 0.150582
H70   H     H_    0.652187 0.365394 0.291811 0.145619
H71   H     H_    0.806228 0.399948 0.346903 0.151961
H72   H     H_    0.829876 0.352948 0.292913 0.181176
O39   O     O_3   0.753331 0.295291 0.414684 -0.677781
H73   H     H_    0.702316 0.315980 0.400118 0.326387
C109  C     C_3   0.863040 0.004581 0.389837 -0.223406
C110  C     C_3   0.985668 0.043575 0.377990 -0.413969
H74   H     H_    0.990538 0.020646 0.341568 0.212232
H75   H     H_    0.036873 0.134251 0.387255 0.141127
H76   H     H_    0.023319 0.004615 0.396930 0.131352
H77   H     H_    0.866344 0.014304 0.427074 0.152874
H78   H     H_    0.809783 0.915742 0.376391 0.183847
C111  C     C_3   0.744416 0.967776 0.154403 -0.292870
C112  C     C_3   0.838575 0.942291 0.165598 -0.413476
H79   H     H_    0.889953 0.946846 0.136247 0.175064
H80   H     H_    0.894533 0.001737 0.194800 0.200275
H81   H     H_    0.800913 0.857994 0.174363 0.135392
H82   H     H_    0.690441 0.956384 0.183293 0.147284
H83   H     H_    0.688697 0.907140 0.125327 0.144329
O40   O     O_3   0.821657 0.991564 0.296721 -0.724017
H84   H     H_    0.798567 0.988412 0.265147 0.323778
O41   O     O_3   0.447524 0.542782 0.884495 -0.660804
H85   H     H_    0.486103 0.587777 0.913892 0.326563
C113  C     C_3   0.541033 0.712109 0.685590 -0.280520
C114  C     C_3   0.653342 0.752549 0.663415 -0.426237
H86   H     H_    0.643877 0.695663 0.632122 0.154570
H87   H     H_    0.683495 0.837032 0.655754 0.196152
H88   H     H_    0.718257 0.755128 0.686931 0.159854
H89   H     H_    0.555406 0.770189 0.717128 0.143962
H90   H     H_    0.517880 0.630442 0.695082 0.168138

loop_
_geom_bond_atom_site_label_1
_geom_bond_atom_site_label_2
_ccdc_geom_bond_type
C3    H8    S    
C28   H1    S    
C7    C13   A    
C21   C26   S    
C2    C89   A    
C92   H17   S    
C73   C74   A    
C14   C18   S    
C93   C94   S    
Cr5   O15   S    
C94   H24   S    
C87   O14   A    
C57   C66   S    
O33   H37   S    
C34   O25   A    
C56   O24   A    
C110  H75   S    
O27   H21   S    
C53   C59   A    
C107  C108  S    
C7    C8    A    
C47   C49   S    
Cr5   O16   S    
C53   C54   A    
C99   C100  S    
C15   C19   S    
C23   O1    A    
C104  H58   S    
C14   O27   S    
C17   C23   S    
Cr6   O10   S    
C17   C26   T    
C32   C36   S    
C14   C21   S    
O29   H28   S    
Cr2   O21   S    
C94   H23   S    
C18   C19   S    
C88   O16   A    
Cr3   O22   S    
C91   H19   S    
C47   O35   S    
C49   H5    S    
C5    C6    A    
C92   H18   S    
C43   C52   T    
C100  H46   S    
C108  H69   S    
Cr2   O26   S    
O41   H85   S    
C75   O38   S    
C16   C84   S    
C33   C36   S    
Cr1   O5    S    
Cr6   O17   S    
C22   O28   S    
O40   H84   S    
Cr3   O4    S    
C49   C50   S    
C103  H61   S    
O35   H44   S    
C62   C103  S    
C54   C55   A    
C90   O18   A    
C45   O3    A    
C98   H41   S    
Cr1   O25   S    
C109  C110  S    
C89   C113  S    
C8    C9    A    
C29   C38   T    
C86   O11   A    
Cr5   O19   S    
C112  H79   S    
C31   C33   S    
C85   O10   A    
C70   C71   A    
C32   C38   S    
C63   H9    S    
C12   O21   A    
C75   C80   A    
C44   C99   S    
C18   C20   S    
C44   C47   S    
C42   C51   T    
C97   H43   S    
C53   C56   S    
C48   C50   S    
C109  H77   S    
C113  H90   S    
Cr1   O12   S    
C113  C114  S    
C78   H13   S    
C112  H80   S    
C33   O31   S    
C67   C78   A    
C102  H54   S    
Cr3   O3    S    
C2    C11   S    
C5    O32   S    
C76   C83   A    
C37   H2    S    
C96   H31   S    
C44   C46   S    
C60   C64   A    
C96   H30   S    
C57   C58   A    
C77   C79   A    
C78   C89   A    
C109  H78   S    
C12   C67   S    
C114  H87   S    
C103  C104  S    
C27   C31   S    
O36   H50   S    
O32   H36   S    
C15   H15   S    
C104  H59   S    
C107  H71   S    
C19   C22   S    
C70   C109  S    
C71   O40   S    
C102  H53   S    
Cr3   O23   S    
C10   C11   T    
O31   H35   S    
C59   O37   S    
C80   C81   S    
C100  H47   S    
C101  C102  S    
C27   C35   S    
C27   C95   S    
O34   H38   S    
C46   C51   S    
C81   C82   T    
C79   C80   A    
C60   C61   A    
Cr3   O5    S    
Cr1   O1    S    
C6    C91   S    
C85   O9    A    
C35   C39   S    
C75   C76   A    
C1    O12   A    
C5    C9    A    
C62   C63   A    
C18   O30   S    
Cr2   O2    S    
C8    H14   S    
C55   C105  S    
C43   C45   S    
C47   C48   S    
C46   C49   S    
C28   C32   S    
C41   C46   S    
O38   H67   S    
Cr2   O20   S    
C105  C106  S    
O28   H27   S    
C69   C74   A    
C111  H83   S    
C95   H33   S    
C94   H22   S    
Cr2   O5    S    
C34   C69   S    
C29   C86   S    
Cr4   O6    S    
C77   H12   S    
C84   O7    A    
C15   C24   S    
C20   C22   S    
O37   H51   S    
C95   H34   S    
C103  H60   S    
C55   C57   A    
O30   H29   S    
C112  H81   S    
C22   C24   S    
C102  H52   S    
C42   C88   S    
C111  C112  S    
C7    O41   S    
C3    C4    A    
Cr4   O19   S    
C41   C50   S    
C108  H68   S    
C96   H32   S    
C35   C37   S    
Cr6   O19   S    
C101  H55   S    
C9    C10   S    
Cr4   O14   S    
C16   C25   T    
C40   C48   S    
C83   C90   S    
C41   O34   S    
C114  H86   S    
C40   C41   S    
C76   H10   S    
C54   C101  S    
C20   O29   S    
C23   O23   A    
O39   H73   S    
C99   H48   S    
C90   O13   A    
C31   C32   S    
C79   C111  S    
C72   C73   A    
C1    O20   A    
C24   C93   S    
C40   C97   S    
C92   H16   S    
C107  H72   S    
C97   H42   S    
C101  H56   S    
Cr6   O11   S    
Cr5   O9    S    
C74   O39   S    
C106  H64   S    
C34   O26   A    
C106  H63   S    
C105  H65   S    
C105  H66   S    
C62   C68   A    
C12   O22   A    
Cr5   O8    S    
C95   C96   S    
C98   H39   S    
C93   H25   S    
C58   C59   A    
C71   C72   A    
C88   O17   A    
C97   C98   S    
C91   H20   S    
C86   O6    A    
C64   C65   S    
C108  H70   S    
Cr4   O7    S    
C61   C68   A    
C100  H45   S    
C31   O33   S    
C28   C37   S    
C84   O8    A    
C98   H40   S    
C1    C30   S    
C33   C35   S    
C56   O4    A    
C4    H11   S    
C73   C107  S    
C61   H6    S    
C36   H3    S    
C99   H49   S    
C111  H82   S    
C65   C66   T    
C69   C70   A    
C93   H26   S    
C72   C82   S    
C50   H4    S    
C91   C92   S    
C19   C25   S    
C110  H74   S    
C63   C64   A    
C45   O2    A    
C40   C44   S    
Cr1   O24   S    
C20   C21   S    
C36   C37   S    
C106  H62   S    
C21   C24   S    
C13   C85   S    
C27   C28   S    
C68   C87   S    
C77   C83   A    
C14   C15   S    
C2    C3    A    
C58   H7    S    
C104  H57   S    
C48   C52   S    
C114  H88   S    
C110  H76   S    
C60   O36   S    
C4    C67   A    
C87   O15   A    
C30   C39   T    
Cr6   O18   S    
C6    C13   A    
C113  H89   S    
Cr4   O13   S    
