data_mof_unit_35913.cif
_audit_creation_date              2012-12-11T14:56:41-0500
_audit_creation_method            fapswitch 2.2
_symmetry_space_group_name_H-M    P1
_symmetry_Int_Tables_number       1
_space_group_crystal_system       triclinic
_cell_length_a                    10.481013
_cell_length_b                    10.660354
_cell_length_c                    17.026144
_cell_angle_alpha                 80.45895
_cell_angle_beta                  89.665868
_cell_angle_gamma                 118.931828
_cell_volume                      1633.72640088

loop_
_atom_site_label
_atom_site_type_symbol
_atom_type_description
_atom_site_fract_x
_atom_site_fract_y
_atom_site_fract_z
_atom_type_partial_charge
C1    C     C_R   0.280152 0.889520 0.132624 0.561446
C2    C     C_1   0.684507 0.402735 0.710059 -0.049987
C3    C     C_R   0.626187 0.712959 0.805046 -0.138194
C4    C     C_R   0.638396 0.283623 0.085101 0.539684
C5    C     C_R   0.611009 0.697887 0.726634 -0.139186
C6    C     C_R   0.669324 0.822127 0.665544 0.030794
C7    C     C_R   0.748755 0.961823 0.683078 -0.140555
C8    C     C_R   0.760161 0.977284 0.762223 -0.140712
C9    C     C_R   0.692323 0.852525 0.823237 0.021985
C10   C     C_R   0.081662 0.883332 0.790707 -0.134992
C11   C     C_R   0.066049 0.880436 0.710952 -0.123729
C12   C     C_R   0.828663 0.451057 0.252057 0.208862
C13   C     C_R   0.114070 0.801914 0.672201 0.032389
C14   C     C_R   0.164756 0.714811 0.715441 -0.136408
C15   C     C_R   0.182137 0.718984 0.795645 -0.124393
C16   C     C_R   0.643681 0.855736 0.124124 0.544063
C17   C     C_R   0.148561 0.810487 0.831851 0.025588
C18   C     C_R   0.711538 0.772601 0.353513 0.535198
C19   C     C_R   0.728235 0.460144 0.382831 0.564671
C20   C     C_R   0.109316 0.812861 0.360213 0.554033
C21   C     C_R   0.677173 0.800171 0.585403 0.548206
C22   C     C_R   0.717452 0.446779 0.626066 0.558605
C23   C     C_R   0.807296 0.420994 0.176093 -0.080503
C24   C     C_R   0.090079 0.798607 0.589437 0.543230
C25   C     C_R   0.215622 0.857753 0.902718 0.557262
C26   C     C_R   0.640340 0.291191 0.862013 0.550092
C27   C     C_R   0.648256 0.866625 0.899838 0.544192
C28   C     C_R   0.554501 0.365133 0.193388 -0.144565
C29   C     C_R   0.577498 0.404867 0.267979 -0.164726
C30   C     C_R   0.711608 0.438986 0.300111 0.011501
C31   C     C_R   0.667672 0.365646 0.149314 -0.018743
C32   C     C_1   0.685542 0.831571 0.201560 -0.019190
C33   C     C_1   0.703852 0.807183 0.270348 -0.028073
C34   C     C_1   0.230230 0.856016 0.215610 0.009330
C35   C     C_1   0.181449 0.836155 0.283412 0.019193
C36   C     C_1   0.661817 0.358591 0.780657 -0.045876
Cl1   Cl    Cl    0.999999 0.486834 0.285091 -0.588170
Cr1   Cr    Cr6+3 0.402240 0.783890 0.019450 1.041671
Cr2   Cr    Cr6+3 0.382360 0.097900 0.991800 1.023528
Cr3   Cr    Cr6+3 0.715380 0.118170 0.988700 1.027860
Cr4   Cr    Cr6+3 0.936650 0.882420 0.465510 1.045341
Cr5   Cr    Cr6+3 0.605770 0.565620 0.493360 1.034637
Cr6   Cr    Cr6+3 0.921340 0.550490 0.496380 1.065888
H1    H     H_    0.446441 0.325151 0.172878 0.151593
H2    H     H_    0.811840 0.086305 0.775435 0.147541
H3    H     H_    0.051918 0.951357 0.818365 0.134691
H4    H     H_    0.017960 0.941603 0.679400 0.149392
H5    H     H_    0.195606 0.648668 0.686713 0.131495
H6    H     H_    0.232546 0.660105 0.827169 0.143295
H7    H     H_    0.486986 0.399032 0.302448 0.164879
H8    H     H_    0.897502 0.426625 0.141289 0.176407
H9    H     H_    0.575028 0.615770 0.851653 0.130579
H10   H     H_    0.555844 0.588604 0.713835 0.134674
H11   H     H_    0.800252 0.057841 0.635799 0.142587
O1    O     O_R   0.521780 0.757110 0.108900 -0.507994
O2    O     O_R   0.805020 0.410040 0.421340 -0.430139
O3    O     O_R   0.049240 0.685450 0.403290 -0.463996
O4    O     O_R   0.275160 0.783810 0.101120 -0.467541
O5    O     O_R   0.077520 0.903010 0.551800 -0.513412
O6    O     O_R   0.802980 0.872780 0.546830 -0.499958
O7    O     O_R   0.578090 0.681300 0.569920 -0.520115
O8    O     O_R   0.608530 0.436370 0.586530 -0.485161
O9    O     O_R   0.798770 0.401880 0.597100 -0.499849
O10   O     O_R   0.043450 0.677890 0.566230 -0.519945
O11   O     O_3   0.821250 0.666180 0.485090 -0.332649
O12   O     O_R   0.513330 0.228330 0.898660 -0.495596
O13   O     O_R   0.237900 0.972600 0.090980 -0.513872
O14   O     O_R   0.511190 0.220540 0.061620 -0.518363
O15   O     O_R   0.736920 0.257720 0.063840 -0.516901
O16   O     O_R   0.710450 0.984050 0.081720 -0.491979
O17   O     O_R   0.524090 0.765520 0.933110 -0.520252
O18   O     O_R   0.277300 0.791600 0.938160 -0.502185
O19   O     O_R   0.240210 0.981010 0.915190 -0.512546
O20   O     O_R   0.739230 0.266130 0.888050 -0.511345
O21   O     O_R   0.712580 0.991850 0.918770 -0.505520
O22   O     O_3   0.499990 0.999980 0.999980 -0.268565
O23   O     O_R   0.083770 0.911170 0.376030 -0.513349
O24   O     O_R   0.808770 0.880340 0.383890 -0.468116
O25   O     O_R   0.584340 0.689460 0.394160 -0.494963
O26   O     O_R   0.614320 0.443940 0.423590 -0.514068

loop_
_geom_bond_atom_site_label_1
_geom_bond_atom_site_label_2
_ccdc_geom_bond_type
C19   O2    A    
Cr5   O26   S    
Cr2   O14   S    
C11   H4    S    
Cr6   O9    S    
C7    C8    A    
Cr1   O22   S    
C12   C23   A    
Cr3   O16   S    
C20   O23   A    
C5    H10   S    
C28   C29   A    
Cr4   O23   S    
C5    C6    A    
C10   C17   A    
C1    C34   S    
C34   C35   T    
C12   Cl1   S    
C8    H2    S    
C26   O20   A    
C22   O9    A    
Cr1   O4    S    
C20   C35   S    
Cr1   O1    S    
C18   O25   A    
C10   H3    S    
Cr5   O11   S    
Cr5   O8    S    
C21   O7    A    
C18   O24   A    
Cr2   O19   S    
Cr5   O25   S    
C24   O10   A    
C13   C14   A    
C27   O21   A    
C4    O15   A    
Cr6   O10   S    
C29   H7    S    
Cr1   O18   S    
Cr3   O15   S    
C26   O12   A    
C16   O16   A    
Cr4   O5    S    
C21   O6    A    
Cr4   O24   S    
C4    O14   A    
C8    C9    A    
C14   H5    S    
C6    C21   S    
C28   H1    S    
Cr3   O22   S    
C13   C24   S    
C23   C31   A    
C2    C22   S    
C29   C30   A    
C3    C9    A    
C22   O8    A    
C23   H8    S    
Cr6   O11   S    
C25   O18   A    
Cr2   O22   S    
Cr5   O7    S    
C26   C36   S    
Cr2   O12   S    
C27   O17   A    
C9    C27   S    
C2    C36   T    
C15   C17   A    
Cr1   O17   S    
C12   C30   A    
Cr2   O13   S    
C28   C31   A    
Cr4   O6    S    
C3    C5    A    
Cr4   O11   S    
C3    H9    S    
C6    C7    A    
C16   C32   S    
Cr3   O21   S    
C17   C25   S    
C32   C33   T    
C16   O1    A    
C1    O4    A    
C11   C13   A    
C24   O5    A    
C1    O13   A    
Cr3   O20   S    
C25   O19   A    
C15   H6    S    
C19   O26   A    
C18   C33   S    
C4    C31   S    
C10   C11   A    
Cr6   O3    S    
Cr6   O2    S    
C14   C15   A    
C7    H11   S    
C20   O3    A    
C19   C30   S    
