data_mof_unit_61070.cif
_audit_creation_date              2012-12-11T16:11:52-0500
_audit_creation_method            fapswitch 2.2
_symmetry_space_group_name_H-M    P1
_symmetry_Int_Tables_number       1
_space_group_crystal_system       triclinic
_cell_length_a                    6.961125
_cell_length_b                    14.259835
_cell_length_c                    15.886909
_cell_angle_alpha                 89.982878
_cell_angle_beta                  90.058796
_cell_angle_gamma                 90.154397
_cell_volume                      1576.99935651

loop_
_atom_site_label
_atom_site_type_symbol
_atom_type_description
_atom_site_fract_x
_atom_site_fract_y
_atom_site_fract_z
_atom_type_partial_charge
O1    O     O_R   0.638960 0.835150 0.161940 -0.526895
O2    O     O_R   0.361040 0.164850 0.838060 -0.528914
O3    O     O_R   0.309170 0.846340 0.337470 -0.541829
O4    O     O_R   0.690830 0.153660 0.662530 -0.544493
O5    O     O_R   0.138810 0.664830 0.338070 -0.540885
O6    O     O_R   0.861190 0.335170 0.661930 -0.537313
C1    C     C_R   0.478323 0.868264 0.366359 0.732953
C2    C     C_R   0.521660 0.131642 0.633709 0.725060
O7    O     O_R   0.309250 0.846350 0.162570 -0.535541
O8    O     O_R   0.690750 0.153650 0.837430 -0.537853
O9    O     O_R   0.138880 0.664840 0.161920 -0.537278
O10   O     O_R   0.861120 0.335160 0.838080 -0.526026
C3    C     C_R   0.478218 0.867923 0.133232 0.712117
C4    C     C_R   0.521777 0.132049 0.866748 0.707057
O11   O     O_R   0.638880 0.835150 0.338090 -0.542125
O12   O     O_R   0.361120 0.164850 0.661910 -0.544323
O13   O     O_3   0.472380 0.690440 0.250000 -0.377686
O14   O     O_3   0.527620 0.309560 0.750000 -0.367179
V1    V     V_3+5 0.197550 0.761040 0.250010 1.427856
V2    V     V_3+5 0.802450 0.238960 0.749990 1.451493
O15   O     O_R   0.809160 0.653640 0.162540 -0.549238
O16   O     O_R   0.190840 0.346360 0.837460 -0.547771
C5    C     C_R   0.977803 0.631410 0.133889 0.730422
C6    C     C_R   0.022225 0.368121 0.866535 0.735680
O17   O     O_R   0.809090 0.653640 0.337440 -0.542055
O18   O     O_R   0.190910 0.346360 0.662560 -0.544887
C7    C     C_R   0.977696 0.632094 0.366638 0.708639
C8    C     C_R   0.022402 0.367635 0.633075 0.724112
V3    V     V_3+5 0.697540 0.738950 0.250000 1.414686
V4    V     V_3+5 0.302460 0.261050 0.750000 1.435185
O19   O     O_3   0.972580 0.809550 0.250010 -0.362391
O20   O     O_3   0.027420 0.190450 0.749990 -0.368591
C9    C     C_3   0.148235 0.561669 0.505438 -0.261119
C10   C     C_3   0.852572 0.437488 0.493610 -0.209402
C11   C     C_3   0.992095 0.543083 0.572279 0.220021
C12   C     C_3   0.008709 0.456219 0.426744 0.200723
H1    H     H_    0.259986 0.616215 0.512577 0.134210
H2    H     H_    0.740691 0.383001 0.486543 0.130929
C13   C     C_3   0.012526 0.436590 0.561871 -0.094984
C14   C     C_3   0.987971 0.562713 0.437349 -0.132096
C15   C     C_3   0.167009 0.453697 0.493883 0.179600
C16   C     C_3   0.833591 0.545446 0.505301 0.180439
C17   C     C_3   0.923542 0.417861 0.025073 0.166520
C18   C     C_3   0.076530 0.581147 0.975942 0.134072
C19   C     C_3   0.095396 0.467922 0.066098 0.210189
C20   C     C_3   0.904585 0.531076 0.934962 0.207023
C21   C     C_3   0.987800 0.561746 0.063419 -0.097970
C22   C     C_3   0.012146 0.437240 0.937538 -0.098276
C23   C     C_3   0.812511 0.512203 0.021782 -0.199000
C24   C     C_3   0.187583 0.486730 0.979208 -0.246644
H3    H     H_    0.658956 0.522744 0.037955 0.125315
H4    H     H_    0.341161 0.476178 0.963103 0.145207
C25   C     C_3   0.680200 0.971028 0.479551 -0.247268
C26   C     C_3   0.319740 0.028743 0.520606 -0.244854
C27   C     C_3   0.605553 0.073611 0.475906 0.152423
C28   C     C_3   0.394385 0.926151 0.524246 0.170429
H5    H     H_    0.828046 0.947466 0.464271 0.132579
H6    H     H_    0.171893 0.052304 0.535884 0.132060
C29   C     C_3   0.509770 0.062206 0.563038 -0.092575
C30   C     C_3   0.490179 0.937579 0.437113 -0.093275
C31   C     C_3   0.580913 0.960476 0.566034 0.214610
C32   C     C_3   0.419031 0.039296 0.434126 0.210084
C33   C     C_3   0.665378 0.957502 0.007601 0.276023
C34   C     C_3   0.334608 0.042431 0.992353 0.275873
C35   C     C_3   0.542202 0.955295 0.927124 -0.239227
C36   C     C_3   0.457785 0.044642 0.072830 -0.237043
H7    H     H_    0.580661 0.918532 0.867923 0.135654
H8    H     H_    0.419330 0.081408 0.132029 0.138085
C37   C     C_3   0.510840 0.062139 0.937332 -0.058409
C38   C     C_3   0.489149 0.937800 0.062625 -0.059063
C39   C     C_3   0.638262 0.064107 0.017301 -0.159065
C40   C     C_3   0.361725 0.935824 0.982655 -0.159360
H9    H     H_    0.750924 0.116801 0.031360 0.127751
H10   H     H_    0.249101 0.883102 0.968599 0.127716
N1    N     N_3   0.982277 0.591221 0.652873 -0.678487
H11   H     H_    0.974672 0.663080 0.640392 0.230123
H12   H     H_    0.112891 0.579826 0.683673 0.214727
N2    N     N_3   0.018907 0.407736 0.346230 -0.649605
H13   H     H_    0.895386 0.425137 0.312265 0.225855
H14   H     H_    0.135482 0.435889 0.313364 0.248035
N3    N     N_3   0.848902 0.909798 0.015278 -0.652222
H15   H     H_    0.928230 0.927568 0.961854 0.232995
H16   H     H_    0.821650 0.837883 0.010916 0.208360
N4    N     N_3   0.151084 0.090133 0.984674 -0.653749
H17   H     H_    0.071784 0.072393 0.038114 0.234584
H18   H     H_    0.178345 0.162049 0.988998 0.208055
C41   C     C_3   0.351773 0.398819 0.484994 -0.768630
H19   H     H_    0.432131 0.424547 0.429277 0.208785
H20   H     H_    0.439104 0.408251 0.542777 0.214826
H21   H     H_    0.318441 0.323214 0.476724 0.203052
C42   C     C_3   0.648659 0.600172 0.514290 -0.768034
H22   H     H_    0.568813 0.574547 0.570189 0.220280
H23   H     H_    0.681635 0.675851 0.522281 0.192451
H24   H     H_    0.561044 0.590439 0.456632 0.214169
N5    N     N_3   0.199306 0.432573 0.139020 -0.677521
H25   H     H_    0.260990 0.368697 0.121717 0.230488
H26   H     H_    0.312709 0.478926 0.150813 0.225274
N6    N     N_3   0.797873 0.565763 0.862617 -0.650593
H27   H     H_    0.739200 0.630457 0.879492 0.224847
H28   H     H_    0.897553 0.578971 0.815066 0.248611
C43   C     C_3   0.837474 0.325522 0.054695 -0.782779
H29   H     H_    0.783724 0.333286 0.120054 0.222919
H30   H     H_    0.716447 0.305314 0.012867 0.198057
H31   H     H_    0.948739 0.270107 0.053159 0.194888
C44   C     C_3   0.162723 0.673534 0.946455 -0.808600
H32   H     H_    0.217223 0.665795 0.881215 0.217237
H33   H     H_    0.051324 0.728895 0.947751 0.194103
H34   H     H_    0.283279 0.693824 0.988510 0.209973
C45   C     C_3   0.723624 0.157587 0.447203 -0.752745
H35   H     H_    0.774422 0.146087 0.381842 0.226559
H36   H     H_    0.633700 0.221622 0.449230 0.197927
H37   H     H_    0.849553 0.166854 0.489330 0.196287
C46   C     C_3   0.276325 0.842139 0.552920 -0.792571
H38   H     H_    0.366191 0.778082 0.550815 0.199709
H39   H     H_    0.225609 0.853563 0.618305 0.220853
H40   H     H_    0.150321 0.832916 0.510829 0.198050
N7    N     N_3   0.668537 0.916757 0.639436 -0.673870
H41   H     H_    0.706392 0.848497 0.622341 0.225981
H42   H     H_    0.796696 0.952578 0.651723 0.225931
N8    N     N_3   0.331435 0.083003 0.360714 -0.669094
H43   H     H_    0.293679 0.151282 0.377786 0.236476
H44   H     H_    0.203226 0.047213 0.348451 0.228137

loop_
_geom_bond_atom_site_label_1
_geom_bond_atom_site_label_2
_ccdc_geom_bond_type
C36   H8    S    
C41   H19   S    
C33   C35   S    
C43   H29   S    
C27   C29   S    
O13   V3    S    
N5    H25   S    
C10   C16   S    
O4    C2    A    
V1    O19   S    
N3    H15   S    
C21   C23   S    
C18   C44   S    
C44   H33   S    
C20   C23   S    
O9    V1    S    
C33   N3    S    
N4    H18   S    
O3    C1    A    
N7    H42   S    
C2    C29   S    
V2    O20   S    
N2    H14   S    
C3    C38   S    
O12   V4    S    
C27   C32   S    
C30   C32   S    
C16   C42   S    
O9    C5    A    
C37   C39   S    
C11   C16   S    
O7    C3    A    
C34   N4    S    
C9    C11   S    
O5    C7    A    
C25   C31   S    
O7    V1    S    
O6    C8    A    
O8    V2    S    
C23   H3    S    
C24   H4    S    
C28   C46   S    
O3    V1    S    
O14   V4    S    
C17   C22   S    
C32   N8    S    
C18   C21   S    
C46   H40   S    
C19   C21   S    
C20   N6    S    
C43   H30   S    
C27   C45   S    
C12   C15   S    
N3    H16   S    
C25   C30   S    
C18   C20   S    
O11   V3    S    
C20   C22   S    
C26   C29   S    
C25   C27   S    
O17   V3    S    
C15   C41   S    
C44   H34   S    
C26   C28   S    
C29   C31   S    
C9    C14   S    
C5    C21   S    
C31   N7    S    
C10   C13   S    
C6    C22   S    
C12   C14   S    
N4    H17   S    
C40   H10   S    
O8    C4    A    
C45   H37   S    
C42   H22   S    
C39   H9    S    
C25   H5    S    
N2    H13   S    
C17   C23   S    
C1    O11   A    
C26   C32   S    
C8    C13   S    
C35   H7    S    
O15   V3    S    
C9    H1    S    
C28   C30   S    
C34   C36   S    
C11   C13   S    
N1    H11   S    
C17   C43   S    
C42   H23   S    
N1    H12   S    
C36   C39   S    
C33   C38   S    
C7    C14   S    
C11   N1    S    
O10   V2    S    
O1    V3    S    
C34   C37   S    
C17   C19   S    
C33   C39   S    
O18   V4    S    
C43   H31   S    
N6    H28   S    
O15   C5    A    
C4    C37   S    
O16   C6    A    
O1    C3    A    
C19   N5    S    
C1    C30   S    
N8    H43   S    
N8    H44   S    
C46   H38   S    
C26   H6    S    
C18   C24   S    
O16   V4    S    
C10   H2    S    
C14   C16   S    
N5    H26   S    
O5    V1    S    
O17   C7    A    
C35   C40   S    
O6    V2    S    
C44   H32   S    
O10   C6    A    
O18   C8    A    
O2    V4    S    
C9    C15   S    
C45   H36   S    
V3    O19   S    
C12   N2    S    
C45   H35   S    
C42   H24   S    
V4    O20   S    
C36   C38   S    
C19   C24   S    
C35   C37   S    
C22   C24   S    
O13   V1    S    
C10   C12   S    
O14   V2    S    
C34   C40   S    
O2    C4    A    
O4    V2    S    
C13   C15   S    
C2    O12   A    
N6    H27   S    
C41   H21   S    
C41   H20   S    
C28   C31   S    
C38   C40   S    
N7    H41   S    
C46   H39   S    
