data_mof_unit_31359.cif
_audit_creation_date              2012-12-10T18:23:53-0500
_audit_creation_method            fapswitch 2.2
_symmetry_space_group_name_H-M    P1
_symmetry_Int_Tables_number       1
_space_group_crystal_system       triclinic
_cell_length_a                    22.465623
_cell_length_b                    22.494891
_cell_length_c                    14.696553
_cell_angle_alpha                 89.98657
_cell_angle_beta                  89.978643
_cell_angle_gamma                 89.999157
_cell_volume                      7427.07488458

loop_
_atom_site_label
_atom_site_type_symbol
_atom_type_description
_atom_site_fract_x
_atom_site_fract_y
_atom_site_fract_z
_atom_type_partial_charge
C1    C     C_R   0.419817 0.919804 0.500014 0.817909
C2    C     C_R   0.580184 0.080196 0.499985 0.817919
C3    C     C_R   0.580182 0.919803 0.499999 0.817897
C4    C     C_R   0.419817 0.080197 0.500001 0.817906
C5    C     C_R   0.919816 0.419804 0.500014 0.817921
C6    C     C_R   0.080183 0.580196 0.499985 0.817911
C7    C     C_R   0.080183 0.419803 0.499999 0.817905
C8    C     C_R   0.919818 0.580197 0.500001 0.817896
C9    C     C_1   0.337718 0.162845 0.500464 -0.040680
C10   C     C_1   0.662279 0.837152 0.499539 -0.040680
C11   C     C_1   0.662289 0.162838 0.499483 -0.040905
C12   C     C_1   0.337713 0.837159 0.500516 -0.040910
C13   C     C_1   0.837720 0.662847 0.500459 -0.040676
C14   C     C_1   0.162282 0.337156 0.499539 -0.040676
C15   C     C_1   0.162287 0.662841 0.499484 -0.040916
C16   C     C_1   0.837710 0.337163 0.500517 -0.040911
C17   C     C_1   0.499978 0.999998 0.194762 0.202458
C18   C     C_1   0.500022 0.000001 0.805238 0.202458
C19   C     C_1   0.999978 0.499999 0.194763 0.202451
C20   C     C_1   0.000022 0.500002 0.805237 0.202451
C21   C     C_3   0.533333 0.044702 0.969326 0.107444
C22   C     C_3   0.466667 0.955296 0.030674 0.107453
C23   C     C_3   0.477895 0.051174 0.030644 0.109292
C24   C     C_3   0.522105 0.948825 0.969356 0.109298
C25   C     C_3   0.032516 0.545300 0.969326 0.107464
C26   C     C_3   0.967485 0.454701 0.030674 0.107456
C27   C     C_3   0.976969 0.550766 0.030644 0.109272
C28   C     C_3   0.023032 0.449235 0.969356 0.109265
C29   C     C_3   0.695935 0.723366 0.504017 0.101591
C30   C     C_3   0.304076 0.276643 0.496486 0.101580
C31   C     C_3   0.304080 0.723360 0.496612 0.101947
C32   C     C_3   0.695912 0.276644 0.503030 0.101916
C33   C     C_3   0.195925 0.223358 0.503518 0.101584
C34   C     C_3   0.804064 0.776633 0.495979 0.101595
C35   C     C_3   0.804087 0.223357 0.496970 0.101903
C36   C     C_3   0.195920 0.776639 0.503388 0.101934
C37   C     C_3   0.243208 0.214896 0.428574 0.133138
C38   C     C_3   0.756981 0.785293 0.571164 0.133152
C39   C     C_3   0.756602 0.215042 0.571662 0.133677
C40   C     C_3   0.243264 0.785095 0.428524 0.133684
C41   C     C_3   0.743018 0.714706 0.428832 0.133123
C42   C     C_3   0.256793 0.285104 0.571431 0.133107
C43   C     C_3   0.256736 0.714905 0.571476 0.133683
C44   C     C_3   0.743397 0.284959 0.428339 0.133676
C45   C     C_1   0.375227 0.125032 0.500115 -0.174907
C46   C     C_1   0.624772 0.874966 0.499885 -0.174916
C47   C     C_1   0.624778 0.125028 0.499842 -0.174995
C48   C     C_1   0.375223 0.874971 0.500158 -0.175004
C49   C     C_1   0.875228 0.625033 0.500114 -0.174916
C50   C     C_1   0.124774 0.374968 0.499885 -0.174908
C51   C     C_1   0.124777 0.625029 0.499842 -0.175006
C52   C     C_1   0.875221 0.374973 0.500158 -0.174997
C53   C     C_3   0.245217 0.217732 0.577254 0.135113
C54   C     C_3   0.754576 0.782062 0.422517 0.135110
C55   C     C_3   0.754995 0.217577 0.422956 0.133831
C56   C     C_3   0.245151 0.782277 0.577211 0.133785
C57   C     C_3   0.745423 0.717937 0.577479 0.135160
C58   C     C_3   0.254784 0.282268 0.422751 0.135164
C59   C     C_3   0.254849 0.717723 0.422789 0.133741
C60   C     C_3   0.745004 0.282424 0.577045 0.133787
C61   C     C_3   0.292189 0.208842 0.501128 -0.033165
C62   C     C_3   0.707807 0.791154 0.498878 -0.033165
C63   C     C_3   0.707819 0.208836 0.498832 -0.032949
C64   C     C_3   0.292185 0.791161 0.501166 -0.032952
C65   C     C_3   0.792192 0.708845 0.501118 -0.033160
C66   C     C_3   0.207812 0.291159 0.498876 -0.033160
C67   C     C_3   0.207816 0.708838 0.498834 -0.032944
C68   C     C_3   0.792180 0.291165 0.501169 -0.032941
C69   C     C_3   0.555420 0.993525 0.030653 0.108364
C70   C     C_3   0.444580 0.006474 0.969347 0.108365
C71   C     C_3   0.055529 0.494531 0.030652 0.108384
C72   C     C_3   0.944472 0.505470 0.969347 0.108383
C73   C     C_3   0.499981 0.999996 0.093111 -0.048479
C74   C     C_3   0.500019 0.000003 0.906889 -0.048478
C75   C     C_3   0.999982 0.499998 0.093111 -0.048482
C76   C     C_3   0.000019 0.500004 0.906889 -0.048483
Cu1   Cu    Cu3+1 0.500000 0.000000 0.590220 0.983774
Cu2   Cu    Cu3+1 0.500000 0.000000 0.409780 0.983775
Cu3   Cu    Cu3+1 0.000000 0.500000 0.590220 0.983773
Cu4   Cu    Cu3+1 0.000000 0.500000 0.409780 0.983773
N1    N     N_1   0.499980 0.000000 0.274190 -0.159183
N2    N     N_1   0.500020 0.000000 0.725810 -0.159182
N3    N     N_1   0.999980 0.500000 0.274190 -0.159182
N4    N     N_1   0.000020 0.500000 0.725810 -0.159182
O1    O     O_R   0.439540 0.939530 0.576170 -0.574281
O2    O     O_R   0.560460 0.060470 0.423830 -0.574274
O3    O     O_R   0.560460 0.939530 0.423830 -0.574619
O4    O     O_R   0.439540 0.060470 0.576170 -0.574615
O5    O     O_R   0.939540 0.439530 0.576170 -0.574252
O6    O     O_R   0.060460 0.560470 0.423830 -0.574259
O7    O     O_R   0.060460 0.439530 0.423830 -0.574615
O8    O     O_R   0.939540 0.560470 0.576170 -0.574618
O9    O     O_R   0.439530 0.939530 0.423800 -0.566839
O10   O     O_R   0.560470 0.060470 0.576200 -0.566829
O11   O     O_R   0.560470 0.939530 0.576200 -0.566421
O12   O     O_R   0.439530 0.060470 0.423800 -0.566413
O13   O     O_R   0.939530 0.439530 0.423800 -0.566851
O14   O     O_R   0.060470 0.560470 0.576200 -0.566861
O15   O     O_R   0.060470 0.439530 0.576200 -0.566415
O16   O     O_R   0.939530 0.560470 0.423800 -0.566423
N5    N     N_3   0.383538 0.013204 0.937788 -0.590728
H1    H     H_    0.356772 0.019257 0.995207 0.230334
H2    H     H_    0.381520 0.052638 0.900326 0.222231
N6    N     N_3   0.616462 0.986795 0.062212 -0.590726
H3    H     H_    0.643227 0.980740 0.004793 0.230333
H4    H     H_    0.618480 0.947361 0.099676 0.222227
N7    N     N_3   0.883317 0.511092 0.937789 -0.590725
H5    H     H_    0.856446 0.516659 0.995207 0.230327
H6    H     H_    0.880582 0.550482 0.900327 0.222218
N8    N     N_3   0.116684 0.488910 0.062211 -0.590726
H7    H     H_    0.143555 0.483344 0.004793 0.230327
H8    H     H_    0.119419 0.449520 0.099672 0.222222
N9    N     N_3   0.238132 0.176050 0.349619 -0.583329
H9    H     H_    0.196157 0.182976 0.320940 0.217321
H10   H     H_    0.239688 0.132129 0.372494 0.222996
N10   N     N_3   0.762266 0.824350 0.649843 -0.583368
H11   H     H_    0.804318 0.817502 0.678302 0.217311
H12   H     H_    0.760645 0.868210 0.626705 0.222966
N11   N     N_3   0.761469 0.176356 0.650860 -0.585447
H13   H     H_    0.803366 0.183342 0.679766 0.217106
H14   H     H_    0.759976 0.132388 0.628220 0.222533
N12   N     N_3   0.238248 0.823931 0.349520 -0.585472
H15   H     H_    0.196296 0.816998 0.320770 0.217098
H16   H     H_    0.239784 0.867856 0.372350 0.222532
N13   N     N_3   0.737733 0.675649 0.350153 -0.583306
H17   H     H_    0.695681 0.682496 0.321694 0.217302
H18   H     H_    0.739354 0.631789 0.373291 0.222994
N14   N     N_3   0.261869 0.323951 0.650385 -0.583267
H19   H     H_    0.303844 0.317025 0.679065 0.217313
H20   H     H_    0.260313 0.367872 0.627511 0.223025
N15   N     N_3   0.261752 0.676069 0.650480 -0.585546
H21   H     H_    0.303704 0.683001 0.679230 0.217099
H22   H     H_    0.260216 0.632144 0.627650 0.222534
N16   N     N_3   0.738530 0.323646 0.349141 -0.585523
H23   H     H_    0.696633 0.316659 0.320234 0.217107
H24   H     H_    0.740023 0.367613 0.371781 0.222536
C77   C     C_3   0.632442 0.698387 0.503882 -0.381308
C78   C     C_3   0.630637 0.630747 0.510764 -0.851018
H25   H     H_    0.652305 0.610010 0.450970 0.245274
H26   H     H_    0.652794 0.615170 0.573699 0.257304
H27   H     H_    0.583553 0.615794 0.512631 0.240730
H28   H     H_    0.607298 0.717910 0.561621 0.208023
H29   H     H_    0.609967 0.712275 0.440010 0.196210
C79   C     C_3   0.367568 0.301618 0.497171 -0.381293
C80   C     C_3   0.369394 0.369275 0.490717 -0.851020
H30   H     H_    0.347408 0.385018 0.427739 0.257297
H31   H     H_    0.347564 0.389855 0.550500 0.245282
H32   H     H_    0.416482 0.384231 0.489241 0.240721
H33   H     H_    0.389872 0.287561 0.561098 0.196240
H34   H     H_    0.392865 0.282245 0.439470 0.208000
C81   C     C_3   0.367573 0.698387 0.497445 -0.381390
C82   C     C_3   0.369410 0.630728 0.491060 -0.850928
H35   H     H_    0.347533 0.610152 0.550823 0.245207
H36   H     H_    0.347476 0.614977 0.428055 0.257341
H37   H     H_    0.416501 0.615776 0.489688 0.240738
H38   H     H_    0.392918 0.717753 0.439775 0.208343
H39   H     H_    0.389823 0.712451 0.561400 0.195814
C83   C     C_3   0.632420 0.301613 0.501799 -0.381393
C84   C     C_3   0.630568 0.369281 0.507926 -0.850931
H40   H     H_    0.652322 0.385127 0.571021 0.257336
H41   H     H_    0.652617 0.389765 0.448238 0.245227
H42   H     H_    0.583475 0.384238 0.508934 0.240726
H43   H     H_    0.610304 0.287447 0.437787 0.195835
H44   H     H_    0.606957 0.282336 0.559418 0.208317
C85   C     C_3   0.132433 0.198383 0.502834 -0.381294
C86   C     C_3   0.130607 0.130725 0.509289 -0.851014
H45   H     H_    0.152438 0.110145 0.449505 0.245280
H46   H     H_    0.152593 0.114983 0.572267 0.257301
H47   H     H_    0.083519 0.115769 0.510765 0.240721
H48   H     H_    0.107136 0.217755 0.560535 0.207977
H49   H     H_    0.110129 0.212439 0.438907 0.196263
C87   C     C_3   0.867557 0.801612 0.496114 -0.381310
C88   C     C_3   0.869362 0.869252 0.489232 -0.851012
H50   H     H_    0.847205 0.884828 0.426297 0.257309
H51   H     H_    0.847693 0.889989 0.549025 0.245273
H52   H     H_    0.916446 0.884205 0.487366 0.240730
H53   H     H_    0.890032 0.787724 0.559987 0.196233
H54   H     H_    0.892700 0.782088 0.438375 0.208000
C89   C     C_3   0.867579 0.198388 0.498202 -0.381395
C90   C     C_3   0.869431 0.130720 0.492074 -0.850924
H55   H     H_    0.847382 0.110237 0.551763 0.245219
H56   H     H_    0.847677 0.114874 0.428980 0.257342
H57   H     H_    0.916524 0.115763 0.491067 0.240728
H58   H     H_    0.893042 0.217665 0.440583 0.208322
H59   H     H_    0.889695 0.212554 0.562214 0.195835
C91   C     C_3   0.132427 0.801613 0.502555 -0.381392
C92   C     C_3   0.130590 0.869271 0.508939 -0.850923
H60   H     H_    0.152524 0.885023 0.571944 0.257348
H61   H     H_    0.152467 0.889847 0.449177 0.245200
H62   H     H_    0.083499 0.884224 0.510312 0.240740
H63   H     H_    0.110177 0.787548 0.438599 0.195813
H64   H     H_    0.107082 0.782246 0.560225 0.208348
C93   C     C_3   0.753653 0.818131 0.334124 -0.374420
C94   C     C_3   0.803941 0.800854 0.269528 -0.802366
H65   H     H_    0.847855 0.811322 0.299792 0.249190
H66   H     H_    0.802026 0.752780 0.253012 0.278207
H67   H     H_    0.799504 0.826430 0.205273 0.232950
H68   H     H_    0.710371 0.810496 0.299515 0.200633
H69   H     H_    0.756806 0.866200 0.350384 0.196351
C95   C     C_3   0.245904 0.181428 0.665426 -0.374388
C96   C     C_3   0.195446 0.198536 0.729818 -0.802421
H70   H     H_    0.197322 0.246564 0.746649 0.278206
H71   H     H_    0.151612 0.188155 0.699215 0.249178
H72   H     H_    0.199710 0.172786 0.793937 0.232952
H73   H     H_    0.242793 0.133403 0.648847 0.196328
H74   H     H_    0.289094 0.188969 0.700351 0.200639
C97   C     C_3   0.245756 0.818584 0.665358 -0.372553
C98   C     C_3   0.195244 0.801473 0.729662 -0.801722
H75   H     H_    0.151436 0.811858 0.698970 0.249426
H76   H     H_    0.197105 0.753444 0.746531 0.277104
H77   H     H_    0.199455 0.827220 0.793774 0.233800
H78   H     H_    0.288917 0.811046 0.700376 0.201514
H79   H     H_    0.242654 0.866608 0.648735 0.196854
C99   C     C_3   0.754559 0.181098 0.334975 -0.372576
C100  C     C_3   0.805177 0.198106 0.270803 -0.801722
H80   H     H_    0.803294 0.246091 0.253649 0.277109
H81   H     H_    0.848937 0.187848 0.301754 0.249430
H82   H     H_    0.801119 0.172196 0.206821 0.233790
H83   H     H_    0.757652 0.133108 0.351833 0.196844
H84   H     H_    0.711457 0.188549 0.299746 0.201530
C101  C     C_3   0.254098 0.318573 0.334578 -0.374511
C102  C     C_3   0.304556 0.301465 0.270188 -0.802332
H85   H     H_    0.348390 0.311847 0.300791 0.249198
H86   H     H_    0.302681 0.253437 0.253356 0.278214
H87   H     H_    0.300292 0.327215 0.206068 0.232915
H88   H     H_    0.210907 0.311032 0.299653 0.200658
H89   H     H_    0.257208 0.366598 0.351158 0.196293
C103  C     C_3   0.746345 0.681868 0.665872 -0.374542
C104  C     C_3   0.696057 0.699145 0.730467 -0.802277
H90   H     H_    0.697972 0.747219 0.746983 0.278214
H91   H     H_    0.652143 0.688676 0.700203 0.249211
H92   H     H_    0.700494 0.673569 0.794722 0.232914
H93   H     H_    0.743193 0.633799 0.649612 0.196316
H94   H     H_    0.789627 0.689504 0.700482 0.200653
C105  C     C_3   0.745440 0.318903 0.665025 -0.372537
C106  C     C_3   0.694823 0.301896 0.729198 -0.801621
H95   H     H_    0.651062 0.312153 0.698247 0.249397
H96   H     H_    0.696706 0.253911 0.746353 0.277162
H97   H     H_    0.698880 0.327806 0.793179 0.233819
H98   H     H_    0.788542 0.311453 0.700254 0.201603
H99   H     H_    0.742347 0.366893 0.648167 0.196844
C107  C     C_3   0.254244 0.681415 0.334643 -0.372514
C108  C     C_3   0.304755 0.698526 0.270337 -0.801618
H100  H     H_    0.302894 0.746555 0.253467 0.277156
H101  H     H_    0.348564 0.688141 0.301030 0.249392
H102  H     H_    0.300544 0.672778 0.206226 0.233828
H103  H     H_    0.257346 0.633391 0.351266 0.196855
H104  H     H_    0.211083 0.688953 0.299625 0.201587
N17   N     N_3   0.453186 0.107334 0.062188 -0.585798
H105  H     H_    0.445043 0.133489 0.004758 0.228449
H106  H     H_    0.486364 0.128817 0.099596 0.222604
N18   N     N_3   0.546814 0.892665 0.937812 -0.585826
H107  H     H_    0.554958 0.866510 0.995242 0.228443
H108  H     H_    0.513636 0.871182 0.900405 0.222594
N19   N     N_3   0.569695 0.094145 0.937754 -0.587385
H109  H     H_    0.588321 0.114244 0.995167 0.228375
H110  H     H_    0.604902 0.076187 0.900285 0.226453
N20   N     N_3   0.430305 0.905854 0.062245 -0.587408
H111  H     H_    0.411680 0.885755 0.004833 0.228369
H112  H     H_    0.395098 0.923812 0.099715 0.226445
N21   N     N_3   0.951242 0.606469 0.062188 -0.585750
H113  H     H_    0.942626 0.632473 0.004759 0.228438
H114  H     H_    0.984024 0.628550 0.099597 0.222644
N22   N     N_3   0.048758 0.393532 0.937812 -0.585722
H115  H     H_    0.057374 0.367528 0.995241 0.228443
H116  H     H_    0.015977 0.371451 0.900402 0.222655
N23   N     N_3   0.067973 0.595394 0.937754 -0.587511
H117  H     H_    0.086232 0.615827 0.995166 0.228368
H118  H     H_    0.103501 0.578077 0.900283 0.226463
N24   N     N_3   0.932027 0.404608 0.062246 -0.587489
H119  H     H_    0.913769 0.384175 0.004834 0.228374
H120  H     H_    0.896500 0.421924 0.099717 0.226472

loop_
_geom_bond_atom_site_label_1
_geom_bond_atom_site_label_2
_ccdc_geom_bond_type
C87   H53   S    
C85   H49   S    
C94   H66   S    
C77   H28   S    
N19   H110  S    
C9    C45   T    
N5    H1    S    
C2    O10   A    
Cu4   O13   S    
C33   C53   S    
C26   C72   S    
C105  H98   S    
Cu3   O14   S    
C11   C47   T    
Cu2   N1    S    
Cu4   O6    S    
C12   C48   T    
N14   H19   S    
C55   C99   S    
N6    H4    S    
C80   H30   S    
C70   N5    S    
C85   C86   S    
C13   C65   S    
Cu1   Cu2   S    
C22   N20   S    
N17   H105  S    
C95   H73   S    
N13   H17   S    
C31   C43   S    
C59   C107  S    
C9    C61   S    
C6    O14   A    
Cu3   O15   S    
C87   C88   S    
N21   H114  S    
C89   H58   S    
C104  H92   S    
C11   C63   S    
C99   H83   S    
C100  H81   S    
C42   C53   S    
N21   H113  S    
C12   C64   S    
C27   C75   S    
C69   N6    S    
C94   H67   S    
C37   N9    S    
C39   C60   S    
Cu2   O9    S    
C108  H100  S    
C106  H96   S    
C71   N8    S    
C30   C58   S    
Cu1   O10   S    
C97   H79   S    
C30   C79   S    
C106  H95   S    
C20   C76   S    
C29   C77   S    
C96   H70   S    
C2    O2    A    
C31   C59   S    
C91   H63   S    
C101  C102  S    
N8    H7    S    
C105  H99   S    
C92   H62   S    
C79   H34   S    
C40   C64   S    
N8    H8    S    
C59   C67   S    
C4    O4    A    
C4    O12   A    
C57   C103  S    
C53   C61   S    
C58   C66   S    
Cu1   O4    S    
Cu2   O12   S    
C95   C96   S    
C108  H101  S    
C55   C63   S    
C70   C74   S    
N7    H5    S    
C84   H41   S    
C5    C52   S    
C69   C73   S    
C16   C68   S    
C15   C51   T    
C6    C51   S    
C17   N1    T    
C36   C91   S    
C37   C58   S    
C90   H57   S    
C83   H44   S    
C8    O8    A    
Cu2   O2    S    
N11   H14   S    
C94   H65   S    
C77   H29   S    
Cu1   N2    S    
Cu1   O1    S    
N5    H2    S    
C54   C93   S    
C26   N24   S    
Cu4   O16   S    
C86   H46   S    
C96   H71   S    
C23   C70   S    
C10   C62   S    
C60   C105  S    
C23   C73   S    
Cu4   N3    S    
C19   N3    T    
C35   C89   S    
C34   C65   S    
N6    H3    S    
C80   H31   S    
C58   C101  S    
C90   H56   S    
C24   C69   S    
N7    H6    S    
C32   C83   S    
C4    C45   S    
C88   H51   S    
C1    O1    A    
C36   C67   S    
N17   H106  S    
C14   C50   T    
C3    O3    A    
C97   C98   S    
C41   N13   S    
C36   C40   S    
C7    C50   S    
C78   H25   S    
C100  H82   S    
C98   H75   S    
C17   C73   S    
C99   C100  S    
N22   H115  S    
C41   C65   S    
C54   C62   S    
C102  H87   S    
C97   H78   S    
C93   H69   S    
C35   C55   S    
C101  H88   S    
Cu1   O11   S    
C1    O9    A    
C107  H104  S    
C89   C90   S    
C21   C69   S    
C83   C84   S    
N20   H112  S    
C100  H80   S    
C10   C46   T    
C79   H33   S    
C36   C56   S    
N13   H18   S    
C21   N19   S    
C38   C57   S    
C31   C81   S    
C18   C74   S    
N18   H108  S    
C37   C61   S    
C84   H40   S    
C82   H37   S    
C24   N18   S    
C81   C82   S    
C108  H102  S    
C15   C67   S    
C33   C66   S    
C56   C64   S    
C107  C108  S    
C14   C66   S    
C84   H42   S    
C72   C76   S    
C81   H38   S    
C102  H86   S    
C44   N16   S    
C60   C68   S    
C103  H93   S    
C13   C49   T    
C7    O15   A    
C83   H43   S    
C91   C92   S    
C25   C71   S    
N22   H116  S    
C29   C57   S    
C34   C54   S    
C18   N2    T    
C21   C23   S    
C86   H45   S    
C78   H26   S    
C22   C24   S    
C44   C68   S    
C28   C71   S    
C32   C60   S    
C43   N15   S    
N12   H16   S    
N19   H109  S    
C28   C76   S    
Cu2   O3    S    
C81   H39   S    
C7    O7    A    
C80   H32   S    
C34   C87   S    
C90   H55   S    
C42   C66   S    
N9    H9    S    
C82   H36   S    
C88   H52   S    
C87   H54   S    
C85   H48   S    
C29   C62   S    
Cu3   O8    S    
C95   H74   S    
Cu3   N4    S    
C29   C41   S    
N10   H11   S    
C34   C38   S    
C53   C95   S    
C103  H94   S    
C31   C64   S    
C33   C85   S    
C16   C52   T    
C32   C63   S    
C57   C65   S    
C79   C80   S    
N15   H22   S    
C78   H27   S    
N14   H20   S    
N16   H24   S    
N11   H13   S    
C1    C48   S    
N16   H23   S    
C89   H59   S    
C42   N14   S    
C2    C47   S    
C25   C27   S    
C40   N12   S    
C77   C78   S    
C101  H89   S    
C3    C46   S    
C26   C28   S    
C107  H103  S    
C104  H90   S    
C106  H97   S    
C72   N7    S    
N23   H117  S    
C26   C75   S    
C25   C76   S    
Cu4   O7    S    
C20   N4    T    
N20   H111  S    
C8    O16   A    
C92   H60   S    
C104  H91   S    
C98   H76   S    
C28   N22   S    
N15   H21   S    
C71   C75   S    
N23   H118  S    
C44   C55   S    
C24   C74   S    
C25   N23   S    
C56   C97   S    
C35   C68   S    
C98   H77   S    
C39   N11   S    
C35   C39   S    
C21   C74   S    
C19   C75   S    
C96   H72   S    
C3    O11   A    
N10   H12   S    
C39   C63   S    
C5    O13   A    
N24   H120  S    
C91   H64   S    
C102  H85   S    
C33   C37   S    
C41   C54   S    
C92   H61   S    
C105  C106  S    
C103  C104  S    
Cu3   Cu4   S    
C43   C56   S    
C6    O6    A    
C82   H35   S    
C32   C44   S    
C86   H47   S    
C43   C67   S    
C93   C94   S    
C30   C61   S    
C23   N17   S    
C40   C59   S    
N24   H119  S    
C30   C42   S    
Cu3   O5    S    
C99   H84   S    
C22   C73   S    
C38   C62   S    
N12   H15   S    
C88   H50   S    
C8    C49   S    
C22   C70   S    
C5    O5    A    
C27   C72   S    
C93   H68   S    
C38   N10   S    
N18   H107  S    
N9    H10   S    
C27   N21   S    
