data_mof_unit_28603.cif
_audit_creation_date              2013-03-05T15:41:44-0500
_audit_creation_method            fapswitch 2.2
_symmetry_space_group_name_H-M    P1
_symmetry_Int_Tables_number       1
_space_group_crystal_system       triclinic
_cell_length_a                    6.94542
_cell_length_b                    13.622578
_cell_length_c                    20.487597
_cell_angle_alpha                 102.231532
_cell_angle_beta                  90.332686
_cell_angle_gamma                 90.260821
_cell_volume                      1894.35587386

loop_
_atom_site_label
_atom_site_type_symbol
_atom_site_description
_atom_site_fract_x
_atom_site_fract_y
_atom_site_fract_z
_atom_type_partial_charge
O1    O     O_R   0.506860 0.599390 0.449240 -0.557546
O2    O     O_R   0.180220 0.594600 0.586780 -0.553264
O3    O     O_R   0.004500 0.400610 0.550760 -0.561391
C1    C     C_R   0.349948 0.618945 0.612475 0.861283
O4    O     O_R   0.177490 0.611290 0.451970 -0.539969
O5    O     O_R   0.001750 0.417420 0.414990 -0.541036
C2    C     C_R   0.346050 0.638023 0.435304 0.985380
O6    O     O_R   0.509610 0.582580 0.585010 -0.517130
O7    O     O_3   0.337420 0.436370 0.488020 -0.276080
V1    V     V_3+5 0.064680 0.511800 0.502220 1.272296
O8    O     O_R   0.671710 0.405400 0.413220 -0.557100
C3    C     C_R   0.840407 0.383512 0.386859 0.852191
O9    O     O_R   0.674440 0.388710 0.548030 -0.551137
C4    C     C_R   0.843489 0.362048 0.564586 0.875357
V2    V     V_3+5 0.564010 0.488200 0.497780 1.260154
O10   O     O_3   0.841140 0.563630 0.511980 -0.255592
C5    C     C_R   0.895464 0.116110 0.615745 -0.006791
H1    H     H_    0.862086 0.163204 0.523163 0.104912
H2    H     H_    0.966330 0.995381 0.698395 0.105434
H3    H     H_    0.914932 0.038248 0.590934 0.127549
C6    C     C_R   0.852914 0.288664 0.607314 -0.134946
C7    C     C_R   0.785579 0.309639 0.928802 -0.095528
C8    C     C_R   0.732379 0.380168 0.892311 -0.048482
C9    C     C_R   0.752249 0.359112 0.823209 -0.027918
C10   C     C_R   0.837737 0.268756 0.788870 0.058714
C11   C     C_R   0.878984 0.193929 0.826096 0.013839
C12   C     C_R   0.865979 0.246501 0.717986 0.008504
C13   C     C_R   0.898300 0.144786 0.685557 0.053895
C14   C     C_R   0.934416 0.072139 0.722925 -0.075867
C15   C     C_R   0.931615 0.097006 0.792141 -0.088314
C16   C     C_R   0.863396 0.320208 0.677612 -0.059049
C17   C     C_R   0.865833 0.187058 0.577098 -0.084895
C18   C     C_R   0.854723 0.215924 0.896317 -0.089896
H4    H     H_    0.762549 0.326009 0.982289 0.065419
H5    H     H_    0.689048 0.412445 0.797527 0.083590
H6    H     H_    0.668429 0.450260 0.917463 0.074976
H7    H     H_    0.962689 0.038065 0.818674 0.074242
C19   C     C_2   0.000330 0.263624 0.292581 0.020010
C20   C     C_2   0.848024 0.321306 0.318152 -0.162411
H8    H     H_    0.726706 0.328329 0.285825 0.143300
C21   C     C_2   0.007358 0.214286 0.220139 -0.191001
C22   C     C_2   0.857808 0.162705 0.186326 0.180367
H9    H     H_    0.142794 0.217971 0.194551 0.153810
C23   C     C_2   0.208036 0.792308 0.781459 -0.047503
C24   C     C_2   0.361157 0.809600 0.822759 -0.167028
H10   H     H_    0.071981 0.828596 0.796983 0.095923
H11   H     H_    0.493544 0.768690 0.808646 0.062363
C25   C     C_2   0.212011 0.717526 0.716712 -0.093088
C26   C     C_2   0.363415 0.699902 0.674064 -0.143640
H12   H     H_    0.081033 0.673878 0.704045 0.134822
C27   C     C_R   0.387508 0.887969 0.385299 -0.088436
H13   H     H_    0.359941 0.013400 0.303412 0.136231
H14   H     H_    0.403797 0.966733 0.408893 0.135806
C28   C     C_R   0.354374 0.714600 0.394662 -0.236099
C29   C     C_R   0.384599 0.684661 0.071230 -0.096600
C30   C     C_R   0.405181 0.609485 0.107074 -0.062078
C31   C     C_R   0.397803 0.632437 0.176574 0.003216
C32   C     C_R   0.360361 0.731299 0.212295 0.079113
C33   C     C_R   0.351139 0.808935 0.175318 -0.012123
C34   C     C_R   0.349387 0.756979 0.283783 -0.012463
C35   C     C_R   0.364949 0.859836 0.315949 -0.044387
C36   C     C_R   0.356747 0.934677 0.278788 0.002475
C37   C     C_R   0.343042 0.909713 0.209710 -0.058169
C38   C     C_R   0.324544 0.685299 0.324788 0.249585
C39   C     C_R   0.388981 0.816301 0.424976 0.277052
C40   C     C_R   0.360616 0.784404 0.104610 -0.090400
H15   H     H_    0.395309 0.665611 0.017267 0.058991
H16   H     H_    0.432692 0.572341 0.201198 0.137095
H17   H     H_    0.432829 0.533154 0.080896 0.081257
H18   H     H_    0.334840 0.970530 0.183361 0.119429
O11   O     O_R   0.203230 0.917310 0.915020 -0.568368
O12   O     O_R   0.535500 0.888690 0.048040 -0.558995
O13   O     O_R   0.711080 0.082610 0.085000 -0.515232
C41   C     C_R   0.367081 0.862250 0.064977 0.820812
O14   O     O_R   0.532630 0.905370 0.913230 -0.566875
O15   O     O_R   0.708190 0.099410 0.949230 -0.560282
C42   C     C_R   0.363853 0.882827 0.887160 0.837116
O16   O     O_R   0.206120 0.900510 0.050790 -0.562914
O17   O     O_3   0.375360 0.063570 0.011990 -0.259605
V3    V     V_3+5 0.648170 0.988200 0.997780 1.175950
O18   O     O_R   0.038240 0.111390 0.951940 -0.563476
C43   C     C_R   0.868910 0.137823 0.935298 0.815911
O19   O     O_R   0.041120 0.094710 0.086750 -0.573631
C44   C     C_R   0.872505 0.112273 0.114592 0.786855
V4    V     V_3+5 0.148810 0.011930 0.002180 1.163011
O20   O     O_3   0.871750 0.936430 0.988010 -0.282930
N1    N     N_R   0.686354 0.144600 0.221295 0.080700
O21   O     O_R   0.517464 0.152329 0.195136 -0.354562
O22   O     O_R   0.699848 0.106271 0.274172 -0.399770
C45   C     C_2   0.533934 0.768452 0.681738 0.901222
O23   O     O_2   0.694273 0.734997 0.666372 -0.601399
O24   O     O_R   0.509639 0.871967 0.704211 -0.725217
H19   H     H_    0.635486 0.910582 0.706898 0.310434
N2    N     N_R   0.417507 0.848994 0.496017 0.088863
O25   O     O_R   0.321673 0.807879 0.537707 -0.390171
O26   O     O_R   0.522910 0.927959 0.519525 -0.353951
N3    N     N_R   0.243053 0.587668 0.297947 0.058471
O27   O     O_R   0.325577 0.506742 0.308440 -0.374944
O28   O     O_R   0.082532 0.579819 0.264107 -0.373983
C46   C     C_2   0.899660 0.428402 0.706238 0.813802
O29   O     O_2   0.036574 0.453709 0.743964 -0.614032
O30   O     O_R   0.775563 0.500868 0.690800 -0.745847
H20   H     H_    0.809706 0.571201 0.715828 0.317785
C47   C     C_2   0.164462 0.245757 0.335022 0.923484
O31   O     O_2   0.134944 0.221790 0.388394 -0.622479
O32   O     O_R   0.352621 0.254838 0.313575 -0.680034
H21   H     H_    0.451424 0.240698 0.346956 0.333057

loop_
_geom_bond_atom_site_label_1
_geom_bond_atom_site_label_2
_geom_bond_distance
_ccdc_geom_bond_type
C29   C30   1.388254 A    
C21   C22   1.353242 D    
C27   C35   1.398668 A    
O11   C42   1.299829 A    
C26   C45   1.491624 S    
C1    O6    1.298406 A    
C47   O32   1.394432 S    
O18   C43   1.296252 A    
C31   C32   1.415886 A    
C28   C39   1.411935 A    
V4    O20   2.166565 S    
C6    C16   1.414398 A    
C36   C37   1.386298 A    
C4    C6    1.463113 S    
C13   C14   1.396224 A    
C33   C40   1.417995 A    
O5    C3    1.294699 A    
C19   C20   1.360321 D    
O32   H21   1.013560 S    
C32   C34   1.434489 A    
V2    O10   2.166591 S    
C40   C41   1.466550 S    
C5    H3    1.084144 S    
C30   C31   1.392898 A    
C27   C39   1.396550 A    
O24   H19   1.013260 S    
C19   C47   1.481729 S    
O11   V4    2.007488 S    
O8    V2    2.006954 S    
V3    O20   1.703690 S    
C8    C9    1.391468 A    
O1    V2    2.019895 S    
O14   V3    2.016227 S    
O13   C44   1.293074 A    
C35   C36   1.396869 A    
C25   H12   1.084153 S    
O9    C4    1.294983 A    
C21   H9    1.085652 S    
O30   H20   1.012667 S    
C47   O31   1.223733 D    
N3    O28   1.301383 A    
C23   H10   1.086087 S    
N3    O27   1.301847 A    
C24   H11   1.085869 S    
C7    H4    1.083945 S    
C6    C17   1.394927 A    
C9    H5    1.076838 S    
C12   C16   1.429897 A    
C22   C44   1.488898 S    
C9    C10   1.416731 A    
C19   C21   1.495089 S    
O12   C41   1.293163 A    
O15   C43   1.289587 A    
C20   H8    1.085762 S    
O4    C2    1.293544 A    
C10   C11   1.425607 A    
C15   H7    1.082551 S    
C34   C35   1.419780 A    
C27   H14   1.084531 S    
O2    C1    1.300775 A    
C14   C15   1.386692 A    
C11   C18   1.417225 A    
C45   O24   1.398906 S    
O19   C44   1.306363 A    
C37   H18   1.081958 S    
C46   O30   1.397973 S    
C16   C46   1.486054 S    
N2    O26   1.301637 A    
O14   C42   1.293701 A    
O3    C4    1.291566 A    
O16   V4    2.023725 S    
C39   N2    1.441219 S    
O19   V4    2.006975 S    
C11   C15   1.406776 A    
O6    V2    2.007059 S    
O9    V2    2.019038 S    
H1    C17   1.083852 S    
C31   H16   1.076486 S    
O2    V1    2.016225 S    
O17   V4    1.713902 S    
C29   C40   1.396902 A    
C23   C24   1.343608 D    
O7    V1    2.150885 S    
C7    C18   1.397373 A    
C38   N3    1.439183 S    
O1    C2    1.292777 A    
C5    C13   1.400562 A    
O15   V3    2.023821 S    
O5    V1    2.012491 S    
C29   H15   1.083838 S    
O8    C3    1.302184 A    
C8    H6    1.082849 S    
C10   C12   1.434099 A    
C33   C37   1.405586 A    
C1    C26   1.491723 S    
C34   C38   1.427145 A    
C3    C20   1.482634 S    
N1    O22   1.301527 A    
C32   C33   1.426912 A    
O4    V1    2.025231 S    
O12   V3    2.025198 S    
O3    V1    2.023684 S    
V1    O10   1.703750 S    
C45   O23   1.222642 D    
C28   C38   1.416075 A    
C25   C26   1.360491 D    
C46   O29   1.223146 D    
O13   V3    2.012492 S    
O7    V2    1.715121 S    
N2    O25   1.300846 A    
C18   C43   1.462714 S    
O17   V3    2.150952 S    
N1    O21   1.300764 A    
C30   H17   1.082807 S    
C41   O16   1.292919 A    
C12   C13   1.423464 A    
C5    C17   1.388359 A    
C7    C8    1.386707 A    
H13   C36   1.084200 S    
C22   N1    1.440237 S    
C2    C28   1.467284 S    
C24   C42   1.475847 S    
O18   V4    2.018955 S    
C23   C25   1.492079 S    
H2    C14   1.084350 S    
