data_mof_unit_25397.cif
_audit_creation_date              2012-10-26T18:44:10-0400
_audit_creation_method            fapswitch 2.2
_symmetry_space_group_name_H-M    P1
_symmetry_Int_Tables_number       1
_space_group_crystal_system       triclinic
_cell_length_a                    19.385663
_cell_length_b                    9.082955
_cell_length_c                    7.771048
_cell_angle_alpha                 90.011362
_cell_angle_beta                  89.999597
_cell_angle_gamma                 89.979675
_cell_volume                      1368.31906119

loop_
_atom_site_label
_atom_site_type_symbol
_atom_type_description
_atom_site_fract_x
_atom_site_fract_y
_atom_site_fract_z
_atom_type_partial_charge
C1    C     C_R   0.499990 0.219990 0.499994 0.593100
C2    C     C_R   0.253255 0.590844 0.383329 0.219947
C3    C     C_R   0.181365 0.412893 0.617871 -0.084043
C4    C     C_R   0.818736 0.413474 0.381681 -0.080742
C5    C     C_R   0.818800 0.585308 0.618489 -0.080675
C6    C     C_R   0.181178 0.585552 0.381934 -0.081380
C7    C     C_R   0.145289 0.499076 0.499911 -0.048186
C8    C     C_R   0.854746 0.499261 0.500122 -0.051919
C9    C     C_R   0.290608 0.499751 0.499959 -0.006355
C10   C     C_R   0.709415 0.499753 0.499989 0.003677
C11   C     C_R   0.930268 0.499065 0.500094 0.352389
C12   C     C_R   0.499977 0.780010 0.500012 0.596999
C13   C     C_R   0.069768 0.498891 0.499985 0.350738
C14   C     C_R   0.366929 0.500008 0.499991 0.604052
C15   C     C_R   0.633079 0.499940 0.499996 0.616994
C16   C     C_1   0.499936 0.065367 0.500018 0.015745
C17   C     C_1   0.499942 0.934634 0.500030 0.010462
C18   C     C_R   0.253443 0.408306 0.616504 0.162448
C19   C     C_R   0.746652 0.408707 0.382988 0.214383
C20   C     C_R   0.746720 0.590567 0.617033 0.214360
Cu1   Cu    Cu3+1 0.500000 0.500000 0.669080 1.227500
Cu2   Cu    Cu3+1 0.500000 0.500000 0.330920 1.203913
H1    H     H_    0.152775 0.344925 0.707407 0.194060
H2    H     H_    0.847412 0.345921 0.291824 0.194383
H3    H     H_    0.847525 0.652696 0.708375 0.194415
H4    H     H_    0.152411 0.653214 0.292402 0.193131
H5    H     H_    0.327487 0.137537 0.546961 0.349433
H6    H     H_    0.629624 0.108706 0.273748 0.373001
H7    H     H_    0.629786 0.890987 0.726069 0.373771
H8    H     H_    0.369593 0.892466 0.275903 0.368710
N1    N     N_1   0.500000 0.500000 0.076820 -0.026175
N2    N     N_1   0.500000 0.500000 0.923180 -0.025248
N3    N     N_R   0.034308 0.499731 0.349485 -0.185273
N4    N     N_R   0.965727 0.499214 0.650603 -0.183803
N5    N     N_R   0.965691 0.498796 0.349536 -0.183727
N6    N     N_R   0.034346 0.498119 0.650546 -0.183463
O1    O     O_R   0.500000 0.288390 0.642760 -0.472988
O2    O     O_2   0.242070 0.173348 0.828685 -0.229471
O3    O     O_3   0.353177 0.182023 0.644110 -0.509682
O4    O     O_2   0.670528 0.358879 0.100117 -0.221235
O5    O     O_2   0.758654 0.175515 0.169485 -0.232065
O6    O     O_3   0.648159 0.181404 0.356766 -0.525394
O7    O     O_2   0.670682 0.640958 0.899918 -0.221970
O8    O     O_2   0.758879 0.823937 0.830171 -0.231877
O9    O     O_3   0.648331 0.818260 0.643065 -0.525504
O10   O     O_2   0.329314 0.641909 0.100703 -0.215757
O11   O     O_2   0.240989 0.824637 0.170972 -0.236977
O12   O     O_R   0.500000 0.711610 0.357240 -0.495623
O13   O     O_3   0.351510 0.818683 0.358198 -0.535571
O14   O     O_R   0.500000 0.711610 0.642760 -0.490152
O15   O     O_R   0.500000 0.288390 0.357240 -0.504834
O16   O     O_R   0.400140 0.500000 0.642830 -0.448958
O17   O     O_R   0.599860 0.500000 0.357170 -0.456170
O18   O     O_R   0.599860 0.500000 0.642830 -0.459068
O19   O     O_R   0.400140 0.500000 0.357170 -0.461320
O20   O     O_2   0.328899 0.358092 0.899975 -0.189213
S1    S     S_3+6 0.294004 0.278612 0.754504 0.067610
S2    S     S_3+6 0.706208 0.279355 0.244425 0.064133
S3    S     S_3+6 0.706365 0.720216 0.755454 0.063800
S4    S     S_3+6 0.293555 0.720824 0.245391 0.061666

loop_
_geom_bond_atom_site_label_1
_geom_bond_atom_site_label_2
_ccdc_geom_bond_type
C12   C17   S    
O5    S2    D    
C5    C8    A    
C12   O14   A    
C9    C14   S    
C13   N3    A    
C6    C7    A    
C1    O1    A    
O2    S1    D    
C18   S1    S    
C3    H1    S    
N1    N2    T    
C4    C19   A    
O7    S3    D    
C10   C19   A    
C4    C8    A    
O6    S2    S    
C11   N5    A    
C14   O19   A    
C6    H4    S    
C1    C16   S    
C2    C6    A    
Cu1   Cu2   S    
C20   S3    S    
C1    O15   A    
Cu2   O19   S    
O13   S4    S    
C13   N6    A    
C8    C11   S    
C5    H3    S    
C15   O17   A    
H6    O6    S    
Cu1   O14   S    
N3    N5    A    
C12   O12   A    
Cu2   O12   S    
Cu2   O17   S    
C3    C7    A    
C10   C15   S    
C11   N4    A    
C19   S2    S    
Cu1   O18   S    
C4    H2    S    
Cu1   N2    S    
C2    S4    S    
O4    S2    D    
Cu2   N1    S    
O8    S3    D    
H5    O3    S    
O3    S1    S    
C15   O18   A    
C9    C18   A    
C7    C13   S    
Cu1   O1    S    
O20   S1    D    
N4    N6    A    
C3    C18   A    
C10   C20   A    
C5    C20   A    
O9    S3    S    
O10   S4    D    
O11   S4    D    
C2    C9    A    
H8    O13   S    
Cu1   O16   S    
C14   O16   A    
C16   C17   T    
H7    O9    S    
Cu2   O15   S    
