data_mof_unit_33208.cif
_audit_creation_date              2012-12-10T17:28:33-0500
_audit_creation_method            fapswitch 2.2
_symmetry_space_group_name_H-M    P1
_symmetry_Int_Tables_number       1
_space_group_crystal_system       triclinic
_cell_length_a                    10.699398
_cell_length_b                    11.95695
_cell_length_c                    12.868285
_cell_angle_alpha                 93.038265
_cell_angle_beta                  89.087982
_cell_angle_gamma                 84.664457
_cell_volume                      1636.47082222

loop_
_atom_site_label
_atom_site_type_symbol
_atom_type_description
_atom_site_fract_x
_atom_site_fract_y
_atom_site_fract_z
_atom_type_partial_charge
C1    C     C_R   0.504229 0.521524 0.700323 0.898222
C2    C     C_R   0.503886 0.478000 0.299387 0.884273
C3    C     C_R   0.512136 0.464283 0.188090 -0.056592
C4    C     C_R   0.517264 0.532767 0.811057 -0.077640
C5    C     C_R   0.544687 0.644710 0.968343 -0.212054
C6    C     C_R   0.502322 0.349423 0.030040 -0.218397
C7    C     C_R   0.537255 0.636343 0.860890 -0.206042
C8    C     C_R   0.500092 0.359350 0.137560 -0.190834
C9    C     C_R   0.509493 0.436908 0.867346 -0.301570
C10   C     C_R   0.531089 0.558334 0.131971 -0.276929
C11   C     C_R   0.515799 0.444572 0.973856 0.184784
C12   C     C_R   0.531867 0.549561 0.024942 0.180187
C13   C     C_R   0.423245 0.953256 0.377974 0.473951
C14   C     C_R   0.567643 0.047962 0.624895 0.481085
C15   C     C_R   0.428298 0.836192 0.392902 -0.105631
C16   C     C_R   0.567460 0.163972 0.608535 -0.011226
C17   C     C_R   0.522143 0.859812 0.557005 0.029652
C18   C     C_R   0.475752 0.140614 0.443604 -0.016620
C19   C     C_R   0.522292 0.976834 0.546116 -0.088517
C20   C     C_R   0.474002 0.023572 0.454813 -0.081805
C21   C     C_R   0.738137 0.500213 0.515922 0.889644
C22   C     C_R   0.258856 0.501551 0.502400 0.926513
C23   C     C_R   0.911243 0.285473 0.533343 0.532204
C24   C     C_R   0.108586 0.683267 0.630995 0.492963
C25   C     C_R   0.974299 0.195059 0.474143 0.268603
C26   C     C_R   0.034560 0.782447 0.663219 0.267408
C27   C     C_R   0.077589 0.212970 0.412070 -0.277201
C28   C     C_R   0.904890 0.786689 0.657510 -0.214717
C29   C     C_R   0.125535 0.317554 0.417787 -0.196842
C30   C     C_R   0.849128 0.692001 0.621646 -0.228796
C31   C     C_R   0.066886 0.406962 0.483342 0.012433
C32   C     C_R   0.922498 0.596150 0.577112 0.027547
C33   C     C_R   0.947555 0.396183 0.522386 -0.105249
C34   C     C_R   0.054094 0.595216 0.573732 -0.092462
C35   C     C_R   0.124513 0.504223 0.516028 -0.154056
C36   C     C_R   0.869325 0.497018 0.543786 -0.159911
H1    H     H_    0.846930 0.860157 0.688836 0.236765
H2    H     H_    0.124895 0.144553 0.363870 0.196210
H3    H     H_    0.208650 0.327189 0.371359 0.171679
H4    H     H_    0.749094 0.693826 0.634194 0.176867
H5    H     H_    0.542631 0.639141 0.171322 0.163621
H6    H     H_    0.494755 0.356391 0.828831 0.152319
H7    H     H_    0.486425 0.286023 0.180878 0.172594
H8    H     H_    0.545230 0.710439 0.817185 0.175469
H9    H     H_    0.557756 0.725367 0.007123 0.151443
H10   H     H_    0.490597 0.268567 0.991031 0.138098
H11   H     H_    0.437143 0.179079 0.375435 0.174481
H12   H     H_    0.559287 0.821943 0.625887 0.161637
H13   H     H_    0.601781 0.219752 0.667729 0.166250
H14   H     H_    0.395690 0.779358 0.333561 0.143216
N1    N     N_R   0.523130 0.207800 0.519340 -0.129668
N2    N     N_R   0.476870 0.792200 0.480660 -0.124582
O1    O     O_R   0.506170 0.421700 0.658830 -0.642090
O2    O     O_R   0.493830 0.578300 0.341170 -0.634538
O3    O     O_R   0.491330 0.609310 0.646410 -0.598187
O4    O     O_R   0.508670 0.390690 0.353590 -0.633890
O5    O     O_R   0.690650 0.406190 0.506220 -0.565234
O6    O     O_R   0.309350 0.593810 0.493780 -0.569187
O7    O     O_R   0.675800 0.593810 0.493800 -0.624661
O8    O     O_R   0.324200 0.406190 0.506200 -0.630830
Zn1   Zn    Zn3+2 0.509910 0.374730 0.508290 0.975194
Zn2   Zn    Zn3+2 0.490090 0.625270 0.491710 0.986546
O9    O     O_3   0.379470 0.000224 0.287051 -0.629123
C37   C     C_3   0.272054 0.951949 0.249929 -0.338106
H15   H     H_    0.205225 0.936860 0.313894 0.182129
H16   H     H_    0.299729 0.873115 0.202252 0.174099
H17   H     H_    0.221614 0.011489 0.198251 0.204161
O10   O     O_3   0.618086 0.001499 0.713497 -0.618374
C38   C     C_3   0.564660 0.059250 0.804482 -0.336499
H18   H     H_    0.461470 0.080781 0.798591 0.166473
H19   H     H_    0.612738 0.135890 0.823655 0.157446
H20   H     H_    0.579269 0.003559 0.870331 0.206590
O11   O     O_3   0.820183 0.262488 0.604774 -0.580820
C39   C     C_3   0.857790 0.292246 0.706437 -0.272722
H21   H     H_    0.846413 0.384924 0.722075 0.147258
H22   H     H_    0.956082 0.258043 0.720897 0.175505
H23   H     H_    0.796156 0.255500 0.762971 0.185357
O12   O     O_3   0.224894 0.665114 0.674988 -0.564937
C40   C     C_3   0.210644 0.606639 0.766690 -0.280399
H24   H     H_    0.117701 0.626396 0.807542 0.144097
H25   H     H_    0.226831 0.514547 0.748334 0.152681
H26   H     H_    0.281061 0.631664 0.823165 0.207021
Br1   Br    Br    0.921364 0.046702 0.478634 -0.474334
Br2   Br    Br    0.108695 0.906614 0.729576 -0.473402

loop_
_geom_bond_atom_site_label_1
_geom_bond_atom_site_label_2
_ccdc_geom_bond_type
O6    Zn2   S    
C27   C29   A    
O11   C39   S    
C19   C20   A    
N1    Zn1   S    
C17   H12   S    
C18   H11   S    
C21   C36   S    
C22   C35   S    
C9    H6    S    
C39   H22   S    
C32   C36   A    
C24   C26   A    
C21   O7    A    
C22   O8    A    
C27   H2    S    
O3    Zn2   S    
C33   C36   A    
C34   C35   A    
C15   H14   S    
C38   H19   S    
C1    O1    A    
O1    Zn1   S    
O10   C38   S    
C23   C33   A    
C39   H23   S    
C16   N1    A    
C10   H5    S    
C23   O11   S    
C4    C7    A    
C17   N2    A    
C18   N1    A    
C39   H21   S    
C37   H17   S    
C16   H13   S    
C5    C12   A    
C3    C8    A    
C2    O2    A    
C6    C11   A    
C40   H25   S    
O12   C40   S    
C6    C8    A    
O2    Zn2   S    
C15   N2    A    
C5    H9    S    
C24   C34   A    
C40   H24   S    
O8    Zn1   S    
C32   C34   A    
C38   H20   S    
C21   O5    A    
C13   O9    S    
C29   H3    S    
C31   C33   A    
C30   H4    S    
C7    H8    S    
C9    C11   A    
C10   C12   A    
C24   O12   S    
C13   C15   A    
C14   C16   A    
C5    C7    A    
O7    Zn2   S    
C26   Br2   S    
C6    H10   S    
C13   C20   A    
C14   C19   A    
C22   O6    A    
C40   H26   S    
C11   C12   A    
O5    Zn1   S    
C25   C27   A    
C26   C28   A    
C1    C4    S    
C37   H15   S    
C28   C30   A    
C2    C3    S    
C1    O3    A    
C29   C31   A    
C3    C10   A    
N2    Zn2   S    
C30   C32   A    
C28   H1    S    
C31   C35   A    
C17   C19   A    
C18   C20   A    
C23   C25   A    
C38   H18   S    
O9    C37   S    
C8    H7    S    
C25   Br1   S    
C14   O10   S    
O4    Zn1   S    
C2    O4    A    
C4    C9    A    
C37   H16   S    
