data_mof_unit_21950.cif
_audit_creation_date              2012-12-10T17:17:25-0500
_audit_creation_method            fapswitch 2.2
_symmetry_space_group_name_H-M    P1
_symmetry_Int_Tables_number       1
_space_group_crystal_system       triclinic
_cell_length_a                    10.255155
_cell_length_b                    10.468107
_cell_length_c                    12.726847
_cell_angle_alpha                 92.255909
_cell_angle_beta                  111.315036
_cell_angle_gamma                 94.920362
_cell_volume                      1264.43788508

loop_
_atom_site_label
_atom_site_type_symbol
_atom_type_description
_atom_site_fract_x
_atom_site_fract_y
_atom_site_fract_z
_atom_type_partial_charge
C1    C     C_R   0.052649 0.734621 0.496974 0.806771
C2    C     C_R   0.435571 0.531002 0.992257 0.053245
C3    C     C_R   0.366334 0.553772 0.878597 -0.217150
C4    C     C_R   0.570270 0.485910 0.022983 -0.050926
C5    C     C_R   0.637437 0.477788 0.943074 -0.169432
C6    C     C_R   0.576398 0.528829 0.838714 0.456475
C7    C     C_R   0.447882 0.579374 0.812813 0.210795
C8    C     C_R   0.637568 0.440462 0.128104 0.494317
C9    C     C_R   0.846554 0.416228 0.087830 0.166342
C10   C     C_R   0.219470 0.556000 0.835464 -0.117257
C11   C     C_2   0.086783 0.873787 0.507226 0.276038
C12   C     C_R   0.138415 0.523037 0.713077 0.926926
C13   C     C_2   0.068942 0.943020 0.591606 0.247478
C14   C     C_2   0.943370 0.132335 0.538061 0.121326
C15   C     C_2   0.064973 0.080515 0.586119 -0.136824
C16   C     C_2   0.421326 0.530230 0.463967 0.205364
C17   C     C_2   0.567208 0.491435 0.476769 0.618691
C18   C     C_R   0.953055 0.266080 0.511925 0.837055
C19   C     C_R   0.862163 0.474362 0.288049 0.914158
C20   C     C_R   0.766765 0.423225 0.972814 0.318450
C21   C     C_R   0.783437 0.442180 0.167213 -0.352383
C22   C     C_R   0.151797 0.582381 0.911521 0.489023
C23   C     C_R   0.230233 0.591310 0.028139 -0.340766
C24   C     C_R   0.371067 0.563842 0.069824 0.543657
H1    H     H_    0.181291 0.619056 0.086785 0.170887
H2    H     H_    0.166017 0.138391 0.610767 0.193232
N1    N     N_2   0.313640 0.446500 0.454900 -0.028175
N2    N     N_2   0.686360 0.553430 0.545150 0.058583
O1    O     O_R   0.936910 0.692950 0.509080 -0.602073
O2    O     O_R   0.138320 0.658600 0.480130 -0.558060
O3    O     O_R   0.002900 0.525670 0.675280 -0.530736
O4    O     O_R   0.204310 0.491320 0.646330 -0.611529
O5    O     O_R   0.861680 0.341400 0.519870 -0.537822
O6    O     O_R   0.063090 0.307050 0.490920 -0.581669
O7    O     O_R   0.795690 0.508680 0.353670 -0.551289
O8    O     O_R   0.997100 0.474330 0.324720 -0.561231
Zn1   Zn    Zn3+2 0.865520 0.522940 0.519330 1.140079
Zn2   Zn    Zn3+2 0.134480 0.477060 0.480670 1.085519
Br1   Br    Br    0.032415 0.359857 0.131303 -0.379720
Br2   Br    Br    0.049489 0.870977 0.722707 -0.382492
Br3   Br    Br    0.761734 0.035797 0.497824 -0.278239
O9    O     O_3   0.121923 0.935417 0.425480 -0.693716
H3    H     H_    0.122365 0.869216 0.367720 0.362203
O10   O     O_3   0.576014 0.387628 0.410761 -0.707276
H4    H     H_    0.481854 0.363860 0.351112 0.368501
Br4   Br    Br    0.392024 0.706014 0.433758 -0.317949
O11   O     O_3   0.678870 0.668259 0.591903 -0.605115
H5    H     H_    0.777730 0.706508 0.627994 0.420758
Br5   Br    Br    0.355232 0.278477 0.496479 -0.301112
O12   O     O_3   0.646739 0.537877 0.765990 -0.652083
H6    H     H_    0.572872 0.523821 0.689595 0.353574
Br6   Br    Br    0.828143 0.345668 0.860444 -0.285402
O13   O     O_3   0.559554 0.378096 0.182758 -0.680297
H7    H     H_    0.618802 0.318708 0.233545 0.363171
O14   O     O_3   0.012424 0.606398 0.870947 -0.651840
H8    H     H_    0.983456 0.627126 0.935461 0.359341
O15   O     O_3   0.450084 0.583653 0.184035 -0.690410
H9    H     H_    0.386957 0.600055 0.225024 0.352894
Br7   Br    Br    0.411794 0.720717 0.717225 -0.341881

loop_
_geom_bond_atom_site_label_1
_geom_bond_atom_site_label_2
_ccdc_geom_bond_type
C8    O13   S    
C2    C4    A    
C23   C24   A    
N2    O11   S    
C6    C7    A    
O4    Zn2   S    
C18   O6    A    
C14   C18   S    
C9    C20   A    
O11   H5    S    
C1    C11   S    
C4    C8    A    
C16   N1    D    
O8    Zn2   S    
O12   H6    S    
C17   O10   S    
C20   Br6   S    
C3    C10   A    
C19   O7    A    
O13   H7    S    
C12   O4    A    
C11   C13   D    
C9    C21   A    
O15   H9    S    
C22   O14   S    
C10   C12   S    
N2    Zn1   S    
C14   Br3   S    
C7    Br7   S    
C1    O2    A    
C19   C21   S    
C2    C3    A    
C3    C7    A    
C19   O8    A    
C13   C15   S    
C12   O3    A    
C2    C24   A    
C5    C6    A    
C18   O5    A    
O5    Zn1   S    
O14   H8    S    
C16   C17   S    
O9    H3    S    
C1    O1    A    
N1    Zn2   S    
O1    Zn1   S    
O3    Zn1   S    
C9    Br1   S    
C23   H1    S    
O10   H4    S    
O2    Zn2   S    
C11   O9    S    
C16   Br4   S    
C5    C20   A    
C14   C15   D    
C24   O15   S    
C15   H2    S    
C6    O12   S    
O7    Zn1   S    
O6    Zn2   S    
C22   C23   A    
C17   N2    D    
C10   C22   A    
N1    Br5   S    
C4    C5    A    
C13   Br2   S    
C8    C21   A    
