data_mof_unit_14397.cif
_audit_creation_date              2012-10-26T20:22:29-0400
_audit_creation_method            fapswitch 2.2
_symmetry_space_group_name_H-M    P1
_symmetry_Int_Tables_number       1
_space_group_crystal_system       triclinic
_cell_length_a                    9.557007
_cell_length_b                    10.820961
_cell_length_c                    17.348508
_cell_angle_alpha                 91.599445
_cell_angle_beta                  84.648688
_cell_angle_gamma                 89.331455
_cell_volume                      1785.41424857

loop_
_atom_site_label
_atom_site_type_symbol
_atom_type_description
_atom_site_fract_x
_atom_site_fract_y
_atom_site_fract_z
_atom_type_partial_charge
C1    C     C_R   0.499703 0.737773 0.499410 0.541475
C2    C     C_R   0.083988 0.416859 0.455019 0.018792
C3    C     C_R   0.063832 0.585647 0.543542 0.308510
C4    C     C_R   0.935973 0.417630 0.453986 0.341643
C5    C     C_R   0.480298 0.498456 0.650201 0.562691
C6    C     C_R   0.520008 0.499320 0.350335 0.547064
C7    C     C_R   0.470715 0.492260 0.735206 0.014783
C8    C     C_R   0.535136 0.494185 0.266107 0.024445
C9    C     C_R   0.589361 0.526006 0.772471 -0.169113
C10   C     C_R   0.443304 0.419915 0.227697 -0.166123
C11   C     C_R   0.591453 0.514044 0.851682 -0.122264
C12   C     C_R   0.500604 0.262164 0.499191 0.558937
C13   C     C_R   0.460561 0.405781 0.147727 -0.123182
C14   C     C_R   0.476219 0.463941 0.895389 -0.002352
C15   C     C_R   0.568855 0.467497 0.104924 -0.008544
C16   C     C_R   0.357982 0.429101 0.858788 -0.088796
C17   C     C_R   0.662106 0.540713 0.143199 -0.080205
C18   C     C_R   0.351196 0.447758 0.779871 0.262917
C19   C     C_R   0.644215 0.557331 0.223572 0.280932
C20   C     C_2   0.470134 0.455384 0.980049 -0.125792
C21   C     C_2   0.583575 0.460575 0.020018 -0.127357
C22   C     C_3   0.675515 0.741085 0.289844 0.023908
C23   C     C_R   0.626080 0.934844 0.503682 -0.152018
C24   C     C_3   0.712166 0.846316 0.234796 -0.283465
C25   C     C_3   0.655438 0.970238 0.269594 -0.458606
C26   C     C_3   0.141596 0.523785 0.747568 0.046984
C27   C     C_3   0.045586 0.541199 0.823157 -0.299755
C28   C     C_3   0.957915 0.659892 0.822263 -0.467817
C29   C     C_R   0.375516 0.064898 0.490860 -0.131829
C30   C     C_R   0.626645 0.062629 0.503567 -0.123316
C31   C     C_R   0.374997 0.937101 0.490885 -0.114734
C32   C     C_R   0.501173 0.128186 0.497764 0.022916
C33   C     C_R   0.500004 0.871609 0.497988 0.012574
C34   C     C_R   0.915816 0.583660 0.544459 0.000409
Cl1   Cl    Cl    0.133732 0.705177 0.597816 -0.673427
Cl2   Cl    Cl    0.864679 0.312320 0.390079 -0.604812
Cu1   Cu    Cu3+1 0.359340 0.499980 0.500000 1.024465
Cu2   Cu    Cu3+1 0.640660 0.500020 0.500000 1.026854
H1    H     H_    0.681115 0.562949 0.740213 0.131407
H2    H     H_    0.277511 0.113860 0.485580 0.142605
H3    H     H_    0.724847 0.109781 0.508672 0.170790
H4    H     H_    0.276944 0.889948 0.485423 0.179252
H5    H     H_    0.852047 0.650824 0.579835 0.141907
H6    H     H_    0.147717 0.350751 0.418790 0.138381
H7    H     H_    0.718456 0.762696 0.345951 0.173631
H8    H     H_    0.558997 0.736765 0.302438 0.102337
H9    H     H_    0.828228 0.851445 0.222839 0.184214
H10   H     H_    0.666267 0.827677 0.179151 0.156874
H11   H     H_    0.539309 0.967529 0.281722 0.150407
H12   H     H_    0.360375 0.370008 0.259819 0.135900
H13   H     H_    0.682187 0.044594 0.228134 0.170031
H14   H     H_    0.703015 0.992318 0.324283 0.178897
H15   H     H_    0.073156 0.510526 0.699853 0.191407
H16   H     H_    0.202659 0.609652 0.735908 0.181918
H17   H     H_    0.974801 0.460800 0.830744 0.170693
H18   H     H_    0.108722 0.548465 0.873470 0.153968
H19   H     H_    0.027560 0.741293 0.816913 0.176847
H20   H     H_    0.888960 0.670902 0.877201 0.137159
H21   H     H_    0.891978 0.657177 0.772909 0.158676
H22   H     H_    0.688392 0.468560 0.991031 0.115755
H23   H     H_    0.366213 0.449613 0.010841 0.117844
H24   H     H_    0.268739 0.389550 0.892072 0.114604
H25   H     H_    0.746461 0.588022 0.110476 0.115838
H26   H     H_    0.390182 0.345247 0.119695 0.123428
H27   H     H_    0.682843 0.545935 0.877942 0.112012
H28   H     H_    0.724159 0.885908 0.508796 0.142854
N1    N     N_R   0.147930 0.499970 0.499980 -0.241786
N2    N     N_R   0.852070 0.500030 0.500020 -0.245323
O1    O     O_R   0.381260 0.680340 0.500000 -0.446672
O2    O     O_3   0.229040 0.417127 0.747419 -0.557735
O3    O     O_R   0.618740 0.319660 0.500000 -0.458879
O4    O     O_R   0.618830 0.680370 0.500010 -0.537128
O5    O     O_R   0.381170 0.319630 0.499990 -0.522635
O6    O     O_R   0.367440 0.500000 0.613600 -0.435039
O7    O     O_R   0.632560 0.500000 0.386400 -0.414569
O8    O     O_R   0.605010 0.500030 0.613600 -0.528855
O9    O     O_R   0.394990 0.499970 0.386400 -0.532629
O10   O     O_3   0.739764 0.629000 0.259561 -0.545179

loop_
_geom_bond_atom_site_label_1
_geom_bond_atom_site_label_2
_ccdc_geom_bond_type
C18   O2    S    
Cu1   O6    S    
C4    Cl2   S    
C31   H4    S    
Cu1   O1    S    
C1    C33   S    
C6    O7    A    
Cu2   O8    S    
C28   H19   S    
C26   C27   S    
C23   H28   S    
C29   C32   A    
C11   C14   A    
C27   H17   S    
C9    H1    S    
C7    C9    A    
C20   H23   S    
C5    O6    A    
C2    H6    S    
C23   C33   A    
C31   C33   A    
C30   H3    S    
C12   O5    A    
C12   C32   S    
C16   H24   S    
C26   H16   S    
Cu2   O7    S    
Cu2   O4    S    
C8    C19   A    
C1    O4    A    
C23   C30   A    
C14   C20   S    
C24   C25   S    
C22   O10   S    
C21   H22   S    
C2    N1    A    
C34   N2    A    
C4    N2    A    
C27   H18   S    
C6    O9    A    
C6    C8    S    
C3    C34   A    
Cu1   O9    S    
C1    O1    A    
C24   H10   S    
C19   O10   S    
C2    C4    A    
C25   H13   S    
Cu1   Cu2   S    
C3    Cl1   S    
C7    C18   A    
C9    C11   A    
C16   C18   A    
C22   H8    S    
C12   O3    A    
Cu2   N2    S    
C13   C15   A    
C26   O2    S    
C14   C16   A    
C10   H12   S    
C26   H15   S    
C5    C7    S    
C28   H21   S    
C15   C17   A    
Cu1   O5    S    
Cu2   O3    S    
C24   H9    S    
C3    N1    A    
C34   H5    S    
C10   C13   A    
C28   H20   S    
C5    O8    A    
C25   H14   S    
C29   C31   A    
C17   H25   S    
C30   C32   A    
C13   H26   S    
Cu1   N1    S    
C29   H2    S    
C17   C19   A    
C22   C24   S    
C25   H11   S    
C15   C21   S    
C22   H7    S    
C20   C21   D    
C8    C10   A    
C27   C28   S    
C11   H27   S    
