data_mof_unit_49417.cif
_audit_creation_date              2012-12-11T15:23:52-0500
_audit_creation_method            fapswitch 2.2
_symmetry_space_group_name_H-M    P1
_symmetry_Int_Tables_number       1
_space_group_crystal_system       triclinic
_cell_length_a                    17.450795
_cell_length_b                    24.729608
_cell_length_c                    14.92899
_cell_angle_alpha                 89.664352
_cell_angle_beta                  125.667305
_cell_angle_gamma                 90.198298
_cell_volume                      5234.00455811

loop_
_atom_site_label
_atom_site_type_symbol
_atom_type_description
_atom_site_fract_x
_atom_site_fract_y
_atom_site_fract_z
_atom_type_partial_charge
C1    C     C_R   0.344940 0.350748 0.911789 0.495890
C2    C     C_R   0.432075 0.498117 0.631200 0.043287
C3    C     C_3   0.243804 0.787390 0.331135 -0.897761
C4    C     C_1   0.499587 0.670914 0.199926 0.011682
C5    C     C_1   0.557867 0.644719 0.799113 0.043408
C6    C     C_1   0.999528 0.170915 0.199913 0.011740
C7    C     C_1   0.057933 0.144599 0.799057 0.043429
C8    C     C_3   0.345847 0.670268 0.757652 0.250671
C9    C     C_3   0.289246 0.698795 0.646344 -0.899680
C10   C     C_3   0.716488 0.681426 0.227603 0.245760
C11   C     C_3   0.794408 0.709732 0.332406 -0.882300
C12   C     C_3   0.845921 0.170261 0.757718 0.250859
C13   C     C_R   0.951686 0.998195 0.277104 0.031035
C14   C     C_3   0.789421 0.198843 0.646467 -0.899810
C15   C     C_3   0.216458 0.181458 0.227583 0.245730
C16   C     C_3   0.294370 0.209755 0.332404 -0.882452
C17   C     C_R   0.932027 0.998109 0.631180 0.043257
C18   C     C_R   0.175228 0.499498 0.713114 0.124113
C19   C     C_R   0.798601 0.498422 0.368477 0.080156
C20   C     C_R   0.675226 0.999501 0.713098 0.124158
C21   C     C_R   0.298599 0.998426 0.368478 0.080113
C22   C     C_2   0.922434 0.454324 0.539638 -0.099307
C23   C     C_2   0.021649 0.457503 0.634370 -0.115619
C24   C     C_2   0.422428 0.954331 0.539645 -0.099293
C25   C     C_R   0.679750 0.366136 0.091261 0.531786
C26   C     C_2   0.521646 0.957511 0.634369 -0.115606
C27   C     C_2   0.872257 0.498858 0.486475 -0.190819
C28   C     C_2   0.073403 0.501280 0.649497 -0.177928
C29   C     C_2   0.372253 0.998865 0.486476 -0.190824
C30   C     C_2   0.573402 0.001284 0.649476 -0.177965
C31   C     C_R   0.324293 0.772704 0.948201 -0.128128
C32   C     C_R   0.685327 0.733745 0.961723 -0.211196
C33   C     C_R   0.824473 0.272726 0.948439 -0.128188
C34   C     C_R   0.185194 0.233676 0.960962 -0.211498
C35   C     C_R   0.773773 0.315485 0.948226 -0.203364
C36   C     C_R   0.844893 0.850761 0.911785 0.496178
C37   C     C_R   0.229988 0.278884 0.960754 -0.122378
C38   C     C_R   0.273561 0.815445 0.947983 -0.203449
C39   C     C_R   0.730097 0.778982 0.961554 -0.123070
C40   C     C_R   0.726774 0.308231 0.997500 0.186587
C41   C     C_R   0.325395 0.275803 0.005727 0.203032
C42   C     C_R   0.226776 0.808213 0.997519 0.186507
C43   C     C_R   0.825341 0.775821 0.005744 0.203248
C44   C     C_R   0.726465 0.259045 0.043110 -0.124692
C45   C     C_R   0.377760 0.228406 0.052322 -0.218660
C46   C     C_R   0.226705 0.759059 0.043391 -0.124719
C47   C     C_R   0.179728 0.866118 0.091266 0.531773
C48   C     C_R   0.877577 0.728314 0.051508 -0.217939
C49   C     C_R   0.278047 0.717213 0.045364 -0.191416
C50   C     C_R   0.831671 0.682114 0.049209 -0.107861
C51   C     C_R   0.777781 0.217179 0.045084 -0.191406
C52   C     C_R   0.331830 0.182216 0.050006 -0.107316
C53   C     C_R   0.438584 0.649443 0.090033 -0.040554
C54   C     C_R   0.598023 0.624948 0.909176 -0.029776
C55   C     C_R   0.938535 0.149430 0.090031 -0.040542
C56   C     C_R   0.098027 0.124940 0.909179 -0.029773
C57   C     C_R   0.326905 0.724502 0.998788 0.212531
C58   C     C_R   0.374956 0.679121 0.998838 -0.158571
C59   C     C_R   0.735460 0.685230 0.002253 0.199651
C60   C     C_R   0.826843 0.224486 0.998762 0.212613
C61   C     C_R   0.235465 0.185239 0.002238 0.199122
C62   C     C_R   0.390174 0.546522 0.462333 -0.160597
C63   C     C_R   0.394179 0.546501 0.372441 -0.166707
C64   C     C_R   0.890147 0.046514 0.462325 -0.160581
C65   C     C_R   0.894186 0.046495 0.372458 -0.166707
C66   C     C_R   0.408612 0.497705 0.336871 0.139422
C67   C     C_R   0.399376 0.497680 0.515984 0.135536
C68   C     C_R   0.908634 0.997701 0.336900 0.139425
C69   C     C_R   0.685721 0.639446 0.001073 -0.148235
C70   C     C_R   0.899334 0.997671 0.515966 0.135528
C71   C     C_R   0.397601 0.448653 0.375772 -0.166666
C72   C     C_R   0.393232 0.448629 0.465455 -0.163673
C73   C     C_R   0.897611 0.948647 0.375786 -0.166672
C74   C     C_R   0.893208 0.948622 0.465445 -0.163674
C75   C     C_R   0.482877 0.453360 0.251397 -0.112639
C76   C     C_R   0.451855 0.453634 0.697215 -0.127506
C77   C     C_R   0.982896 0.953359 0.251419 -0.112637
C78   C     C_R   0.951842 0.953629 0.697212 -0.127494
C79   C     C_R   0.231366 0.544765 0.742872 -0.157410
C80   C     C_R   0.874886 0.179098 0.998829 -0.158535
C81   C     C_R   0.752474 0.543597 0.305941 -0.058015
C82   C     C_R   0.731366 0.044767 0.742864 -0.157477
C83   C     C_R   0.252473 0.043600 0.305937 -0.058073
C84   C     C_R   0.480102 0.543862 0.249014 -0.122980
C85   C     C_R   0.445758 0.543203 0.693213 -0.112420
C86   C     C_R   0.980123 0.043860 0.249040 -0.122995
C87   C     C_R   0.945700 0.043194 0.693186 -0.112327
C88   C     C_R   0.231771 0.453998 0.744248 -0.143940
C89   C     C_R   0.753102 0.453960 0.303534 -0.082581
C90   C     C_R   0.731768 0.953999 0.744235 -0.143957
C91   C     C_R   0.185693 0.139477 0.001079 -0.148130
C92   C     C_R   0.253101 0.953962 0.303537 -0.082531
C93   C     C_R   0.348191 0.649850 0.908241 0.488561
C94   C     C_R   0.689181 0.624971 0.092325 0.506172
C95   C     C_R   0.848151 0.149838 0.908234 0.488538
C96   C     C_R   0.189165 0.124994 0.092331 0.506033
C97   C     C_R   0.436622 0.351561 0.094908 -0.292943
C98   C     C_R   0.591288 0.369600 0.906529 -0.273883
C99   C     C_R   0.936578 0.851575 0.094905 -0.293007
C100  C     C_R   0.091269 0.869577 0.906531 -0.273885
C101  C     C_R   0.368310 0.323617 0.004458 -0.071721
C102  C     C_R   0.451659 0.498197 0.277070 0.031035
C103  C     C_R   0.674802 0.351001 0.999313 -0.077526
C104  C     C_R   0.868236 0.823642 0.004455 -0.071880
C105  C     C_R   0.174768 0.850964 0.999319 -0.077522
C106  C     C_3   0.346558 0.329819 0.763549 0.241173
C107  C     C_3   0.294907 0.297863 0.656806 -0.879691
C108  C     C_3   0.681369 0.320369 0.225992 0.229105
C109  C     C_3   0.743829 0.287359 0.331079 -0.897805
C110  C     C_3   0.846526 0.829806 0.763566 0.241053
C111  C     C_3   0.794863 0.797855 0.656817 -0.879606
C112  C     C_3   0.181345 0.820382 0.226022 0.228930
H1    H     H_    0.893475 0.538162 0.525738 0.132281
H2    H     H_    0.190974 0.316413 0.927259 0.117021
H3    H     H_    0.271064 0.853702 0.910594 0.132427
H4    H     H_    0.691196 0.816583 0.928652 0.116910
H5    H     H_    0.685865 0.252771 0.075845 0.120753
H6    H     H_    0.452537 0.227293 0.088331 0.119761
H7    H     H_    0.186256 0.752788 0.076318 0.120949
H8    H     H_    0.952228 0.727130 0.086865 0.119618
H9    H     H_    0.278296 0.678818 0.081079 0.123929
H10   H     H_    0.870076 0.644506 0.083192 0.127573
H11   H     H_    0.777865 0.178760 0.080611 0.123917
H12   H     H_    0.041740 0.538744 0.605041 0.136041
H13   H     H_    0.370339 0.144689 0.084623 0.127860
H14   H     H_    0.389405 0.585179 0.495151 0.117201
H15   H     H_    0.395398 0.585131 0.339138 0.112721
H16   H     H_    0.889369 0.085171 0.495138 0.117216
H17   H     H_    0.895416 0.085126 0.339165 0.112742
H18   H     H_    0.401678 0.410099 0.345089 0.110685
H19   H     H_    0.394430 0.410038 0.500556 0.110458
H20   H     H_    0.901699 0.910094 0.345110 0.110680
H21   H     H_    0.894397 0.910031 0.500540 0.110455
H22   H     H_    0.475536 0.411522 0.265179 0.095926
H23   H     H_    0.393474 0.038170 0.525734 0.132291
H24   H     H_    0.436268 0.411950 0.671521 0.078742
H25   H     H_    0.975565 0.911521 0.265213 0.095911
H26   H     H_    0.936267 0.911943 0.671530 0.078749
H27   H     H_    0.207874 0.586123 0.727776 0.164602
H28   H     H_    0.760798 0.583541 0.339040 0.125889
H29   H     H_    0.707878 0.086126 0.727767 0.164555
H30   H     H_    0.260793 0.083546 0.339028 0.125954
H31   H     H_    0.468109 0.584976 0.259468 0.112521
H32   H     H_    0.417620 0.582636 0.659488 0.093145
H33   H     H_    0.968142 0.084973 0.259512 0.112539
H34   H     H_    0.541740 0.038746 0.605006 0.136045
H35   H     H_    0.917503 0.082615 0.659439 0.093108
H36   H     H_    0.208857 0.412549 0.729177 0.153618
H37   H     H_    0.762426 0.413272 0.333691 0.130898
H38   H     H_    0.708848 0.912552 0.729151 0.153653
H39   H     H_    0.262427 0.913276 0.333699 0.130919
H40   H     H_    0.477954 0.337732 0.179590 0.130711
H41   H     H_    0.561646 0.360633 0.821387 0.142694
H42   H     H_    0.977907 0.837739 0.179582 0.130768
H43   H     H_    0.061626 0.860610 0.821388 0.142679
H44   H     H_    0.897870 0.414659 0.502965 0.124495
H45   H     H_    0.361471 0.776993 0.910478 0.122584
H46   H     H_    0.055584 0.420147 0.678307 0.127251
H47   H     H_    0.397861 0.914664 0.502982 0.124496
H48   H     H_    0.555580 0.920157 0.678318 0.127318
H49   H     H_    0.417189 0.310962 0.821787 0.100442
H50   H     H_    0.354492 0.371856 0.744049 0.104607
H51   H     H_    0.224353 0.315916 0.596205 0.259432
H52   H     H_    0.336027 0.298709 0.621514 0.202960
H53   H     H_    0.286089 0.255199 0.672905 0.264437
H54   H     H_    0.625969 0.293061 0.160952 0.078916
H55   H     H_    0.645920 0.352318 0.241563 0.094493
H56   H     H_    0.611606 0.736446 0.930297 0.114749
H57   H     H_    0.798855 0.313592 0.398579 0.251260
H58   H     H_    0.700492 0.269451 0.356124 0.212115
H59   H     H_    0.778444 0.254253 0.316946 0.261137
H60   H     H_    0.917146 0.810937 0.821810 0.100417
H61   H     H_    0.854489 0.871838 0.744077 0.104600
H62   H     H_    0.724310 0.815912 0.596222 0.259439
H63   H     H_    0.835981 0.798698 0.621521 0.202947
H64   H     H_    0.786037 0.755190 0.672912 0.264411
H65   H     H_    0.125953 0.793063 0.160999 0.078917
H66   H     H_    0.145886 0.852337 0.241563 0.094560
H67   H     H_    0.861819 0.277031 0.910921 0.122479
H68   H     H_    0.298825 0.813634 0.398618 0.251255
H69   H     H_    0.200466 0.769494 0.356190 0.212160
H70   H     H_    0.278428 0.754276 0.317032 0.261096
H71   H     H_    0.360334 0.628581 0.744720 0.104870
H72   H     H_    0.413320 0.692743 0.812811 0.086001
H73   H     H_    0.273854 0.741019 0.656172 0.257882
H74   H     H_    0.330116 0.699536 0.610751 0.216513
H75   H     H_    0.221777 0.677076 0.588895 0.256703
H76   H     H_    0.669244 0.661072 0.244018 0.103859
H77   H     H_    0.676231 0.712820 0.162116 0.091018
H78   H     H_    0.111350 0.236353 0.929008 0.115026
H79   H     H_    0.842583 0.730880 0.317948 0.257827
H80   H     H_    0.763158 0.739868 0.357313 0.215097
H81   H     H_    0.835376 0.679789 0.400134 0.249196
H82   H     H_    0.860332 0.128569 0.744719 0.104842
H83   H     H_    0.913437 0.192688 0.812952 0.085903
H84   H     H_    0.774110 0.241075 0.656364 0.257897
H85   H     H_    0.830327 0.199565 0.610920 0.216492
H86   H     H_    0.721909 0.177175 0.588944 0.256715
H87   H     H_    0.169186 0.161116 0.243966 0.103906
H88   H     H_    0.176236 0.212855 0.162092 0.091085
H89   H     H_    0.771466 0.353771 0.911045 0.132404
H90   H     H_    0.342570 0.230893 0.317979 0.257833
H91   H     H_    0.263119 0.239895 0.357293 0.215132
H92   H     H_    0.335310 0.179810 0.400130 0.249218
N1    N     N_R   0.395440 0.396300 0.944370 -0.102803
N2    N     N_R   0.474910 0.470990 0.794360 -0.035240
N3    N     N_R   0.025090 0.970990 0.205640 -0.040571
N4    N     N_R   0.974910 0.970990 0.794360 -0.035237
N5    N     N_R   0.320240 0.527820 0.794510 -0.047192
N6    N     N_R   0.679760 0.527820 0.205490 -0.053010
N7    N     N_R   0.820240 0.027820 0.794510 -0.047203
N8    N     N_R   0.179760 0.027820 0.205490 -0.052992
N9    N     N_R   0.524580 0.527810 0.205160 -0.040326
N10   N     N_R   0.475420 0.527810 0.794840 -0.040758
N11   N     N_R   0.024580 0.027810 0.205160 -0.040324
N12   N     N_R   0.604560 0.396300 0.055630 -0.108980
N13   N     N_R   0.975420 0.027810 0.794840 -0.040766
N14   N     N_R   0.320750 0.470990 0.794990 -0.050312
N15   N     N_R   0.679250 0.470990 0.205010 -0.058758
N16   N     N_R   0.820750 0.970990 0.794990 -0.050315
N17   N     N_R   0.179250 0.970990 0.205010 -0.058748
N18   N     N_R   0.393580 0.602500 0.942610 -0.111478
N19   N     N_R   0.606420 0.602500 0.057390 -0.121358
N20   N     N_R   0.893580 0.102500 0.942610 -0.111518
N21   N     N_R   0.106420 0.102500 0.057390 -0.121292
N22   N     N_R   0.451750 0.396300 0.057540 -0.059802
N23   N     N_R   0.895440 0.896300 0.944370 -0.102854
N24   N     N_R   0.548250 0.396300 0.942460 -0.077131
N25   N     N_R   0.951750 0.896300 0.057540 -0.059819
N26   N     N_R   0.048250 0.896300 0.942460 -0.077112
N27   N     N_1   0.547825 0.688402 0.288078 -0.092095
N28   N     N_1   0.527478 0.661732 0.712001 -0.097418
N29   N     N_1   0.047758 0.188413 0.288056 -0.092086
N30   N     N_1   0.027607 0.161529 0.711904 -0.097441
N31   N     N_R   0.104560 0.896300 0.055630 -0.108957
N32   N     N_R   0.449890 0.602500 0.055780 -0.083460
N33   N     N_R   0.550110 0.602500 0.944220 -0.107838
N34   N     N_R   0.949890 0.102500 0.055780 -0.083469
N35   N     N_R   0.050110 0.102500 0.944220 -0.107835
N36   N     N_R   0.525090 0.470990 0.205640 -0.040572
Ni1   Ni    Ni4+2 0.435420 0.434250 0.870220 0.193353
Ni2   Ni    Ni4+2 0.564580 0.434250 0.129780 0.192312
Ni3   Ni    Ni4+2 0.935420 0.934250 0.870220 0.193336
Ni4   Ni    Ni4+2 0.064580 0.934250 0.129780 0.192327
Ni5   Ni    Ni4+2 0.563400 0.564580 0.128670 0.198912
Ni6   Ni    Ni4+2 0.436600 0.564580 0.871330 0.193494
Ni7   Ni    Ni4+2 0.063400 0.064580 0.128670 0.198934
Ni8   Ni    Ni4+2 0.936600 0.064580 0.871330 0.193478
O1    O     O_3   0.293412 0.328622 0.807082 -0.649554
O2    O     O_3   0.737528 0.343194 0.195257 -0.640127
O3    O     O_3   0.793369 0.828624 0.807088 -0.649452
O4    O     O_3   0.237508 0.843194 0.195280 -0.640169
O5    O     O_3   0.292875 0.669310 0.801254 -0.647421
O6    O     O_3   0.756909 0.642643 0.197990 -0.640338
O7    O     O_3   0.792901 0.169321 0.801260 -0.647381
O8    O     O_3   0.256881 0.142663 0.198000 -0.640480

loop_
_geom_bond_atom_site_label_1
_geom_bond_atom_site_label_2
_ccdc_geom_bond_type
C45   H6    S    
N21   Ni7   S    
C81   H28   S    
C79   H27   S    
C107  H53   S    
N11   Ni7   S    
C43   C104  S    
C20   C82   A    
C4    C53   S    
C33   H67   S    
C34   C37   A    
C51   H11   S    
C73   C74   A    
C66   C102  S    
C56   N35   A    
C50   H10   S    
N13   Ni8   S    
C6    C55   S    
C90   H38   S    
N9    N36   A    
C76   H24   S    
C75   H22   S    
C2    C76   A    
C48   H8    S    
C22   H44   S    
N19   Ni5   S    
N7    N16   A    
C14   H86   S    
C46   C49   A    
N18   N32   A    
C100  C105  A    
N12   N24   A    
C87   H35   S    
C62   C67   A    
C111  H63   S    
N5    N14   A    
C106  O1    S    
C92   N17   A    
C58   C93   A    
C77   H25   S    
C38   C42   A    
C9    H73   S    
C52   C61   A    
C94   O6    S    
N23   Ni3   S    
C13   C68   S    
C93   O5    S    
N22   Ni2   S    
C106  C107  S    
C3    H70   S    
C98   C103  A    
C111  H62   S    
C99   H42   S    
C8    O5    S    
C36   O3    S    
C49   C57   A    
C108  C109  S    
C2    C85   A    
C11   H80   S    
C42   C46   A    
C106  H49   S    
C46   H7    S    
C86   N11   A    
C17   C78   A    
C108  H54   S    
N26   Ni3   S    
C98   N24   A    
C91   C96   A    
C24   C29   D    
N20   Ni8   S    
C56   C91   A    
N24   Ni1   S    
C21   C83   A    
C76   N2    A    
C18   C79   A    
C47   C105  A    
C11   H79   S    
N34   Ni7   S    
C70   C74   A    
C75   C102  A    
C10   H76   S    
N4    Ni3   S    
C73   H20   S    
C26   H48   S    
C93   N18   A    
C64   C70   A    
C16   H91   S    
C1    N1    A    
C43   C48   A    
C90   N16   A    
C83   N8    A    
C84   C102  A    
C15   O8    S    
C8    H72   S    
C48   C50   A    
C81   N6    A    
C98   H41   S    
C17   C70   S    
C12   O7    S    
C10   O6    S    
C8    H71   S    
C75   N36   A    
C7    C56   S    
C82   H29   S    
N1    Ni1   S    
C78   H26   S    
C85   H32   S    
N36   Ni2   S    
C99   N25   A    
C109  H57   S    
C112  O4    S    
C47   N31   A    
N8    N17   A    
N12   Ni2   S    
C109  H58   S    
N16   Ni3   S    
C13   C77   A    
C24   H47   S    
C10   H77   S    
N8    Ni7   S    
C111  H64   S    
C4    N27   T    
C7    N30   T    
C5    C54   S    
C67   C72   A    
C18   C28   S    
C96   O8    S    
C9    H74   S    
N19   N33   A    
C62   H14   S    
N25   Ni4   S    
C8    C9    S    
C39   C43   A    
C37   H2    S    
C45   C52   A    
C64   H16   S    
C68   C73   A    
C21   C29   S    
C34   C61   A    
C18   C88   A    
N6    N15   A    
C110  C111  S    
C108  O2    S    
N35   Ni8   S    
C16   H90   S    
N7    Ni8   S    
C13   C86   A    
C3    H68   S    
C20   C30   S    
C62   C63   A    
C19   C89   A    
C89   N15   A    
C15   H87   S    
C25   O2    S    
C97   C101  A    
C66   C71   A    
C34   H78   S    
C3    C112  S    
C53   C58   A    
C65   C68   A    
C49   H9    S    
C23   H46   S    
C92   H39   S    
N3    N11   A    
C88   H36   S    
C5    N28   T    
N26   N31   A    
N10   Ni6   S    
C23   C28   D    
C80   C95   A    
N9    Ni5   S    
C3    H69   S    
C53   N32   A    
C47   O4    S    
C31   H45   S    
C61   C91   S    
C59   C69   S    
C15   H88   S    
C27   H1    S    
C44   C51   A    
N23   N25   A    
C6    N29   T    
C12   C14   S    
C2    C67   S    
C36   N23   A    
C22   C27   D    
C32   H56   S    
N1    N22   A    
C94   N19   A    
N21   N35   A    
C12   H83   S    
N2    Ni1   S    
C50   C59   A    
C109  H59   S    
C78   N4    A    
C86   H33   S    
C95   O7    S    
C88   N14   A    
N6    Ni5   S    
C87   N13   A    
C19   C27   S    
C84   N9    A    
C100  H43   S    
C72   H19   S    
C112  H66   S    
C82   N7    A    
C110  H61   S    
N4    N13   A    
C79   N5    A    
C14   H84   S    
C60   C80   S    
C99   C104  A    
C29   H23   S    
C17   C87   A    
C12   H82   S    
N32   Ni5   S    
C108  H55   S    
C25   N12   A    
C35   H89   S    
C11   H81   S    
C54   N33   A    
C24   C26   S    
C9    H75   S    
C83   H30   S    
C65   H17   S    
C52   H13   S    
N14   Ni1   S    
C31   C38   A    
C26   C30   D    
C51   C60   A    
C38   H3    S    
C110  O3    S    
C33   C60   A    
N3    Ni4   S    
C95   N20   A    
C84   H31   S    
N15   Ni2   S    
C36   C104  A    
C30   H34   S    
C96   N21   A    
C31   C57   A    
C100  N26   A    
C35   C40   A    
C71   C72   A    
C19   C81   A    
C85   N10   A    
C64   C65   A    
C40   C103  S    
C55   C80   A    
N18   Ni6   S    
C77   N3    A    
N2    N10   A    
C57   C58   S    
C54   C69   A    
C20   C90   A    
C44   H5    S    
C89   H37   S    
C74   H21   S    
C33   C35   A    
C97   H40   S    
C41   C101  S    
N33   Ni6   S    
C97   N22   A    
C1    O1    S    
C106  H50   S    
C55   N34   A    
C37   C41   A    
C14   H85   S    
C42   C105  S    
C25   C103  A    
N31   Ni4   S    
C63   C66   A    
C10   C11   S    
C1    C101  A    
C40   C44   A    
C107  H52   S    
C39   H4    S    
C32   C39   A    
C41   C45   A    
C22   C23   S    
C107  H51   S    
C69   C94   A    
C32   C59   A    
C28   H12   S    
C16   H92   S    
N20   N34   A    
N5    Ni6   S    
C21   C92   A    
C63   H15   S    
C15   C16   S    
C112  H65   S    
C71   H18   S    
N17   Ni4   S    
C110  H60   S    
