data_mof_unit_35527.cif
_audit_creation_date              2012-10-26T21:05:39-0400
_audit_creation_method            fapswitch 2.2
_symmetry_space_group_name_H-M    P1
_symmetry_Int_Tables_number       1
_space_group_crystal_system       triclinic
_cell_length_a                    13.077401
_cell_length_b                    9.096856
_cell_length_c                    7.783461
_cell_angle_alpha                 90.016627
_cell_angle_beta                  95.621744
_cell_angle_gamma                 89.983873
_cell_volume                      921.492096294

loop_
_atom_site_label
_atom_site_type_symbol
_atom_type_description
_atom_site_fract_x
_atom_site_fract_y
_atom_site_fract_z
_atom_type_partial_charge
C1    C     C_R   0.499999 0.220021 0.499988 0.552498
C2    C     C_R   0.862443 0.431894 0.691604 -0.139083
C3    C     C_R   0.132309 0.441716 0.583518 -0.021465
C4    C     C_R   0.867691 0.558288 0.416485 -0.021466
C5    C     C_R   0.025288 0.463061 0.572667 0.026435
C6    C     C_R   0.974712 0.536939 0.427334 0.026435
C7    C     C_1   0.499998 0.065366 0.499982 -0.032134
C8    C     C_1   0.500002 0.934634 0.500018 -0.032133
C9    C     C_1   0.816151 0.642547 0.274687 0.204759
C10   C     C_1   0.183850 0.357471 0.725324 0.204762
C11   C     C_R   0.500001 0.779979 0.500012 0.552499
C12   C     C_R   0.300428 0.496654 0.469131 0.539989
C13   C     C_R   0.699572 0.503346 0.530869 0.539990
C14   C     C_R   0.811602 0.500711 0.547206 -0.002904
C15   C     C_R   0.188397 0.499288 0.452795 -0.002905
C16   C     C_R   0.032191 0.586571 0.295277 -0.134446
C17   C     C_R   0.967808 0.413427 0.704723 -0.134446
C18   C     C_R   0.137556 0.568102 0.308395 -0.139082
Cu1   Cu    Cu3+1 0.500010 0.500000 0.669080 1.061697
Cu2   Cu    Cu3+1 0.499990 0.500000 0.330920 1.061698
H1    H     H_    0.820117 0.388281 0.793158 0.146577
H2    H     H_    0.179881 0.611712 0.206840 0.146579
H3    H     H_    0.996602 0.641538 0.181392 0.134951
H4    H     H_    0.003397 0.358459 0.818607 0.134952
N1    N     N_1   0.499980 0.500000 0.076820 -0.067999
N2    N     N_1   0.500020 0.500000 0.923180 -0.067998
N3    N     N_1   0.775198 0.709670 0.161762 -0.277708
N4    N     N_1   0.224803 0.290363 0.838257 -0.277709
O1    O     O_R   0.500000 0.288400 0.642760 -0.493854
O2    O     O_R   0.500000 0.711600 0.357240 -0.493853
O3    O     O_R   0.500000 0.288400 0.357240 -0.495460
O4    O     O_R   0.500000 0.711600 0.642760 -0.495461
O5    O     O_R   0.349000 0.500000 0.619590 -0.494887
O6    O     O_R   0.651000 0.500000 0.380410 -0.494888
O7    O     O_R   0.348990 0.500000 0.334020 -0.506969
O8    O     O_R   0.651010 0.500000 0.665980 -0.506971

loop_
_geom_bond_atom_site_label_1
_geom_bond_atom_site_label_2
_ccdc_geom_bond_type
C15   C18   A    
C18   H2    S    
Cu1   Cu2   S    
C12   C15   S    
Cu2   O6    S    
C2    H1    S    
C1    O1    A    
C4    C9    S    
C7    C8    T    
C3    C10   S    
Cu2   O2    S    
C13   C14   S    
C2    C17   A    
C8    C11   S    
Cu1   O4    S    
C4    C6    A    
N1    N2    T    
C11   O4    A    
C16   H3    S    
Cu1   O8    S    
C4    C14   A    
C5    C6    A    
C2    C14   A    
C12   O7    A    
C17   H4    S    
C5    C17   A    
Cu2   N1    S    
C6    C16   A    
Cu1   O1    S    
C1    O3    A    
C3    C15   A    
C9    N3    T    
C13   O8    A    
C16   C18   A    
Cu1   O5    S    
C10   N4    T    
Cu1   N2    S    
C13   O6    A    
C12   O5    A    
C1    C7    S    
Cu2   O7    S    
C11   O2    A    
C3    C5    A    
Cu2   O3    S    
