data_mof_unit_63877.cif
_audit_creation_date              2012-12-10T17:07:11-0500
_audit_creation_method            fapswitch 2.2
_symmetry_space_group_name_H-M    P1
_symmetry_Int_Tables_number       1
_space_group_crystal_system       triclinic
_cell_length_a                    10.035497
_cell_length_b                    10.720166
_cell_length_c                    13.626856
_cell_angle_alpha                 89.961877
_cell_angle_beta                  83.038234
_cell_angle_gamma                 89.229512
_cell_volume                      1455.0663045

loop_
_atom_site_label
_atom_site_type_symbol
_atom_type_description
_atom_site_fract_x
_atom_site_fract_y
_atom_site_fract_z
_atom_type_partial_charge
C1    C     C_R   0.499884 0.737315 0.495304 0.960848
C2    C     C_R   0.501414 0.262518 0.498575 0.966527
C3    C     C_R   0.523996 0.499947 0.314317 0.895174
C4    C     C_1   0.542210 0.499758 0.210521 -0.167404
C5    C     C_2   0.557905 0.499454 0.018847 -0.157926
C6    C     C_2   0.442149 0.499683 0.981171 -0.160154
C7    C     C_1   0.446027 0.499799 0.877291 0.010194
C8    C     C_1   0.554019 0.499592 0.122726 0.011629
C9    C     C_1   0.457815 0.499911 0.789492 -0.173004
C10   C     C_2   0.612143 0.065944 0.455273 0.487087
C11   C     C_2   0.505454 0.130042 0.499416 -0.367003
C12   C     C_2   0.614091 0.930834 0.465010 -0.280440
C13   C     C_2   0.499484 0.868018 0.477041 -0.383945
C14   C     C_2   0.084556 0.422488 0.448205 -0.121225
C15   C     C_2   0.935129 0.426703 0.444436 -0.109390
C16   C     C_R   0.476010 0.500026 0.685683 0.889293
H1    H     H_    0.345979 0.499892 0.027520 0.160489
H2    H     H_    0.787313 0.063455 0.376961 0.323396
H3    H     H_    0.888648 0.554255 0.550562 0.163227
H4    H     H_    0.654077 0.499280 0.972501 0.161098
H5    H     H_    0.420027 0.085870 0.541213 0.104651
H6    H     H_    0.710845 0.883722 0.463892 0.178390
H7    H     H_    0.403073 0.911779 0.469555 0.156010
H8    H     H_    0.142342 0.351755 0.404123 0.165628
H9    H     H_    0.095062 0.569507 0.537121 0.161523
H10   H     H_    0.894843 0.363734 0.393510 0.189890
N1    N     N_2   0.147970 0.498670 0.498970 -0.189492
N2    N     N_2   0.852310 0.498640 0.498940 -0.193815
O1    O     O_R   0.386960 0.680940 0.500020 -0.620233
O2    O     O_R   0.613100 0.680900 0.499980 -0.614610
O3    O     O_R   0.370650 0.500000 0.640370 -0.606437
O4    O     O_R   0.596800 0.499960 0.640330 -0.610351
O5    O     O_R   0.386900 0.319100 0.500020 -0.629507
O6    O     O_R   0.613040 0.319060 0.499980 -0.547826
O7    O     O_R   0.403200 0.500040 0.359670 -0.608854
O8    O     O_R   0.629350 0.500000 0.359630 -0.602825
O9    O     O_3   0.720177 0.126871 0.404524 -0.758378
Zn1   Zn    Zn3+2 0.349000 0.500030 0.500020 0.947025
Zn2   Zn    Zn3+2 0.651000 0.499970 0.499980 0.970736

loop_
_geom_bond_atom_site_label_1
_geom_bond_atom_site_label_2
_ccdc_geom_bond_type
O1    Zn1   S    
C5    C8    S    
C6    C7    S    
C14   N1    D    
H9    N1    S    
O5    Zn1   S    
O3    Zn1   S    
C3    O7    A    
C4    C8    T    
C2    O6    A    
C1    O1    A    
C5    H4    S    
C16   O3    A    
H3    N2    S    
C15   N2    D    
C10   C12   S    
C3    O8    A    
C10   O9    S    
C2    C11   S    
C2    O5    A    
C1    O2    A    
H2    O9    S    
O2    Zn2   S    
C5    C6    D    
C1    C13   S    
C10   C11   D    
N1    Zn1   S    
C3    C4    S    
C12   H6    S    
O7    Zn1   S    
C12   C13   D    
C13   H7    S    
O4    Zn2   S    
C14   H8    S    
C7    C9    T    
C6    H1    S    
C16   O4    A    
C15   H10   S    
N2    Zn2   S    
C14   C15   S    
C11   H5    S    
O8    Zn2   S    
O6    Zn2   S    
C9    C16   S    
