data_mof_unit_6629.cif
_audit_creation_date              2013-03-05T16:12:53-0500
_audit_creation_method            fapswitch 2.2
_symmetry_space_group_name_H-M    P1
_symmetry_Int_Tables_number       1
_space_group_crystal_system       triclinic
_cell_length_a                    10.690555
_cell_length_b                    10.047948
_cell_length_c                    27.692141
_cell_angle_alpha                 87.140476
_cell_angle_beta                  93.24762
_cell_angle_gamma                 90.491103
_cell_volume                      2966.11394632

loop_
_atom_site_label
_atom_site_type_symbol
_atom_site_description
_atom_site_fract_x
_atom_site_fract_y
_atom_site_fract_z
_atom_type_partial_charge
O1    O     O_R   0.316770 0.614620 0.500000 -0.620984
O2    O     O_R   0.683230 0.385380 0.500000 -0.583626
O3    O     O_R   0.683230 0.614620 0.500000 -0.601965
O4    O     O_R   0.316770 0.385380 0.500000 -0.601574
C1    C     C_R   0.260802 0.499773 0.499643 1.040277
C2    C     C_R   0.739537 0.500378 0.500474 1.039413
O5    O     O_R   0.500030 0.614650 0.428760 -0.645985
O6    O     O_R   0.499970 0.385350 0.571240 -0.617309
O7    O     O_R   0.499970 0.614650 0.571240 -0.660398
O8    O     O_R   0.500030 0.385350 0.428760 -0.605364
C3    C     C_R   0.502103 0.502989 0.406240 0.916108
C4    C     C_R   0.498699 0.497718 0.593485 0.942805
Zn1   Zn    Zn3+2 0.500000 0.653120 0.500000 0.948417
Zn2   Zn    Zn3+2 0.500000 0.346880 0.500000 0.987071
C5    C     C_R   0.378906 0.506976 0.172535 0.559341
C6    C     C_R   0.607683 0.533118 0.825227 0.562561
O9    O     O_2   0.270039 0.529857 0.192997 -0.449174
O10   O     O_2   0.701136 0.596597 0.802510 -0.464478
N1    N     N_R   0.488835 0.504621 0.200415 -0.349834
N2    N     N_R   0.506256 0.485879 0.798727 -0.348930
C7    C     C_R   0.600957 0.481119 0.180954 0.556205
C8    C     C_R   0.409663 0.421533 0.820646 0.559948
C9    C     C_R   0.557680 0.615502 0.275818 0.217898
C10   C     C_R   0.403795 0.565239 0.719586 0.205876
C11   C     C_R   0.578631 0.600543 0.326931 -0.007975
C12   C     C_R   0.392784 0.551736 0.668614 0.038669
C13   C     C_R   0.421149 0.422701 0.328053 0.577260
C14   C     C_R   0.600874 0.450960 0.673398 0.521131
C15   C     C_R   0.419168 0.421589 0.278245 -0.201476
C16   C     C_R   0.600823 0.442961 0.723233 -0.196968
C17   C     C_R   0.486147 0.516717 0.251772 0.134078
C18   C     C_R   0.503258 0.498561 0.746783 0.131953
C19   C     C_R   0.495573 0.476952 0.101523 -0.209693
C20   C     C_R   0.508183 0.466050 0.898944 -0.210721
C21   C     C_R   0.379391 0.486124 0.122826 -0.147053
C22   C     C_R   0.613895 0.517190 0.875890 -0.140197
C23   C     C_R   0.267787 0.476003 0.093854 0.709959
C24   C     C_R   0.721103 0.553516 0.904032 0.712517
C25   C     C_R   0.607910 0.477070 0.130734 -0.154125
C26   C     C_R   0.403839 0.419669 0.871074 -0.143971
C27   C     C_R   0.501683 0.509572 0.353120 -0.227757
C28   C     C_R   0.494507 0.495307 0.645941 -0.220330
H1    H     H_    0.363514 0.346837 0.259862 0.200472
H2    H     H_    0.679998 0.398050 0.743883 0.209525
C29   C     C_R   0.393434 0.431204 0.972409 0.010109
C30   C     C_R   0.615875 0.479096 0.029034 0.005028
C31   C     C_R   0.616811 0.492277 0.978031 0.014091
C32   C     C_R   0.387043 0.449914 0.022451 0.014189
C33   C     C_R   0.506361 0.462490 0.949926 0.080873
C34   C     C_R   0.499495 0.468091 0.050910 0.080483
C35   C     C_R   0.290765 0.383243 0.943994 -0.292234
C36   C     C_R   0.727085 0.477449 0.058925 -0.294385
C37   C     C_R   0.296768 0.374334 0.894249 0.710466
C38   C     C_R   0.723424 0.473275 0.109038 0.716238
O11   O     O_2   0.319074 0.361402 0.793458 -0.478282
O12   O     O_2   0.705115 0.462328 0.210329 -0.479675
C39   C     C_R   0.271885 0.455101 0.044718 -0.304124
C40   C     C_R   0.723269 0.538182 0.954221 -0.300730
H3    H     H_    0.205809 0.347982 0.959791 0.185333
H4    H     H_    0.818475 0.474924 0.044287 0.192274
H5    H     H_    0.183066 0.450045 0.024284 0.183312
H6    H     H_    0.807595 0.569847 0.973816 0.184443
C41   C     C_R   0.068670 0.403095 0.528296 0.455904
C42   C     C_R   0.933110 0.600741 0.473663 0.462492
C43   C     C_R   0.940342 0.401983 0.527949 0.521938
C44   C     C_R   0.061138 0.598776 0.472553 0.505158
C45   C     C_R   0.872588 0.501213 0.500809 -0.493223
C46   C     C_R   0.128447 0.499918 0.499895 -0.494084
C47   C     C_R   0.558174 0.064894 0.537133 0.209714
C48   C     C_R   0.426214 0.932045 0.466468 0.147915
C49   C     C_R   0.422447 0.075215 0.467673 0.142810
C50   C     C_R   0.575099 0.925396 0.532350 0.158812
N3    N     N_R   0.500000 0.857200 0.500000 -0.142618
N4    N     N_R   0.500000 0.142800 0.500000 -0.138643
F1    F     F_    0.345002 0.336545 0.351725 -0.689225
F2    F     F_    0.707676 0.421990 0.652028 -0.669393
C51   C     C_3   0.550781 0.104572 0.588866 -0.485575
C52   C     C_3   0.671476 0.165419 0.609521 -0.562327
H7    H     H_    0.752088 0.097868 0.608053 0.248425
H8    H     H_    0.691522 0.259356 0.589161 0.348269
H9    H     H_    0.660556 0.184384 0.648153 0.251540
H10   H     H_    0.468611 0.168298 0.592274 0.254399
H11   H     H_    0.527513 0.016742 0.612817 0.178934
C53   C     C_3   0.357357 0.864640 0.424899 -0.294212
C54   C     C_3   0.430128 0.879753 0.379041 -0.851988
H12   H     H_    0.529505 0.853621 0.387587 0.273629
H13   H     H_    0.389576 0.812799 0.351451 0.265265
H14   H     H_    0.426650 0.983608 0.363526 0.258849
H15   H     H_    0.341583 0.759529 0.433877 0.301070
H16   H     H_    0.261249 0.902065 0.416976 0.228325
C55   C     C_3   0.313770 0.147196 0.440429 -0.339588
C56   C     C_3   0.192766 0.126535 0.466997 -0.772998
H17   H     H_    0.210354 0.144144 0.505973 0.313992
H18   H     H_    0.120119 0.197012 0.451322 0.259780
H19   H     H_    0.155416 0.023915 0.464162 0.258651
H20   H     H_    0.330517 0.253483 0.436259 0.304572
H21   H     H_    0.299369 0.116737 0.402688 0.235370
C57   C     C_3   0.681899 0.856730 0.561943 -0.388805
C58   C     C_3   0.806971 0.892571 0.540406 -0.754999
H22   H     H_    0.883648 0.835241 0.560344 0.247236
H23   H     H_    0.804072 0.868260 0.501774 0.314844
H24   H     H_    0.827764 0.000506 0.542554 0.275758
H25   H     H_    0.685243 0.881880 0.600441 0.194140
H26   H     H_    0.672494 0.748705 0.563520 0.274416
F3    F     F_    0.153746 0.483743 0.112767 -0.570204
F4    F     F_    0.825514 0.602043 0.883420 -0.591410
C59   C     C_3   0.273795 0.594314 0.638954 -0.445397
C60   C     C_3   0.163063 0.504023 0.651359 -0.679072
H27   H     H_    0.184963 0.399082 0.644443 0.303449
H28   H     H_    0.140832 0.509103 0.689835 0.264503
H29   H     H_    0.078870 0.534950 0.628323 0.251807
H30   H     H_    0.252220 0.700306 0.644049 0.212670
H31   H     H_    0.283166 0.588770 0.599563 0.224313
C61   C     C_3   0.691473 0.667079 0.351994 -0.394115
C62   C     C_3   0.814119 0.611795 0.335550 -0.688278
H32   H     H_    0.819899 0.503156 0.344977 0.256224
H33   H     H_    0.821579 0.628570 0.295920 0.270194
H34   H     H_    0.894854 0.662146 0.354072 0.295290
H35   H     H_    0.689258 0.776729 0.345728 0.212431
H36   H     H_    0.693807 0.649019 0.391594 0.273352
C63   C     C_3   0.319591 0.659231 0.744671 -0.389580
C64   C     C_3   0.391269 0.784861 0.758764 -0.806438
H37   H     H_    0.469812 0.760280 0.785524 0.274614
H38   H     H_    0.428876 0.836316 0.726169 0.260656
H39   H     H_    0.327247 0.853829 0.775287 0.272498
H40   H     H_    0.236540 0.692129 0.721840 0.222884
H41   H     H_    0.280742 0.610582 0.777282 0.245018
C65   C     C_3   0.604740 0.737514 0.246948 -0.396872
C66   C     C_3   0.495838 0.827068 0.228475 -0.815878
H42   H     H_    0.431243 0.774402 0.202998 0.277862
H43   H     H_    0.443100 0.858873 0.259313 0.265932
H44   H     H_    0.532502 0.917252 0.209052 0.260972
H45   H     H_    0.670454 0.799665 0.268391 0.220598
H46   H     H_    0.657672 0.708938 0.215928 0.240968
F5    F     F_    0.194784 0.327002 0.868924 -0.590180
F6    F     F_    0.833904 0.471327 0.135811 -0.559909
F7    F     F_    0.134393 0.312850 0.557506 -0.641227
F8    F     F_    0.868804 0.697441 0.447229 -0.658975
F9    F     F_    0.883373 0.306143 0.555004 -0.628809
F10   F     F_    0.118639 0.691370 0.444040 -0.653422

loop_
_geom_bond_atom_site_label_1
_geom_bond_atom_site_label_2
_geom_bond_distance
_ccdc_geom_bond_type
C40   H6    1.079474 S    
C44   C46   1.397573 A    
C41   C43   1.371348 A    
C13   C15   1.378863 A    
C59   H30   1.109152 S    
C47   C51   1.512575 S    
C37   F5    1.358103 S    
O3    C2    1.299862 A    
N1    C17   1.435328 S    
C65   C66   1.526877 S    
C61   C62   1.529845 S    
C32   C39   1.410273 A    
C31   C33   1.415135 A    
C50   C57   1.517319 S    
C51   C52   1.517746 S    
C5    N1    1.368781 A    
C19   C25   1.409481 A    
O1    C1    1.295521 A    
Zn2   N4    2.050585 S    
N1    C7    1.368825 A    
C10   C12   1.422911 A    
C63   H41   1.105427 S    
C52   H8    1.100819 S    
C29   C32   1.413260 A    
C25   C38   1.405201 A    
C51   H11   1.112269 S    
C62   H32   1.111061 S    
C30   C36   1.409387 A    
C60   H27   1.110322 S    
C14   C28   1.395224 A    
O7    Zn1   1.991302 S    
C59   H31   1.105256 S    
C4    C28   1.454821 S    
C36   H4    1.079740 S    
C55   H20   1.082914 S    
C24   C40   1.389587 A    
C62   H33   1.109238 S    
C59   C60   1.529381 S    
C48   C49   1.441580 A    
C48   C53   1.516205 S    
C61   H35   1.107002 S    
O3    Zn1   1.999914 S    
O6    C4    1.313414 A    
C66   H44   1.110512 S    
C32   C34   1.415245 A    
C8    C26   1.400560 A    
C15   H1    1.083262 S    
C41   F7    1.357772 S    
C16   H2    1.083063 S    
O2    C2    1.298605 A    
C53   H16   1.103651 S    
C1    C46   1.415380 S    
C13   F1    1.354095 S    
C5    C21   1.403002 A    
C36   C38   1.389044 A    
C35   H3    1.079732 S    
C54   H13   1.110420 S    
C42   C45   1.397437 A    
C53   C54   1.526974 S    
O8    Zn2   1.991307 S    
C11   C27   1.423643 A    
C55   C56   1.531592 S    
C52   H7    1.105330 S    
C50   N3    1.373678 A    
C42   F8    1.354991 S    
C43   C45   1.399838 A    
C19   C34   1.411853 A    
C54   H12   1.106228 S    
C56   H19   1.107378 S    
C35   C37   1.390016 A    
C9    C17   1.417275 A    
C24   F4    1.358162 S    
C47   C50   1.428470 A    
O5    C3    1.311490 A    
C10   C18   1.420512 A    
C23   F3    1.358221 S    
C65   H46   1.105900 S    
C49   N4    1.384497 A    
C13   C27   1.401741 A    
C58   H22   1.110727 S    
C7    C25   1.399506 A    
C29   C33   1.415278 A    
C6    N2    1.369432 A    
C62   H34   1.110046 S    
C38   F6    1.358226 S    
C48   N3    1.381145 A    
C56   H18   1.110684 S    
C44   F10   1.356047 S    
C47   N4    1.382933 A    
C55   H21   1.105678 S    
C63   C64   1.526971 S    
C2    C45   1.421855 S    
C58   H23   1.107819 S    
Zn1   N3    2.050585 S    
C26   C37   1.405248 A    
C20   C26   1.409455 A    
O1    Zn1   1.993408 S    
C53   H15   1.086830 S    
C64   H38   1.111158 S    
C14   F2    1.355739 S    
C12   C28   1.421884 A    
C66   H42   1.109254 S    
N2    C18   1.436283 S    
C54   H14   1.108625 S    
C5    O9    1.349372 S    
C30   C34   1.415453 A    
C30   C31   1.412582 A    
C20   C33   1.411711 A    
O6    Zn2   2.029152 S    
C21   C23   1.405393 A    
C10   C63   1.528297 S    
N2    C8    1.368656 A    
O4    C1    1.299707 A    
C12   C59   1.526988 S    
C7    O12   1.350150 S    
C39   H5    1.079598 S    
C8    O11   1.350002 S    
C41   C46   1.394057 A    
C60   H29   1.110684 S    
C64   H39   1.110538 S    
C14   C16   1.378398 A    
C63   H40   1.103577 S    
C15   C17   1.393415 A    
C65   H45   1.103788 S    
C6    C22   1.401983 A    
C31   C40   1.410114 A    
C16   C18   1.395969 A    
C52   H9    1.108754 S    
C51   H10   1.102560 S    
C57   H26   1.088148 S    
C22   C24   1.405039 A    
C56   H17   1.107732 S    
C19   C21   1.410524 A    
C60   H28   1.108438 S    
C3    C27   1.468938 S    
C20   C22   1.409905 A    
C9    C11   1.421146 A    
O4    Zn2   1.999914 S    
O2    Zn2   1.993408 S    
O7    C4    1.299450 A    
C61   H36   1.101446 S    
O8    C3    1.309257 A    
C43   F9    1.352497 S    
O5    Zn1   2.029158 S    
C58   H24   1.109028 S    
C49   C55   1.517486 S    
C6    O10   1.349438 S    
C57   C58   1.527698 S    
C29   C35   1.409614 A    
C64   H37   1.109039 S    
C11   C61   1.523659 S    
C23   C39   1.390285 A    
C57   H25   1.106395 S    
C42   C44   1.371108 A    
C9    C65   1.527247 S    
C66   H43   1.110905 S    
