data_mof_unit_22266.cif
_audit_creation_date              2012-12-11T15:42:40-0500
_audit_creation_method            fapswitch 2.2
_symmetry_space_group_name_H-M    P1
_symmetry_Int_Tables_number       1
_space_group_crystal_system       triclinic
_cell_length_a                    6.960589
_cell_length_b                    14.536534
_cell_length_c                    16.278585
_cell_angle_alpha                 90.271303
_cell_angle_beta                  90.686191
_cell_angle_gamma                 89.61156
_cell_volume                      1646.93962805

loop_
_atom_site_label
_atom_site_type_symbol
_atom_type_description
_atom_site_fract_x
_atom_site_fract_y
_atom_site_fract_z
_atom_type_partial_charge
O1    O     O_R   0.505810 0.583360 0.413880 -0.542776
O2    O     O_R   0.175870 0.595480 0.585520 -0.541740
O3    O     O_R   0.005540 0.416640 0.586120 -0.540265
C1    C     C_R   0.346768 0.617072 0.615360 0.684363
O4    O     O_R   0.176100 0.594390 0.414490 -0.541305
O5    O     O_R   0.005770 0.415540 0.413870 -0.537979
C2    C     C_R   0.343391 0.618017 0.387047 0.697821
O6    O     O_R   0.505580 0.584460 0.586130 -0.534172
O7    O     O_3   0.339190 0.441320 0.500000 -0.368907
V1    V     V_3+5 0.064350 0.510890 0.500000 1.371663
O8    O     O_R   0.676050 0.404520 0.414480 -0.546492
C3    C     C_R   0.844722 0.385656 0.383497 0.702377
O9    O     O_R   0.675830 0.405610 0.585510 -0.537142
C4    C     C_R   0.846361 0.384023 0.613749 0.758488
V2    V     V_3+5 0.564340 0.489110 0.500000 1.373113
O10   O     O_3   0.839370 0.558680 0.500000 -0.377060
C5    C     C_2   0.718808 0.233840 0.800308 0.117493
C6    C     C_2   0.875688 0.182056 0.822429 -0.354206
H1    H     H_    0.000990 0.182521 0.783425 0.118781
C7    C     C_2   0.711796 0.282456 0.719657 -0.162206
C8    C     C_2   0.864510 0.322101 0.685215 -0.351655
H2    H     H_    0.570636 0.293616 0.692070 0.143583
H3    H     H_    0.005857 0.315001 0.713449 0.135265
C9    C     C_R   0.019529 0.252437 0.194738 -0.245019
H4    H     H_    0.132657 0.253137 0.151458 0.139536
C10   C     C_R   0.014576 0.319904 0.257045 0.153812
C11   C     C_R   0.855385 0.322511 0.311114 -0.081271
C12   C     C_R   0.695019 0.268903 0.290805 -0.234445
H5    H     H_    0.564047 0.277609 0.325398 0.124763
C13   C     C_R   0.694666 0.210142 0.221978 0.139768
C14   C     C_R   0.869315 0.191285 0.180448 -0.090735
C15   C     C_R   0.216714 0.695110 0.741304 -0.214940
H6    H     H_    0.101505 0.647366 0.738762 0.146114
C16   C     C_R   0.226012 0.757873 0.806620 -0.207851
H7    H     H_    0.110680 0.759081 0.850727 0.133612
C17   C     C_R   0.382385 0.817681 0.815367 -0.065727
C18   C     C_R   0.531880 0.812010 0.756820 0.125810
C19   C     C_R   0.537491 0.734638 0.703008 0.099474
C20   C     C_R   0.365309 0.685539 0.685166 -0.081783
C21   C     C_R   0.200589 0.750567 0.300582 0.082214
C22   C     C_R   0.221438 0.810842 0.234061 -0.222174
H8    H     H_    0.108343 0.860652 0.221678 0.123334
C23   C     C_R   0.385022 0.810132 0.184274 -0.084367
C24   C     C_R   0.533874 0.745113 0.201713 0.138741
C25   C     C_R   0.514379 0.685680 0.268970 -0.219538
H9    H     H_    0.627214 0.635671 0.281147 0.122249
C26   C     C_R   0.350877 0.686584 0.318939 -0.096300
O11   O     O_R   0.230120 0.912300 0.917180 -0.540023
O12   O     O_R   0.559740 0.902430 0.088770 -0.540879
O13   O     O_R   0.729930 0.081310 0.089370 -0.536317
C27   C     C_R   0.392501 0.878846 0.116292 0.696662
O14   O     O_R   0.559840 0.901330 0.917750 -0.538532
O15   O     O_R   0.730030 0.080210 0.917120 -0.540297
C28   C     C_R   0.391101 0.881801 0.887173 0.702009
O16   O     O_R   0.230020 0.913400 0.089430 -0.538605
O17   O     O_3   0.396460 0.055470 0.003290 -0.376674
V3    V     V_3+5 0.671360 0.985960 0.003250 1.373118
O18   O     O_R   0.059740 0.091300 0.917690 -0.541577
C29   C     C_R   0.888412 0.116173 0.891888 0.740889
O19   O     O_R   0.059640 0.092400 0.088720 -0.545763
C30   C     C_R   0.888731 0.117419 0.115530 0.681927
V4    V     V_3+5 0.171350 0.007820 0.003190 1.365765
O20   O     O_3   0.896380 0.938200 0.003220 -0.366295
C31   C     C_3   0.537996 0.243806 0.851851 -0.317429
C32   C     C_3   0.484646 0.345537 0.866881 -0.333379
C33   C     C_3   0.285942 0.355316 0.904814 -0.780139
H10   H     H_    0.279404 0.317750 0.963723 0.226776
H11   H     H_    0.254298 0.429129 0.916698 0.219303
H12   H     H_    0.174402 0.327932 0.862113 0.229306
H13   H     H_    0.593279 0.377095 0.908763 0.196303
H14   H     H_    0.482708 0.385048 0.808667 0.197563
H15   H     H_    0.418228 0.208775 0.818773 0.165704
H16   H     H_    0.552781 0.212565 0.913206 0.192333
C34   C     C_3   0.677962 0.889182 0.747256 -0.377479
C35   C     C_3   0.581281 0.981781 0.728524 -0.740597
H17   H     H_    0.482423 0.974994 0.674784 0.216712
H18   H     H_    0.499717 0.008353 0.781723 0.221259
H19   H     H_    0.692659 0.033227 0.713616 0.216947
H20   H     H_    0.773066 0.894634 0.802170 0.200970
H21   H     H_    0.772893 0.876018 0.694203 0.167594
C36   C     C_3   0.730850 0.691085 0.685053 -0.341337
C37   C     C_3   0.752111 0.598352 0.730088 -0.683339
H22   H     H_    0.792218 0.610617 0.795481 0.193147
H23   H     H_    0.618768 0.557111 0.729583 0.213211
H24   H     H_    0.864557 0.555670 0.700553 0.202792
H25   H     H_    0.754031 0.684159 0.618256 0.202147
H26   H     H_    0.849333 0.734864 0.707150 0.159402
C38   C     C_3   0.016731 0.759121 0.349574 -0.351110
C39   C     C_3   0.053033 0.802142 0.434597 -0.276964
C40   C     C_3   0.864814 0.815978 0.480363 -0.768740
H27   H     H_    0.772305 0.867032 0.447889 0.221190
H28   H     H_    0.786289 0.749988 0.484432 0.234268
H29   H     H_    0.895354 0.841749 0.543467 0.205455
H30   H     H_    0.149859 0.757823 0.472140 0.190975
H31   H     H_    0.123357 0.870043 0.427479 0.182443
H32   H     H_    0.910968 0.803694 0.316543 0.159861
H33   H     H_    0.944208 0.691720 0.354036 0.188444
C41   C     C_3   0.712569 0.733544 0.149791 -0.351112
C42   C     C_3   0.665442 0.691173 0.065899 -0.711836
H34   H     H_    0.601047 0.622107 0.073852 0.213428
H35   H     H_    0.563642 0.734900 0.030314 0.217314
H36   H     H_    0.799456 0.683408 0.030114 0.205841
H37   H     H_    0.789558 0.799516 0.143408 0.195373
H38   H     H_    0.818388 0.687037 0.180526 0.165630
C43   C     C_3   0.171203 0.392303 0.257480 -0.352074
C44   C     C_3   0.092643 0.485792 0.229862 -0.735263
H39   H     H_    0.019296 0.479214 0.169143 0.220881
H40   H     H_    0.989562 0.514405 0.274858 0.214883
H41   H     H_    0.213042 0.534757 0.223553 0.211406
H42   H     H_    0.246203 0.397168 0.317662 0.198204
H43   H     H_    0.286168 0.373297 0.214332 0.168029
C45   C     C_3   0.501918 0.186234 0.184978 -0.312196
C46   C     C_3   0.475621 0.237481 0.102687 -0.677898
H44   H     H_    0.451244 0.311858 0.113351 0.186544
H45   H     H_    0.602653 0.232687 0.062631 0.210617
H46   H     H_    0.353085 0.208975 0.067394 0.218067
H47   H     H_    0.483369 0.110908 0.178321 0.186964
H48   H     H_    0.385914 0.207124 0.227172 0.145883

loop_
_geom_bond_atom_site_label_1
_geom_bond_atom_site_label_2
_ccdc_geom_bond_type
O18   V4    S    
C21   C26   A    
C33   H11   S    
C18   C34   S    
C38   H32   S    
C22   H8    S    
C14   C30   S    
C1    O6    A    
C36   C37   S    
O15   C29   A    
C25   H9    S    
O11   C28   A    
C10   C11   A    
V4    O20   S    
C4    C8    S    
C17   C18   A    
C43   H42   S    
C9    C10   A    
C6    H1    S    
C5    C31   S    
O5    C3    A    
C13   C14   A    
C33   H12   S    
C44   H39   S    
C32   H13   S    
O16   V4    S    
C5    C7    S    
O12   V3    S    
O17   V3    S    
O19   V4    S    
C16   H7    S    
C15   C20   A    
C39   H30   S    
C24   C41   S    
O12   C27   A    
C31   H16   S    
O1    V2    S    
O7    V1    S    
C16   C17   A    
C36   H25   S    
C46   H46   S    
C33   H10   S    
C43   H43   S    
C34   H21   S    
O9    C4    A    
C22   C23   A    
O8    V2    S    
C10   C43   S    
C45   C46   S    
O14   C28   A    
V3    O20   S    
C25   C26   A    
C19   C20   A    
C34   C35   S    
C3    C11   S    
C9    H4    S    
O4    C2    A    
O15   V3    S    
O18   C29   A    
C32   H14   S    
C13   C45   S    
O19   C30   A    
C2    C26   S    
C39   H31   S    
O2    C1    A    
C35   H17   S    
C18   C19   A    
C40   H28   S    
C42   H34   S    
C1    C20   S    
C5    C6    D    
C38   C39   S    
C35   H18   S    
C36   H26   S    
O3    C4    A    
C21   C22   A    
C42   H35   S    
C7    H2    S    
C37   H22   S    
O6    V2    S    
C37   H23   S    
C34   H20   S    
O9    V2    S    
C23   C24   A    
O17   V4    S    
C32   C33   S    
O2    V1    S    
O11   V4    S    
C24   C25   A    
C40   H29   S    
C46   H44   S    
C12   H5    S    
O1    C2    A    
O13   V3    S    
C38   H33   S    
O5    V1    S    
O8    C3    A    
C37   H24   S    
C43   C44   S    
C31   C32   S    
C21   C38   S    
C8    H3    S    
O7    V2    S    
C9    C14   A    
O4    V1    S    
C19   C36   S    
O3    V1    S    
V1    O10   S    
C15   H6    S    
C45   H48   S    
C23   C27   S    
C40   H27   S    
C45   H47   S    
C44   H40   S    
C41   H38   S    
V2    O10   S    
C12   C13   A    
C27   O16   A    
C31   H15   S    
C35   H19   S    
C17   C28   S    
O14   V3    S    
C6    C29   S    
C42   H36   S    
C7    C8    D    
C41   C42   S    
C11   C12   A    
O13   C30   A    
C39   C40   S    
C41   H37   S    
C15   C16   A    
C46   H45   S    
C44   H41   S    
