data_mof_unit_68483.cif
_audit_creation_date              2012-12-10T17:06:14-0500
_audit_creation_method            fapswitch 2.2
_symmetry_space_group_name_H-M    P1
_symmetry_Int_Tables_number       1
_space_group_crystal_system       triclinic
_cell_length_a                    10.668402
_cell_length_b                    10.987416
_cell_length_c                    9.950109
_cell_angle_alpha                 113.244477
_cell_angle_beta                  99.462618
_cell_angle_gamma                 91.018626
_cell_volume                      1052.67376021

loop_
_atom_site_label
_atom_site_type_symbol
_atom_type_description
_atom_site_fract_x
_atom_site_fract_y
_atom_site_fract_z
_atom_type_partial_charge
C1    C     C_R   0.488220 0.252352 0.437214 0.840441
C2    C     C_R   0.511780 0.747648 0.562786 0.840441
C3    C     C_R   0.259685 0.500648 0.499528 0.838713
C4    C     C_R   0.740315 0.499351 0.500471 0.838712
C5    C     C_3   0.061662 0.608695 0.612891 0.138513
C6    C     C_3   0.938338 0.391304 0.387108 0.138515
C7    C     C_3   0.981332 0.499185 0.629402 0.156470
C8    C     C_3   0.018668 0.500814 0.370598 0.156467
C9    C     C_3   0.876763 0.499582 0.502528 -0.122036
C10   C     C_3   0.123237 0.500417 0.497472 -0.122035
C11   C     C_3   0.956714 0.609041 0.486267 0.133058
C12   C     C_3   0.043286 0.390959 0.513733 0.133058
C13   C     C_2   0.468950 0.108578 0.396007 -0.004541
C14   C     C_2   0.531052 0.891422 0.603993 -0.004539
C15   C     C_2   0.530335 0.057189 0.488959 0.211327
C16   C     C_2   0.469668 0.942812 0.511043 0.211325
C17   C     C_2   0.507154 0.513680 0.083155 -0.093130
C18   C     C_2   0.492846 0.486319 0.916845 -0.093130
Cu1   Cu    Cu3+1 0.522260 0.521810 0.644920 0.930282
Cu2   Cu    Cu3+1 0.477740 0.478190 0.355080 0.930282
H1    H     H_    0.425896 0.404619 0.837192 0.170577
H2    H     H_    0.574104 0.595381 0.162808 0.170577
N1    N     N_2   0.444270 0.445410 0.137360 -0.217502
N2    N     N_2   0.555730 0.554590 0.862640 -0.217502
O1    O     O_R   0.511880 0.332340 0.577400 -0.582731
O2    O     O_R   0.488120 0.667660 0.422600 -0.582731
O3    O     O_R   0.474280 0.295500 0.332650 -0.580278
O4    O     O_R   0.525720 0.704500 0.667350 -0.580278
O5    O     O_R   0.335640 0.518390 0.622350 -0.584353
O6    O     O_R   0.664360 0.481610 0.377650 -0.584353
O7    O     O_R   0.298050 0.481550 0.377590 -0.572732
O8    O     O_R   0.701950 0.518450 0.622410 -0.572732
C19   C     C_3   0.963630 0.500621 0.777951 -0.844226
H3    H     H_    0.056864 0.493712 0.840914 0.226358
H4    H     H_    0.927316 0.596071 0.841612 0.251998
H5    H     H_    0.895747 0.415760 0.760628 0.233154
C20   C     C_3   0.036370 0.499379 0.222050 -0.844230
H6    H     H_    0.943135 0.506282 0.159084 0.226360
H7    H     H_    0.104249 0.584244 0.239375 0.233155
H8    H     H_    0.072689 0.403931 0.158391 0.251999
C21   C     C_3   0.133185 0.731905 0.740825 -0.856886
H9    H     H_    0.064190 0.795902 0.801636 0.237801
H10   H     H_    0.199094 0.702090 0.818705 0.244119
H11   H     H_    0.189131 0.788283 0.696157 0.213057
C22   C     C_3   0.866816 0.268094 0.259175 -0.856889
H12   H     H_    0.935810 0.204099 0.198360 0.237801
H13   H     H_    0.810873 0.211714 0.303844 0.213058
H14   H     H_    0.800903 0.297909 0.181297 0.244119
C23   C     C_3   0.905566 0.733089 0.473078 -0.874566
H15   H     H_    0.982939 0.793004 0.458462 0.234699
H16   H     H_    0.826103 0.703775 0.376075 0.247747
H17   H     H_    0.869517 0.793634 0.575482 0.225000
C24   C     C_3   0.094434 0.266911 0.526922 -0.874566
H18   H     H_    0.017062 0.206996 0.541541 0.234699
H19   H     H_    0.130482 0.206364 0.424517 0.225000
H20   H     H_    0.173898 0.296224 0.623924 0.247745
C25   C     C_3   0.329707 0.892380 0.445979 -0.885937
H21   H     H_    0.271572 0.976036 0.450094 0.239630
H22   H     H_    0.318043 0.815322 0.330844 0.242311
H23   H     H_    0.288547 0.846683 0.512661 0.204875
C26   C     C_3   0.670295 0.107622 0.554023 -0.885931
H24   H     H_    0.728430 0.023967 0.549905 0.239628
H25   H     H_    0.711454 0.153323 0.487344 0.204874
H26   H     H_    0.681958 0.184678 0.669159 0.242310
C27   C     C_3   0.614193 0.975844 0.752471 -0.911072
H27   H     H_    0.588355 0.947412 0.840019 0.242956
H28   H     H_    0.716293 0.960758 0.748359 0.238026
H29   H     H_    0.598014 0.082437 0.788783 0.246474
C28   C     C_3   0.385813 0.024154 0.247528 -0.911070
H30   H     H_    0.411656 0.052583 0.159980 0.242954
H31   H     H_    0.401990 0.917561 0.211219 0.246475
H32   H     H_    0.283712 0.039242 0.251634 0.238027
C29   C     C_R   0.637430 0.668254 0.964385 0.333855
C30   C     C_R   0.593935 0.795378 0.007510 -0.166962
C31   C     C_R   0.674524 0.906673 0.109473 -0.171639
C32   C     C_R   0.798560 0.891278 0.168435 -0.097237
C33   C     C_R   0.841998 0.764664 0.125894 -0.184704
C34   C     C_R   0.761077 0.653329 0.025440 -0.219829
H33   H     H_    0.497694 0.807822 0.962938 0.130894
H34   H     H_    0.641089 0.004816 0.142450 0.143181
H35   H     H_    0.860951 0.977153 0.247311 0.132259
H36   H     H_    0.938001 0.752720 0.171487 0.149596
H37   H     H_    0.793694 0.555052 0.994574 0.132986
C35   C     C_R   0.362572 0.331744 0.035615 0.333855
C36   C     C_R   0.406069 0.204622 0.992492 -0.166958
C37   C     C_R   0.325482 0.093325 0.890529 -0.171639
C38   C     C_R   0.201446 0.108718 0.831563 -0.097236
C39   C     C_R   0.158005 0.235330 0.874103 -0.184702
C40   C     C_R   0.238924 0.346667 0.974557 -0.219832
H38   H     H_    0.502310 0.192179 0.037065 0.130893
H39   H     H_    0.358919 0.995182 0.857553 0.143182
H40   H     H_    0.139057 0.022842 0.752687 0.132259
H41   H     H_    0.062003 0.247272 0.828507 0.149595
H42   H     H_    0.206306 0.444943 0.005422 0.132987

loop_
_geom_bond_atom_site_label_1
_geom_bond_atom_site_label_2
_ccdc_geom_bond_type
C38   C39   A    
C6    C22   S    
C26   H26   S    
C18   H1    S    
C21   H10   S    
C21   H9    S    
Cu1   Cu2   S    
C6    C9    S    
Cu2   O6    S    
C24   H18   S    
C17   N1    D    
Cu2   O2    S    
C18   N2    D    
C5    C11   S    
C20   H8    S    
C37   H39   S    
C6    C12   S    
N2    C29   S    
C24   H20   S    
C15   C16   S    
C19   H5    S    
C28   H31   S    
C29   C30   A    
C40   H42   S    
C26   H25   S    
C34   H37   S    
C23   H16   S    
C29   C34   A    
C31   H34   S    
C12   C24   S    
C33   C34   A    
C27   H29   S    
C22   H13   S    
C38   H40   S    
C1    O1    A    
C7    C19   S    
C28   H30   S    
C2    C14   S    
Cu1   O8    S    
C19   H3    S    
C24   H19   S    
C7    C12   S    
C30   C31   A    
C35   C36   A    
N1    C35   S    
C5    C7    S    
C37   C38   A    
C25   H23   S    
C6    C8    S    
C27   H28   S    
C36   C37   A    
C28   H32   S    
C31   C32   A    
C20   H6    S    
C11   C23   S    
Cu2   N1    S    
C23   H17   S    
C17   C18   S    
C15   C26   S    
C2    O2    A    
C32   C33   A    
C3    O7    A    
Cu1   O4    S    
C9    C11   S    
C4    O8    A    
C10   C12   S    
C23   H15   S    
C30   H33   S    
C13   C15   D    
C21   H11   S    
C14   C16   D    
C1    C13   S    
C8    C20   S    
Cu1   O5    S    
C22   H14   S    
C7    C9    S    
C5    C21   S    
C39   H41   S    
C32   H35   S    
C36   H38   S    
Cu2   O3    S    
C17   H2    S    
Cu1   N2    S    
C5    C10   S    
C20   H7    S    
C3    C10   S    
C3    O5    A    
C25   H21   S    
C13   C28   S    
C33   H36   S    
C8    C11   S    
C19   H4    S    
C14   C27   S    
C16   C25   S    
C26   H24   S    
Cu1   O1    S    
C25   H22   S    
C22   H12   S    
C39   C40   A    
C8    C10   S    
C27   H27   S    
C35   C40   A    
C1    O3    A    
C2    O4    A    
C4    C9    S    
C4    O6    A    
Cu2   O7    S    
