data_mof_unit_41405.cif
_audit_creation_date              2012-12-10T17:23:13-0500
_audit_creation_method            fapswitch 2.2
_symmetry_space_group_name_H-M    P1
_symmetry_Int_Tables_number       1
_space_group_crystal_system       triclinic
_cell_length_a                    15.862626
_cell_length_b                    10.862477
_cell_length_c                    9.682894
_cell_angle_alpha                 86.628224
_cell_angle_beta                  89.741966
_cell_angle_gamma                 94.103342
_cell_volume                      1661.21316202

loop_
_atom_site_label
_atom_site_type_symbol
_atom_type_description
_atom_site_fract_x
_atom_site_fract_y
_atom_site_fract_z
_atom_type_partial_charge
C1    C     C_R   0.491799 0.261892 0.504522 0.834064
C2    C     C_3   0.082928 0.486394 0.506727 0.067786
C3    C     C_3   0.976641 0.581984 0.577308 0.008199
C4    C     C_3   0.916290 0.487693 0.506459 0.003303
C5    C     C_3   0.033267 0.593225 0.446654 0.129244
C6    C     C_3   0.972672 0.499068 0.375215 -0.223632
C7    C     C_1   0.174728 0.488827 0.504263 -0.034982
C8    C     C_1   0.824600 0.489842 0.503573 0.063770
C9    C     C_R   0.353684 0.086927 0.657053 -0.127854
C10   C     C_R   0.284478 0.005489 0.698909 -0.169530
C11   C     C_R   0.283008 0.880636 0.675354 0.158839
C12   C     C_R   0.340152 0.497860 0.500417 0.819195
C13   C     C_R   0.349860 0.837480 0.603879 -0.173638
C14   C     C_R   0.419324 0.917510 0.556116 0.088980
C15   C     C_R   0.421170 0.046477 0.576233 -0.022177
C16   C     C_R   0.489901 0.125779 0.513743 -0.160953
C17   C     C_R   0.554670 0.073409 0.440654 0.007472
C18   C     C_R   0.550903 0.947356 0.427158 -0.269261
C19   C     C_R   0.487340 0.869277 0.489261 -0.081226
C20   C     C_R   0.648391 0.602157 0.126300 0.185272
C21   C     C_R   0.721771 0.593847 0.043238 0.147352
C22   C     C_R   0.713874 0.620719 0.901828 -0.250977
C23   C     C_R   0.497646 0.736853 0.496320 0.745381
C24   C     C_R   0.634022 0.621089 0.846423 -0.173213
C25   C     C_R   0.566812 0.557570 0.920438 0.182413
C26   C     C_R   0.570369 0.552161 0.069122 0.067367
C27   C     C_R   0.432329 0.452591 0.075392 0.059592
C28   C     C_R   0.432197 0.457060 0.928719 -0.027863
C29   C     C_R   0.659675 0.497243 0.500285 0.860715
C30   C     C_3   0.966207 0.380663 0.566433 0.014726
C31   C     C_3   0.023407 0.391564 0.435832 -0.212301
C32   C     C_1   0.250362 0.493008 0.501965 -0.108943
C33   C     C_1   0.749210 0.492938 0.501493 -0.080980
C34   C     C_3   0.026698 0.474478 0.637707 0.027253
Cu1   Cu    Cu3+1 0.499990 0.499990 0.640660 0.987656
Cu2   Cu    Cu3+1 0.500010 0.500010 0.359340 0.994230
H1    H     H_    0.043671 0.313302 0.378040 0.167729
H2    H     H_    0.346854 0.740039 0.586456 0.134421
H3    H     H_    0.600889 0.909624 0.373122 0.176500
H4    H     H_    0.768345 0.640939 0.835025 0.202789
H5    H     H_    0.627577 0.663524 0.744608 0.201255
H6    H     H_    0.376170 0.423665 0.876218 0.206105
H7    H     H_    0.950942 0.505672 0.266904 0.157265
H8    H     H_    0.234982 0.037339 0.762806 0.165531
N1    N     N_R   0.500800 0.501210 0.147910 -0.228763
N2    N     N_R   0.500830 0.501290 0.852040 -0.188812
O1    O     O_R   0.499990 0.319640 0.618810 -0.543242
O2    O     O_R   0.500000 0.319660 0.381240 -0.523764
O3    O     O_R   0.379070 0.499980 0.618770 -0.571140
O4    O     O_R   0.379080 0.500000 0.381190 -0.578657
O5    O     O_R   0.500000 0.680340 0.618760 -0.602759
O6    O     O_R   0.500010 0.680360 0.381190 -0.590112
O7    O     O_R   0.620920 0.500000 0.618810 -0.582827
O8    O     O_R   0.620930 0.500020 0.381230 -0.562615
C35   C     C_3   0.215339 0.791093 0.740840 -0.398859
C36   C     C_3   0.250183 0.720436 0.866755 -0.777194
H9    H     H_    0.297202 0.656697 0.833927 0.256777
H10   H     H_    0.280725 0.785905 0.938492 0.255111
H11   H     H_    0.198130 0.665576 0.923872 0.252839
H12   H     H_    0.160978 0.841206 0.774963 0.250692
H13   H     H_    0.191360 0.724955 0.664509 0.203073
C37   C     C_2   0.356789 0.389829 0.144258 0.911507
O9    O     O_2   0.287367 0.428389 0.120944 -0.630408
O10   O     O_R   0.363610 0.282669 0.229149 -0.725505
H14   H     H_    0.307141 0.247778 0.269293 0.321376
C38   C     C_3   0.647682 0.730825 0.181200 -0.334612
C39   C     C_3   0.702714 0.752271 0.309066 -0.784242
H15   H     H_    0.758108 0.697196 0.314630 0.247648
H16   H     H_    0.727564 0.850580 0.307093 0.242463
H17   H     H_    0.665671 0.731408 0.405535 0.223916
H18   H     H_    0.671994 0.799931 0.098271 0.194172
H19   H     H_    0.582798 0.757696 0.196992 0.214888
C40   C     C_3   0.808370 0.575031 0.100570 -0.397777
C41   C     C_3   0.869197 0.690583 0.075935 -0.831304
H20   H     H_    0.877765 0.716026 0.963961 0.265589
H21   H     H_    0.845663 0.770502 0.126601 0.265063
H22   H     H_    0.932374 0.672370 0.117177 0.246677
H23   H     H_    0.804645 0.545217 0.211733 0.199138
H24   H     H_    0.834342 0.497447 0.048406 0.206782
C42   C     C_2   0.929834 0.259189 0.630273 0.837916
O11   O     O_2   0.977196 0.180819 0.670101 -0.590349
O12   O     O_R   0.842346 0.235988 0.643873 -0.738173
H25   H     H_    0.825733 0.150786 0.688226 0.338854
C43   C     C_3   0.074942 0.710909 0.372792 -0.407099
C44   C     C_3   0.013999 0.813044 0.352923 -0.779181
H26   H     H_    0.950094 0.774767 0.324954 0.255290
H27   H     H_    0.009012 0.862435 0.449388 0.274264
H28   H     H_    0.038099 0.881202 0.269529 0.245884
H29   H     H_    0.130009 0.745714 0.433261 0.204336
H30   H     H_    0.098480 0.687094 0.270168 0.216556
C45   C     C_2   0.951363 0.690281 0.653127 0.817339
O13   O     O_2   0.003193 0.746107 0.723610 -0.619354
O14   O     O_R   0.869804 0.729625 0.638832 -0.798298
H31   H     H_    0.861130 0.805334 0.692201 0.330919
C46   C     C_3   0.062196 0.458099 0.783758 -0.345041
C47   C     C_3   0.993155 0.449024 0.894752 -0.816391
H32   H     H_    0.957353 0.532990 0.888469 0.260555
H33   H     H_    0.948853 0.366676 0.882878 0.258239
H34   H     H_    0.022297 0.440738 0.998633 0.248871
H35   H     H_    0.097264 0.373083 0.791732 0.244769
H36   H     H_    0.107154 0.538181 0.801338 0.223583
C48   C     C_2   0.630986 0.146228 0.382711 0.863244
O15   O     O_2   0.666033 0.227796 0.447951 -0.598243
O16   O     O_R   0.664910 0.117447 0.255991 -0.765416
H37   H     H_    0.717388 0.172296 0.228275 0.333595
C49   C     C_2   0.360840 0.198126 0.735234 0.861078
O17   O     O_2   0.307546 0.273349 0.721162 -0.589000
O18   O     O_R   0.421272 0.209516 0.839241 -0.731110
H38   H     H_    0.459055 0.138045 0.846657 0.310370

loop_
_geom_bond_atom_site_label_1
_geom_bond_atom_site_label_2
_ccdc_geom_bond_type
C35   C36   S    
O14   H31   S    
C21   C40   S    
Cu1   O7    S    
C40   C41   S    
Cu1   Cu2   S    
C4    C8    S    
Cu1   O1    S    
C12   O3    A    
C11   C35   S    
C44   H26   S    
O18   H38   S    
C28   N2    A    
C41   H21   S    
C20   C38   S    
C5    C6    S    
C49   O17   D    
C15   C16   A    
C47   H34   S    
C29   C33   S    
C36   H9    S    
C3    C45   S    
C18   C19   A    
C18   H3    S    
C37   O10   S    
C26   N1    A    
C43   C44   S    
C38   H19   S    
C46   C47   S    
C16   C17   A    
C41   H22   S    
C47   H33   S    
Cu1   O3    S    
C40   H23   S    
Cu2   O2    S    
C13   C14   A    
C9    C10   A    
Cu2   O6    S    
C30   C42   S    
C2    C34   S    
C6    C31   S    
C21   C22   A    
C12   C32   S    
C24   H5    S    
C43   H30   S    
O16   H37   S    
C29   O7    A    
C44   H27   S    
C41   H20   S    
C30   C34   S    
C10   H8    S    
C39   H15   S    
C24   C25   A    
C42   O12   S    
C45   O13   D    
C5    C43   S    
C46   H35   S    
C1    O1    A    
C3    C34   S    
C9    C49   S    
C31   H1    S    
C2    C31   S    
C39   H16   S    
C19   C23   S    
C17   C48   S    
C37   O9    D    
C27   C37   S    
C45   O14   S    
C23   O5    A    
C38   H18   S    
C22   H4    S    
C47   H32   S    
C17   C18   A    
C40   H24   S    
Cu2   N1    S    
C1    C16   S    
C34   C46   S    
C48   O16   S    
C13   H2    S    
C4    C6    S    
C6    H7    S    
Cu1   O5    S    
C22   C24   A    
C2    C5    S    
C43   H29   S    
C3    C4    S    
Cu2   O4    S    
C49   O18   S    
C44   H28   S    
C7    C32   T    
C14   C19   A    
C42   O11   D    
C3    C5    S    
C12   O4    A    
C1    O2    A    
C36   H11   S    
C39   H17   S    
O10   H14   S    
C25   C26   A    
C11   C13   A    
C27   N1    A    
C23   O6    A    
C30   C31   S    
C20   C26   A    
C35   H13   S    
C28   H6    S    
C36   H10   S    
C38   C39   S    
C8    C33   T    
C9    C15   A    
C48   O15   D    
Cu2   O8    S    
C10   C11   A    
C20   C21   A    
C2    C7    S    
O12   H25   S    
C29   O8    A    
C27   C28   A    
C14   C15   A    
C35   H12   S    
Cu1   N2    S    
C25   N2    A    
C4    C30   S    
C46   H36   S    
