data_mof_unit_21900.cif
_audit_creation_date              2012-12-10T16:49:29-0500
_audit_creation_method            fapswitch 2.2
_symmetry_space_group_name_H-M    P1
_symmetry_Int_Tables_number       1
_space_group_crystal_system       triclinic
_cell_length_a                    7.884376
_cell_length_b                    8.570501
_cell_length_c                    12.826909
_cell_angle_alpha                 89.504045
_cell_angle_beta                  89.310948
_cell_angle_gamma                 93.096556
_cell_volume                      865.387690771

loop_
_atom_site_label
_atom_site_type_symbol
_atom_type_description
_atom_site_fract_x
_atom_site_fract_y
_atom_site_fract_z
_atom_type_partial_charge
C1    C     C_R   0.456240 0.206102 0.497686 0.917476
C2    C     C_R   0.715904 0.553289 0.139407 -0.170543
C3    C     C_R   0.590118 0.465862 0.871573 0.448962
C4    C     C_R   0.409880 0.534142 0.128428 0.448962
C5    C     C_R   0.579965 0.505673 0.975157 -0.122605
C6    C     C_R   0.420034 0.494332 0.024844 -0.122610
C7    C     C_2   0.435528 0.044554 0.513960 0.110341
C8    C     C_2   0.564472 0.955446 0.486040 0.110341
C9    C     C_2   0.869624 0.588235 0.199832 0.640457
C10   C     C_2   0.130370 0.411797 0.800167 0.640467
C11   C     C_R   0.543760 0.793898 0.502313 0.917476
C12   C     C_R   0.465743 0.490494 0.699434 0.918126
C13   C     C_R   0.534257 0.509507 0.300566 0.918125
C14   C     C_R   0.555649 0.530106 0.188540 -0.271556
C15   C     C_R   0.444350 0.469898 0.811460 -0.271549
C16   C     C_R   0.275392 0.443967 0.969350 0.464587
C17   C     C_R   0.724605 0.556043 0.030650 0.464581
C18   C     C_R   0.284094 0.446723 0.860593 -0.170555
Cl1   Cl    Cl    0.255122 0.664973 0.163491 -0.502276
Cl2   Cl    Cl    0.744883 0.335038 0.836508 -0.502291
Cl3   Cl    Cl    0.099274 0.350370 0.035022 -0.438932
Cl4   Cl    Cl    0.900717 0.649649 0.964976 -0.438929
Cl5   Cl    Cl    0.258723 0.982363 0.594644 -0.514459
Cl6   Cl    Cl    0.741276 0.017637 0.405355 -0.514469
H1    H     H_    0.999835 0.622170 0.424607 0.221921
H2    H     H_    0.000165 0.377832 0.575395 0.221909
H3    H     H_    0.912500 0.708767 0.212883 0.107012
H4    H     H_    0.087482 0.291269 0.787109 0.107007
N1    N     N_2   0.054030 0.541640 0.471970 -0.108507
N2    N     N_2   0.945970 0.458360 0.528030 -0.108512
O1    O     O_R   0.609680 0.261530 0.506880 -0.578993
O2    O     O_2   0.053381 0.518330 0.762851 -0.460499
O3    O     O_R   0.390320 0.738470 0.493120 -0.578993
O4    O     O_R   0.323330 0.288220 0.488910 -0.597973
O5    O     O_R   0.676670 0.711780 0.511090 -0.597973
O6    O     O_R   0.619510 0.488830 0.661140 -0.557272
O7    O     O_R   0.380490 0.511170 0.338860 -0.557272
O8    O     O_R   0.333160 0.515520 0.643180 -0.605913
O9    O     O_R   0.666840 0.484480 0.356820 -0.605902
O10   O     O_2   0.946623 0.481715 0.237153 -0.460513
Zn1   Zn    Zn3+2 0.691200 0.482180 0.511990 1.100675
Zn2   Zn    Zn3+2 0.308800 0.517820 0.488010 1.100674

loop_
_geom_bond_atom_site_label_1
_geom_bond_atom_site_label_2
_ccdc_geom_bond_type
C15   C18   A    
N2    Zn1   S    
O8    Zn2   S    
N1    N2    D    
N1    Zn2   S    
C12   O6    A    
C13   O7    A    
C17   Cl4   S    
O4    Zn2   S    
C12   C15   S    
C11   O3    A    
C11   O5    A    
C2    C14   A    
C3    Cl2   S    
O9    Zn1   S    
C13   C14   S    
C2    C17   A    
C4    C14   A    
C4    Cl1   S    
O6    Zn1   S    
C16   Cl3   S    
C10   C18   S    
C8    C11   S    
C7    Cl5   S    
O3    Zn2   S    
C16   C18   A    
C8    Cl6   S    
C1    O4    A    
H2    N2    S    
H1    N1    S    
C5    C6    A    
O5    Zn1   S    
C13   O9    A    
C5    C17   A    
C6    C16   A    
C12   O8    A    
C10   O2    D    
C1    O1    A    
C3    C15   A    
C9    H3    S    
C4    C6    A    
C7    C8    D    
C10   H4    S    
O7    Zn2   S    
O1    Zn1   S    
C1    C7    S    
C2    C9    S    
C9    O10   D    
C3    C5    A    
