data_mof_unit_5768.cif
_audit_creation_date              2012-12-10T17:54:24-0500
_audit_creation_method            fapswitch 2.2
_symmetry_space_group_name_H-M    P1
_symmetry_Int_Tables_number       1
_space_group_crystal_system       triclinic
_cell_length_a                    27.715253
_cell_length_b                    10.713181
_cell_length_c                    9.869166
_cell_angle_alpha                 88.908103
_cell_angle_beta                  89.844481
_cell_angle_gamma                 91.731101
_cell_volume                      2928.45307683

loop_
_atom_site_label
_atom_site_type_symbol
_atom_type_description
_atom_site_fract_x
_atom_site_fract_y
_atom_site_fract_z
_atom_type_partial_charge
C1    C     C_R   0.502317 0.259493 0.502389 0.884483
C2    C     C_R   0.277713 0.473400 0.379907 -0.040743
C3    C     C_R   0.252944 0.472407 0.503401 0.281861
C4    C     C_R   0.101805 0.472766 0.510986 -0.093236
C5    C     C_R   0.125503 0.357476 0.526804 -0.181381
C6    C     C_R   0.097075 0.246199 0.550206 0.480351
C7    C     C_R   0.129186 0.585419 0.495086 -0.007584
C8    C     C_R   0.353345 0.489797 0.501052 -0.046105
C9    C     C_R   0.646684 0.498986 0.499484 -0.045130
C10   C     C_R   0.972180 0.366268 0.505343 0.076276
C11   C     C_R   0.976738 0.596342 0.509133 0.045700
C12   C     C_R   0.406027 0.497982 0.500216 0.875089
C13   C     C_R   0.949218 0.482763 0.505912 0.078123
C14   C     C_R   0.943348 0.256229 0.489910 -0.205956
C15   C     C_R   0.893411 0.260264 0.484309 -0.131024
C16   C     C_R   0.870449 0.374020 0.493010 -0.024023
C17   C     C_R   0.898209 0.485708 0.503304 -0.056675
C18   C     C_R   0.874876 0.600356 0.511062 -0.021456
C19   C     C_R   0.824438 0.601020 0.509418 0.507334
C20   C     C_R   0.820088 0.379121 0.490791 0.508885
C21   C     C_R   0.722298 0.507644 0.621320 -0.100846
C22   C     C_R   0.672214 0.509798 0.621651 -0.210731
C23   C     C_R   0.494635 0.738585 0.499212 0.890712
C24   C     C_R   0.671927 0.486192 0.377148 -0.212605
C25   C     C_R   0.722018 0.483594 0.377293 -0.099907
C26   C     C_R   0.747099 0.494267 0.499298 0.322458
C27   C     C_R   0.023049 0.363518 0.518510 -0.032666
C28   C     C_R   0.050718 0.476359 0.510575 0.085191
C29   C     C_R   0.027685 0.593074 0.501386 0.055927
C30   C     C_R   0.046903 0.251263 0.543386 -0.276451
C31   C     C_R   0.106222 0.698926 0.479938 -0.108452
C32   C     C_R   0.952210 0.709587 0.520695 -0.208730
C33   C     C_R   0.902201 0.711291 0.521460 -0.130105
C34   C     C_R   0.593981 0.500128 0.499835 0.883399
C35   C     C_R   0.056455 0.702947 0.482810 -0.209044
C36   C     C_R   0.500989 0.103937 0.763928 -0.172711
C37   C     C_R   0.482955 0.038634 0.877771 -0.148600
C38   C     C_R   0.458303 0.925076 0.862483 -0.106105
C39   C     C_R   0.456116 0.871178 0.735313 -0.137886
C40   C     C_R   0.478404 0.931730 0.621449 0.096586
C41   C     C_R   0.494302 0.056179 0.631683 0.104721
C42   C     C_R   0.502973 0.125161 0.508586 -0.124224
C43   C     C_R   0.504973 0.064712 0.384419 -0.233040
C44   C     C_R   0.498919 0.937809 0.380264 -0.183691
C45   C     C_R   0.176548 0.360368 0.518594 0.572775
C46   C     C_R   0.487492 0.870593 0.498868 -0.119527
C47   C     C_R   0.435617 0.338686 0.143983 -0.310064
C48   C     C_R   0.403297 0.260210 0.075649 0.392586
C49   C     C_R   0.403244 0.261334 0.935066 -0.244849
C50   C     C_R   0.435486 0.339478 0.863043 -0.259673
C51   C     C_R   0.468176 0.420746 0.929344 0.160227
C52   C     C_R   0.468214 0.420588 0.074092 0.128024
C53   C     C_R   0.530285 0.576276 0.069831 -0.116186
C54   C     C_R   0.530281 0.576212 0.926406 -0.116691
C55   C     C_R   0.179333 0.582523 0.493554 0.519230
C56   C     C_R   0.278040 0.478494 0.625690 -0.073732
C57   C     C_R   0.328119 0.487103 0.624758 -0.201200
C58   C     C_R   0.327836 0.481869 0.378535 -0.120259
H1    H     H_    0.258623 0.478149 0.721075 0.152794
H2    H     H_    0.970635 0.798639 0.533041 0.156948
H3    H     H_    0.885041 0.800341 0.530231 0.191540
H4    H     H_    0.041579 0.793668 0.465942 0.176751
H5    H     H_    0.512137 0.115122 0.289876 0.175043
H6    H     H_    0.521743 0.188354 0.783409 0.177114
H7    H     H_    0.487449 0.077341 0.977681 0.147854
H8    H     H_    0.258048 0.468931 0.285373 0.153332
H9    H     H_    0.442489 0.876555 0.949795 0.169674
H10   H     H_    0.504520 0.892323 0.284574 0.172591
H11   H     H_    0.554970 0.638488 0.122515 0.144705
H12   H     H_    0.434263 0.332893 0.251224 0.236646
H13   H     H_    0.378639 0.199960 0.880716 0.211006
H14   H     H_    0.434275 0.331815 0.755798 0.235975
H15   H     H_    0.554960 0.638410 0.870729 0.152302
H16   H     H_    0.653580 0.520017 0.717224 0.160922
H17   H     H_    0.741912 0.515901 0.715638 0.138189
H18   H     H_    0.958398 0.165479 0.477714 0.150586
H19   H     H_    0.346962 0.492200 0.720596 0.172217
N1    N     N_R   0.201594 0.471489 0.504748 -0.372135
N2    N     N_R   0.798394 0.491422 0.499449 -0.359660
N3    N     N_R   0.499540 0.498800 0.142780 -0.107870
N4    N     N_R   0.499520 0.498720 0.857170 -0.118431
O1    O     O_R   0.500000 0.316780 0.614690 -0.651783
O2    O     O_2   0.792913 0.272970 0.481093 -0.546844
O3    O     O_2   0.205949 0.689837 0.480541 -0.502980
O4    O     O_2   0.801486 0.710040 0.517162 -0.547872
O5    O     O_R   0.500000 0.316750 0.385360 -0.638565
O6    O     O_R   0.428760 0.500030 0.614650 -0.648232
O7    O     O_R   0.428750 0.500010 0.385320 -0.632175
O8    O     O_R   0.500000 0.683250 0.614640 -0.625559
O9    O     O_R   0.500000 0.683220 0.385310 -0.616148
O10   O     O_R   0.571250 0.499990 0.614680 -0.620351
O11   O     O_R   0.571240 0.499970 0.385350 -0.619300
O12   O     O_2   0.201488 0.254532 0.521056 -0.415672
Zn1   Zn    Zn3+2 0.500000 0.500020 0.653130 0.933702
Zn2   Zn    Zn3+2 0.500000 0.499980 0.346870 0.949721
H20   H     H_    0.346494 0.482563 0.281932 0.171444
H21   H     H_    0.126705 0.785853 0.465093 0.234573
H22   H     H_    0.653052 0.477511 0.281686 0.162575
H23   H     H_    0.741413 0.473381 0.282940 0.138606
H24   H     H_    0.437117 0.781920 0.726934 0.163995
S1    S     S_3+6 0.362831 0.159318 0.165873 0.044848
O13   O     O_2   0.312066 0.193396 0.131425 -0.216326
O14   O     O_2   0.370326 0.027060 0.124169 -0.296170
O15   O     O_3   0.370764 0.170679 0.334235 -0.530900
H25   H     H_    0.400537 0.124909 0.353973 0.353336
S2    S     S_3+6 0.120828 0.098505 0.595727 0.067410
O16   O     O_2   0.146444 0.046527 0.475782 -0.226217
O17   O     O_2   0.155636 0.113768 0.711275 -0.220731
O18   O     O_3   0.076459 0.996529 0.644480 -0.606170
H26   H     H_    0.093251 0.921455 0.677182 0.386183
H27   H     H_    0.872855 0.173451 0.473090 0.194959
H28   H     H_    0.026650 0.165804 0.563887 0.203901

loop_
_geom_bond_atom_site_label_1
_geom_bond_atom_site_label_2
_ccdc_geom_bond_type
C10   C27   A    
C21   C26   A    
S1    O13   D    
O1    Zn1   S    
C41   C42   A    
C7    C55   A    
C53   H11   S    
C43   H5    S    
O9    Zn2   S    
C53   C54   A    
C40   C46   A    
C24   H22   S    
C28   C29   A    
C5    C6    A    
C9    C22   A    
S2    O16   D    
C15   C16   A    
O6    Zn1   S    
C56   C57   A    
C18   C19   A    
O8    Zn1   S    
C50   H14   S    
C34   O10   A    
C58   H20   S    
C8    C58   A    
C25   H23   S    
C16   C17   A    
C37   H7    S    
C23   O8    A    
C45   N1    A    
C51   N4    A    
C20   N2    A    
C16   C20   A    
O7    Zn2   S    
C45   O12   S    
S1    O14   D    
C23   C46   S    
C21   C22   A    
C27   C30   A    
C36   C41   A    
C4    C7    A    
O15   H25   S    
C4    C28   A    
C44   C46   A    
C17   C18   A    
C7    C31   A    
C12   O7    A    
C51   C52   A    
C15   H27   S    
C53   N3    A    
C24   C25   A    
C10   C14   A    
C39   C40   A    
C55   N1    A    
C2    H8    S    
C1    O1    A    
C5    C45   A    
O11   Zn2   S    
C30   H28   S    
C14   H18   S    
C43   C44   A    
C47   H12   S    
C37   C38   A    
C57   H19   S    
C8    C57   A    
C54   H15   S    
C3    C56   A    
C47   C48   A    
C8    C12   S    
C50   C51   A    
C6    S2    S    
C23   O9    A    
N3    Zn2   S    
C19   N2    A    
C40   C41   A    
C6    C30   A    
C11   C32   A    
S1    O15   S    
C9    C34   S    
C31   C35   A    
C44   H10   S    
C42   C43   A    
C32   H2    S    
C1    O5    A    
C21   H17   S    
C36   C37   A    
C12   O6    A    
C4    C5    A    
C19   O4    S    
C10   C13   A    
C2    C58   A    
C9    C24   A    
C47   C52   A    
C29   C35   A    
C26   N2    S    
C56   H1    S    
C13   C17   A    
C32   C33   A    
C2    C3    A    
C25   C26   A    
C36   H6    S    
O18   H26   S    
O10   Zn1   S    
N4    Zn1   S    
C11   C13   A    
C39   H24   S    
C38   C39   A    
S2    O17   D    
C48   C49   A    
C48   S1    S    
C35   H4    S    
C31   H21   S    
C18   C33   A    
C34   O11   A    
O5    Zn2   S    
C1    C42   S    
C38   H9    S    
C11   C29   A    
C33   H3    S    
C49   C50   A    
C49   H13   S    
C20   O2    S    
C27   C28   A    
C22   H16   S    
C14   C15   A    
C55   O3    S    
C52   N3    A    
C3    N1    S    
C54   N4    A    
S2    O18   S    
