data_mof_unit_26329.cif
_audit_creation_date              2012-12-10T17:03:25-0500
_audit_creation_method            fapswitch 2.2
_symmetry_space_group_name_H-M    P1
_symmetry_Int_Tables_number       1
_space_group_crystal_system       triclinic
_cell_length_a                    15.075644
_cell_length_b                    11.026813
_cell_length_c                    9.877983
_cell_angle_alpha                 111.515934
_cell_angle_beta                  98.681216
_cell_angle_gamma                 90.49253
_cell_volume                      1506.49453555

loop_
_atom_site_label
_atom_site_type_symbol
_atom_type_description
_atom_site_fract_x
_atom_site_fract_y
_atom_site_fract_z
_atom_type_partial_charge
C1    C     C_R   0.493103 0.253995 0.440373 0.877225
C2    C     C_R   0.506463 0.746007 0.559642 0.876520
C3    C     C_R   0.038461 0.257002 0.423754 -0.084386
C4    C     C_R   0.967397 0.736149 0.620446 -0.092906
C5    C     C_2   0.489045 0.114187 0.406775 -0.280233
C6    C     C_2   0.509838 0.885798 0.593266 -0.287346
C7    C     C_2   0.500881 0.069664 0.516289 -0.111865
C8    C     C_2   0.497709 0.930324 0.483762 -0.108214
C9    C     C_2   0.506650 0.509963 0.081159 -0.085988
C10   C     C_2   0.493273 0.490136 0.918855 -0.089119
C11   C     C_R   0.329497 0.500134 0.500987 0.811001
C12   C     C_R   0.670534 0.499480 0.499059 0.814907
C13   C     C_R   0.817637 0.614951 0.536206 -0.069640
C14   C     C_R   0.186579 0.382150 0.486163 -0.077946
C15   C     C_R   0.767057 0.497047 0.497815 -0.153179
C16   C     C_R   0.233277 0.498485 0.503473 -0.151807
C17   C     C_R   0.807454 0.377939 0.465552 -0.083835
C18   C     C_R   0.189858 0.614268 0.528723 -0.088699
C19   C     C_R   0.902113 0.375202 0.469665 0.041071
C20   C     C_R   0.099551 0.617104 0.551957 0.044643
C21   C     C_R   0.954346 0.496123 0.513209 -0.009152
C22   C     C_R   0.048425 0.496527 0.513608 -0.009258
C23   C     C_R   0.912612 0.617193 0.556105 0.006236
C24   C     C_R   0.091502 0.376797 0.473617 0.004702
C25   C     C_R   0.945917 0.256103 0.429103 0.181171
C26   C     C_R   0.059851 0.736519 0.615590 0.188327
Cu1   Cu    Cu3+1 0.515770 0.521810 0.644910 0.974582
Cu2   Cu    Cu3+1 0.484230 0.478190 0.355090 0.976664
H1    H     H_    0.485376 0.863731 0.368907 0.178733
H2    H     H_    0.513204 0.136263 0.631141 0.178626
H3    H     H_    0.522186 0.952648 0.707930 0.152592
H4    H     H_    0.476699 0.047335 0.292112 0.151948
H5    H     H_    0.441913 0.417470 0.843219 0.169365
H6    H     H_    0.557944 0.582727 0.156810 0.167431
N1    N     N_2   0.460520 0.445420 0.137370 -0.235993
N2    N     N_2   0.539480 0.554580 0.862630 -0.237700
O1    O     O_R   0.508410 0.332340 0.577400 -0.588048
O2    O     O_R   0.491590 0.667660 0.422600 -0.586887
O3    O     O_R   0.481780 0.295500 0.332650 -0.578979
O4    O     O_R   0.518220 0.704500 0.667350 -0.579794
O5    O     O_R   0.383570 0.518390 0.622380 -0.584328
O6    O     O_R   0.616430 0.481610 0.377620 -0.582045
O7    O     O_R   0.356940 0.481550 0.377630 -0.574933
O8    O     O_R   0.643060 0.518450 0.622370 -0.573948
C27   C     C_1   0.769413 0.729800 0.540775 0.242788
N3    N     N_1   0.730432 0.820422 0.543389 -0.275384
C28   C     C_1   0.238934 0.273475 0.491963 0.247380
N4    N     N_1   0.281217 0.187830 0.497714 -0.257558
C29   C     C_1   0.748274 0.260489 0.422318 0.307552
N5    N     N_1   0.700720 0.167432 0.387786 -0.266977
C30   C     C_1   0.238609 0.727231 0.525253 0.304848
N6    N     N_1   0.277550 0.816794 0.521995 -0.253792
N7    N     N_2   0.897069 0.133629 0.391957 -0.429772
H7    H     H_    0.905073 0.063206 0.292270 0.269371
C31   C     C_3   0.904120 0.085008 0.510558 -0.593042
H8    H     H_    0.858863 0.995158 0.475529 0.248496
H9    H     H_    0.883494 0.159012 0.609921 0.240251
H10   H     H_    0.974156 0.060905 0.538834 0.211502
N8    N     N_2   0.114241 0.856707 0.684819 -0.426603
H11   H     H_    0.085601 0.937055 0.671487 0.261480
C32   C     C_3   0.156899 0.882026 0.834892 -0.611873
H12   H     H_    0.105427 0.896593 0.907927 0.233081
H13   H     H_    0.202806 0.971784 0.875454 0.242473
H14   H     H_    0.197191 0.799444 0.839996 0.230000
C33   C     C_1   0.075110 0.131875 0.354399 0.252932
N9    N     N_1   0.103351 0.031589 0.298360 -0.262842
C34   C     C_1   0.932958 0.857463 0.708550 0.243315
N10   N     N_1   0.906316 0.954435 0.779759 -0.271900
C35   C     C_1   0.605749 0.650274 0.954110 0.435157
N11   N     N_1   0.660875 0.729907 0.029915 -0.315837
C36   C     C_1   0.394363 0.349551 0.045839 0.435264
N12   N     N_1   0.339334 0.269774 0.969993 -0.329825

loop_
_geom_bond_atom_site_label_1
_geom_bond_atom_site_label_2
_ccdc_geom_bond_type
C4    C34   S    
C4    C26   A    
C31   H8    S    
C11   O7    A    
C14   C28   S    
C14   C16   A    
Cu2   O2    S    
Cu1   N2    S    
C32   H14   S    
C26   N8    S    
Cu1   O5    S    
Cu2   O7    S    
C28   N4    T    
C12   C15   S    
C1    O1    A    
Cu1   O4    S    
C5    H4    S    
C31   H9    S    
C6    H3    S    
C20   C22   A    
N1    C36   S    
N8    H11   S    
C12   O8    A    
C16   C18   A    
C2    C6    S    
C21   C22   A    
Cu1   O8    S    
C13   C27   S    
C3    C24   A    
C3    C33   S    
C20   C26   A    
Cu1   O1    S    
C1    C5    S    
C8    H1    S    
C6    C8    D    
Cu2   O6    S    
C17   C19   A    
C25   N7    S    
C18   C30   S    
C11   O5    A    
C10   H5    S    
C18   C20   A    
C35   N11   T    
N7    C31   S    
C13   C15   A    
C32   H12   S    
C19   C25   A    
C22   C24   A    
N8    C32   S    
C11   C16   S    
C7    C8    S    
C33   N9    T    
C1    O3    A    
C17   C29   S    
C30   N6    T    
C2    O4    A    
C36   N12   T    
C3    C25   A    
N2    C35   S    
C13   C23   A    
C5    C7    D    
C29   N5    T    
C9    C10   S    
C31   H10   S    
C14   C24   A    
Cu1   Cu2   S    
C15   C17   A    
C4    C23   A    
C2    O2    A    
C9    N1    D    
C12   O6    A    
Cu2   O3    S    
C19   C21   A    
N7    H7    S    
C21   C23   A    
C32   H13   S    
C34   N10   T    
Cu2   N1    S    
C9    H6    S    
C27   N3    T    
C10   N2    D    
C7    H2    S    
