data_mof_unit_46697.cif
_audit_creation_date              2012-12-10T16:43:22-0500
_audit_creation_method            fapswitch 2.2
_symmetry_space_group_name_H-M    P1
_symmetry_Int_Tables_number       1
_space_group_crystal_system       triclinic
_cell_length_a                    10.845734
_cell_length_b                    8.684902
_cell_length_c                    7.556742
_cell_angle_alpha                 103.038733
_cell_angle_beta                  96.771081
_cell_angle_gamma                 94.379268
_cell_volume                      684.701437384

loop_
_atom_site_label
_atom_site_type_symbol
_atom_type_description
_atom_site_fract_x
_atom_site_fract_y
_atom_site_fract_z
_atom_type_partial_charge
C1    C     C_R   0.496042 0.199834 0.453092 0.871947
C2    C     C_R   0.085401 0.598537 0.661198 0.002726
C3    C     C_R   0.131645 0.527992 0.498901 -0.083934
C4    C     C_R   0.049224 0.453615 0.340615 -0.212233
C5    C     C_R   0.921743 0.444214 0.344318 -0.247628
C6    C     C_R   0.874562 0.495405 0.509921 -0.087592
C7    C     C_2   0.494464 0.031493 0.427346 -0.348296
C8    C     C_2   0.505868 0.968457 0.572696 -0.380777
C9    C     C_R   0.263951 0.511092 0.499911 0.794578
C10   C     C_R   0.504009 0.800149 0.546916 0.867057
C11   C     C_R   0.738262 0.496388 0.502381 0.767897
C12   C     C_R   0.162031 0.701479 0.813271 -0.224311
C13   C     C_R   0.121582 0.742529 0.984922 0.572142
C14   C     C_R   0.004915 0.670648 0.005022 -0.282674
C15   C     C_R   0.926902 0.578352 0.851889 -0.261009
C16   C     C_R   0.959598 0.558943 0.674295 0.104523
Cu1   Cu    Cu3+1 0.513920 0.517380 0.684380 0.940380
Cu2   Cu    Cu3+1 0.486080 0.482620 0.315620 0.953462
H1    H     H_    0.083224 0.401267 0.213753 0.173421
H2    H     H_    0.253855 0.752003 0.799946 0.172206
H3    H     H_    0.973856 0.683120 0.137725 0.157183
H4    H     H_    0.847234 0.510266 0.875841 0.187763
H5    H     H_    0.860138 0.391615 0.217943 0.160156
H6    H     H_    0.483486 0.959109 0.287722 0.201688
H7    H     H_    0.516609 0.040765 0.712367 0.178406
H8    H     H_    0.392255 0.386151 0.950386 0.214082
N1    N     N_2   0.465100 0.456430 0.038520 -0.204190
N2    N     N_2   0.534900 0.543570 0.961480 -0.077647
O1    O     O_R   0.509050 0.286130 0.619770 -0.583922
O2    O     O_R   0.485540 0.256780 0.308360 -0.580172
O3    O     O_R   0.331410 0.514680 0.655740 -0.594138
O4    O     O_R   0.307900 0.485330 0.344330 -0.571684
O5    O     O_R   0.514460 0.743220 0.691640 -0.589998
O6    O     O_R   0.490950 0.713870 0.380230 -0.580920
O7    O     O_R   0.692100 0.514670 0.655670 -0.597463
O8    O     O_R   0.668590 0.485320 0.344260 -0.622574
C17   C     C_3   0.647668 0.637387 0.069154 -0.022467
C18   C     C_3   0.685645 0.788571 0.009148 -0.844370
H9    H     H_    0.718382 0.764014 0.873842 0.281789
H10   H     H_    0.607674 0.864438 0.011462 0.253659
H11   H     H_    0.765364 0.858047 0.108194 0.191976
H12   H     H_    0.637003 0.684992 0.209914 0.212780
H13   H     H_    0.724685 0.562176 0.069165 0.134190
O9    O     O_3   0.205615 0.837573 0.129067 -0.577768
C19   C     C_3   0.145995 0.921857 0.271463 -0.329736
H14   H     H_    0.118711 0.843628 0.361275 0.169883
H15   H     H_    0.064348 0.976692 0.218012 0.152391
H16   H     H_    0.213493 0.020130 0.357716 0.189218

loop_
_geom_bond_atom_site_label_1
_geom_bond_atom_site_label_2
_ccdc_geom_bond_type
C17   H13   S    
C17   C18   S    
C3    C9    S    
C4    H1    S    
Cu1   O1    S    
C5    H5    S    
C2    C12   A    
C12   H2    S    
C11   O7    A    
C2    C3    A    
C3    C4    A    
C7    C8    D    
C10   O6    A    
C1    C7    S    
C13   C14   A    
O9    C19   S    
C18   H10   S    
C8    H7    S    
Cu2   O6    S    
H8    N1    S    
C5    C6    A    
Cu1   O5    S    
N2    C17   S    
Cu2   O2    S    
C14   H3    S    
C1    O1    A    
C11   O8    A    
Cu1   Cu2   S    
C10   O5    A    
C19   H15   S    
C18   H9    S    
Cu1   O3    S    
Cu2   O4    S    
C9    O3    A    
C6    C16   A    
C15   C16   A    
C17   H12   S    
C2    C16   A    
C12   C13   A    
C18   H11   S    
C8    C10   S    
C19   H16   S    
C6    C11   S    
C14   C15   A    
C1    O2    A    
Cu1   O7    S    
C9    O4    A    
C13   O9    S    
C19   H14   S    
Cu1   N2    S    
Cu2   O8    S    
C15   H4    S    
Cu2   N1    S    
C7    H6    S    
C4    C5    A    
N1    N2    D    
