data_mof_unit_24455.cif
_audit_creation_date              2012-12-10T17:39:21-0500
_audit_creation_method            fapswitch 2.2
_symmetry_space_group_name_H-M    P1
_symmetry_Int_Tables_number       1
_space_group_crystal_system       triclinic
_cell_length_a                    12.307808
_cell_length_b                    13.08082
_cell_length_c                    27.735669
_cell_angle_alpha                 77.137397
_cell_angle_beta                  101.411523
_cell_angle_gamma                 116.27072
_cell_volume                      3878.37236752

loop_
_atom_site_label
_atom_site_type_symbol
_atom_type_description
_atom_site_fract_x
_atom_site_fract_y
_atom_site_fract_z
_atom_type_partial_charge
C1    C     C_R   0.854790 0.285239 0.504361 0.795283
C2    C     C_R   0.066589 0.447256 0.732962 0.066056
C3    C     C_R   0.995278 0.493679 0.746903 0.239251
C4    C     C_R   0.993763 0.484148 0.899677 -0.131970
C5    C     C_R   0.903913 0.393545 0.874662 -0.130801
C6    C     C_R   0.817258 0.297149 0.901691 0.520091
C7    C     C_R   0.080736 0.582389 0.872688 -0.034820
C8    C     C_R   0.998282 0.497780 0.645670 -0.138586
C9    C     C_R   0.997582 0.492088 0.355298 -0.228277
C10   C     C_R   0.900991 0.382258 0.029059 0.097800
C11   C     C_R   0.102849 0.546351 0.030345 -0.076181
C12   C     C_R   0.999416 0.499331 0.592542 0.831324
C13   C     C_R   0.002769 0.462092 0.055342 0.017802
C14   C     C_R   0.799902 0.304656 0.054900 -0.213416
C15   C     C_R   0.800499 0.304099 0.105147 -0.160580
C16   C     C_R   0.901957 0.380295 0.131603 -0.003733
C17   C     C_R   0.004102 0.458299 0.106955 -0.057875
C18   C     C_R   0.107023 0.533421 0.133878 -0.121334
C19   C     C_R   0.104120 0.532521 0.184288 0.640751
C20   C     C_R   0.902535 0.382726 0.182017 0.522227
C21   C     C_R   0.000160 0.382497 0.295675 -0.286483
C22   C     C_R   0.998034 0.391707 0.344594 0.421044
C23   C     C_R   0.144704 0.714038 0.493453 0.796157
C24   C     C_R   0.995933 0.582253 0.316125 -0.108915
C25   C     C_R   0.989962 0.567805 0.266545 0.519539
C26   C     C_R   0.996088 0.469532 0.256810 0.171224
C27   C     C_R   0.903461 0.383302 0.977924 -0.018297
C28   C     C_R   0.996278 0.476152 0.951783 0.060514
C29   C     C_R   0.091016 0.561654 0.977484 0.019523
C30   C     C_R   0.815882 0.294588 0.952063 -0.302744
C31   C     C_R   0.164094 0.676946 0.897821 0.070593
C32   C     C_R   0.211609 0.610758 0.059579 0.460657
C33   C     C_R   0.210855 0.606688 0.110192 -0.213280
C34   C     C_R   0.000612 0.500358 0.407607 0.866407
C35   C     C_R   0.166467 0.663804 0.949628 -0.159710
C36   C     C_R   0.265059 0.035720 0.454677 -0.224850
C37   C     C_R   0.225851 0.837091 0.487860 -0.068758
C38   C     C_R   0.811530 0.074391 0.536222 0.007169
C39   C     C_R   0.724844 0.971671 0.558838 -0.212323
C40   C     C_R   0.601571 0.947573 0.550410 0.453455
C41   C     C_R   0.558916 0.017697 0.511989 -0.042681
C42   C     C_R   0.644720 0.126002 0.491736 -0.023679
C43   C     C_R   0.433636 0.984951 0.494329 0.050885
C44   C     C_R   0.391868 0.067445 0.465337 0.132152
C45   C     C_R   0.904759 0.400994 0.823368 0.594793
C46   C     C_R   0.477979 0.175678 0.445321 0.068243
C47   C     C_R   0.601751 0.198289 0.455307 -0.192052
C48   C     C_R   0.350257 0.869458 0.501347 -0.177911
C49   C     C_R   0.182639 0.921603 0.466985 -0.208433
C50   C     C_R   0.771400 0.159874 0.508529 -0.165033
C51   C     C_R   0.344805 0.322889 0.576754 -0.295605
C52   C     C_R   0.763348 0.648596 0.433642 -0.038019
C53   C     C_R   0.664876 0.678117 0.414906 -0.047941
C54   C     C_R   0.554167 0.614290 0.436212 0.441665
C55   C     C_R   0.547544 0.530826 0.480040 -0.139142
C56   C     C_R   0.078786 0.581897 0.821375 0.527756
C57   C     C_R   0.650854 0.503315 0.495912 0.202786
C58   C     C_R   0.444009 0.472294 0.508595 -0.017136
C59   C     C_R   0.443503 0.382667 0.548546 0.170657
C60   C     C_R   0.542989 0.355001 0.561438 -0.267632
C61   C     C_R   0.645226 0.415912 0.536622 -0.133903
C62   C     C_R   0.341888 0.499874 0.501028 0.058542
C63   C     C_R   0.246339 0.351960 0.565962 0.069682
C64   C     C_R   0.927529 0.542820 0.710694 0.536487
C65   C     C_R   0.926757 0.541676 0.660291 -0.320714
C66   C     C_R   0.068156 0.451357 0.681974 -0.222435
Cu1   Cu    Cu3+1 0.098270 0.475420 0.511360 0.953225
Cu2   Cu    Cu3+1 0.901730 0.524580 0.488640 0.911873
H1    H     H_    0.122015 0.417126 0.669985 0.160448
H2    H     H_    0.293451 0.660264 0.130980 0.202158
H3    H     H_    0.223360 0.736331 0.968454 0.195902
H4    H     H_    0.085898 0.898547 0.457107 0.155554
H5    H     H_    0.228150 0.096775 0.435259 0.155341
H6    H     H_    0.382458 0.802579 0.514379 0.212925
H7    H     H_    0.751865 0.911147 0.585735 0.159383
H8    H     H_    0.664063 0.273288 0.433572 0.165498
H9    H     H_    0.170374 0.306928 0.587803 0.110215
H10   H     H_    0.543539 0.287530 0.592260 0.152216
H11   H     H_    0.344469 0.254796 0.607343 0.136251
H12   H     H_    0.336201 0.571319 0.474697 0.198391
H13   H     H_    0.848227 0.693345 0.417539 0.149861
H14   H     H_    0.718738 0.391729 0.551077 0.205058
H15   H     H_    0.005332 0.307299 0.287889 0.182344
H16   H     H_    0.720231 0.244096 0.123086 0.185135
H17   H     H_    0.716695 0.245922 0.036858 0.142044
H18   H     H_    0.746681 0.219091 0.970343 0.154086
H19   H     H_    0.870531 0.575548 0.632657 0.179189
N1    N     N_R   0.992482 0.492393 0.798576 -0.445078
N2    N     N_R   0.001609 0.460088 0.206861 -0.430941
N3    N     N_R   0.246290 0.438210 0.528570 -0.192074
N4    N     N_R   0.754320 0.561170 0.471730 -0.214708
O1    O     O_R   0.972510 0.318140 0.514280 -0.582335
O2    O     O_2   0.803996 0.310341 0.205720 -0.563231
O3    O     O_2   0.163097 0.668034 0.794098 -0.597339
O4    O     O_2   0.202442 0.604144 0.210500 -0.541008
O5    O     O_R   0.806530 0.359640 0.495100 -0.599195
O6    O     O_R   0.082990 0.479270 0.579320 -0.580715
O7    O     O_R   0.917010 0.520770 0.560140 -0.596433
O8    O     O_R   0.193470 0.640360 0.504900 -0.590168
O9    O     O_R   0.027490 0.681860 0.485720 -0.588133
O10   O     O_R   0.082990 0.479230 0.439860 -0.546332
O11   O     O_R   0.917010 0.520730 0.420680 -0.602546
O12   O     O_2   0.819689 0.317345 0.798117 -0.489745
O13   O     O_3   0.855157 0.583754 0.725547 -0.558887
C67   C     C_3   0.901735 0.704542 0.711346 -0.311355
H20   H     H_    0.886243 0.728234 0.670335 0.149923
H21   H     H_    0.000395 0.747661 0.724880 0.181405
H22   H     H_    0.852366 0.737925 0.728560 0.192832
C68   C     C_3   0.248207 0.791514 0.869669 -0.335817
C69   C     C_3   0.321525 0.892416 0.899411 -0.447692
C70   C     C_3   0.395266 0.002087 0.865895 -0.762203
H23   H     H_    0.459241 0.987334 0.848048 0.261547
H24   H     H_    0.333497 0.029438 0.836563 0.245852
H25   H     H_    0.449000 0.072590 0.888474 0.265329
H26   H     H_    0.258461 0.910441 0.916400 0.227712
H27   H     H_    0.386222 0.870361 0.929192 0.241712
H28   H     H_    0.315341 0.775800 0.854312 0.238356
H29   H     H_    0.190994 0.820924 0.838647 0.230827
O14   O     O_3   0.321629 0.675458 0.040160 -0.599343
C71   C     C_3   0.375491 0.600942 0.038844 -0.326962
H30   H     H_    0.318376 0.536159 0.013741 0.168985
H31   H     H_    0.393270 0.556983 0.076852 0.165873
H32   H     H_    0.464545 0.653054 0.023902 0.191346
C72   C     C_3   0.010645 0.697144 0.326511 -0.371252
C73   C     C_3   0.143200 0.768948 0.345823 -0.306422
C74   C     C_3   0.164912 0.893066 0.345915 -0.853823
H33   H     H_    0.156023 0.937304 0.307182 0.259860
H34   H     H_    0.097805 0.894973 0.366788 0.249366
H35   H     H_    0.258453 0.940120 0.363761 0.252379
H36   H     H_    0.165191 0.730292 0.384286 0.205124
H37   H     H_    0.206124 0.769940 0.321760 0.246440
H38   H     H_    0.983734 0.747579 0.292394 0.238910
H39   H     H_    0.948756 0.683709 0.353550 0.182572
O15   O     O_3   0.989496 0.654573 0.227576 -0.560449
C75   C     C_3   0.867405 0.631331 0.208121 -0.339006
H40   H     H_    0.812917 0.625736 0.237012 0.150151
H41   H     H_    0.823646 0.550920 0.191186 0.184569
H42   H     H_    0.866540 0.703334 0.178292 0.196456
C76   C     C_3   0.442187 0.265467 0.410143 -0.415334
C77   C     C_3   0.397872 0.232685 0.357673 -0.349304
C78   C     C_3   0.364224 0.323702 0.321790 -0.833440
H43   H     H_    0.290452 0.333729 0.334995 0.260165
H44   H     H_    0.445323 0.407715 0.318400 0.247460
H45   H     H_    0.331270 0.296686 0.284432 0.249294
H46   H     H_    0.471108 0.223813 0.343411 0.226102
H47   H     H_    0.316603 0.148874 0.358535 0.226144
H48   H     H_    0.371815 0.277288 0.425021 0.194627
H49   H     H_    0.521777 0.351045 0.407775 0.200941
C79   C     C_3   0.138193 0.394286 0.773527 -0.373082
C80   C     C_3   0.209763 0.341687 0.755484 -0.373896
C81   C     C_3   0.275213 0.289045 0.799310 -0.818531
H50   H     H_    0.340809 0.356117 0.821965 0.260289
H51   H     H_    0.208268 0.219024 0.823187 0.246714
H52   H     H_    0.326271 0.252031 0.785205 0.250710
H53   H     H_    0.146270 0.272657 0.733322 0.217123
H54   H     H_    0.279142 0.409716 0.731958 0.232121
H55   H     H_    0.203525 0.462088 0.795929 0.215755
H56   H     H_    0.073035 0.325321 0.798456 0.199973
C82   C     C_3   0.945672 0.095768 0.545733 -0.348881
C83   C     C_3   0.970768 0.986921 0.556860 -0.396628
C84   C     C_3   0.106667 0.018754 0.558857 -0.832404
H57   H     H_    0.141398 0.071853 0.523391 0.263991
H58   H     H_    0.158420 0.068038 0.589967 0.244689
H59   H     H_    0.121898 0.939004 0.565084 0.252294
H60   H     H_    0.942215 0.936681 0.593590 0.212872
H61   H     H_    0.919826 0.931898 0.527433 0.231231
H62   H     H_    0.989312 0.147097 0.511608 0.233526
H63   H     H_    0.989195 0.145171 0.577294 0.193484
O16   O     O_3   0.525367 0.855633 0.581102 -0.595464
C85   C     C_3   0.502243 0.898987 0.618332 -0.310517
H64   H     H_    0.453084 0.954820 0.602137 0.163541
H65   H     H_    0.588161 0.946981 0.641240 0.161688
H66   H     H_    0.442866 0.825150 0.643483 0.201405
O17   O     O_3   0.727814 0.207375 0.878534 -0.538848
C86   C     C_3   0.760879 0.113574 0.889544 -0.274207
H67   H     H_    0.758350 0.076382 0.929699 0.140412
H68   H     H_    0.852448 0.138749 0.878272 0.155962
H69   H     H_    0.693856 0.044908 0.868065 0.189693
O18   O     O_3   0.455038 0.637201 0.413551 -0.615648
C87   C     C_3   0.382118 0.554701 0.381927 -0.339036
H70   H     H_    0.346641 0.465664 0.403010 0.174517
H71   H     H_    0.432854 0.559971 0.351821 0.167681
H72   H     H_    0.302246 0.572960 0.364058 0.208952
C88   C     C_3   0.672578 0.775630 0.371788 -0.335293
C89   C     C_3   0.798764 0.847700 0.353380 -0.435447
C90   C     C_3   0.795929 0.944150 0.311182 -0.794114
H73   H     H_    0.734263 0.907223 0.278400 0.257901
H74   H     H_    0.763490 0.000089 0.323350 0.249175
H75   H     H_    0.889100 0.997610 0.300050 0.245270
H76   H     H_    0.866629 0.886735 0.384503 0.219587
H77   H     H_    0.827614 0.791901 0.339030 0.215422
H78   H     H_    0.606642 0.738526 0.339926 0.215729
H79   H     H_    0.643909 0.834799 0.383798 0.225952
O19   O     O_3   0.003633 0.304682 0.382462 -0.567157
C91   C     C_3   0.884204 0.218891 0.387034 -0.303035
H80   H     H_    0.842429 0.180957 0.352185 0.167040
H81   H     H_    0.825592 0.253641 0.397301 0.139926
H82   H     H_    0.888095 0.148468 0.417192 0.184218

loop_
_geom_bond_atom_site_label_1
_geom_bond_atom_site_label_2
_ccdc_geom_bond_type
C10   C27   A    
C58   C62   A    
C75   H42   S    
C23   O8    A    
C21   C26   A    
C8    C66   A    
C74   H33   S    
C11   C13   A    
C41   C42   A    
C67   H20   S    
C70   H23   S    
C20   O2    S    
C84   H57   S    
C68   H28   S    
C89   H76   S    
C86   H68   S    
C53   C54   A    
C54   O18   S    
C26   N2    S    
C56   O3    S    
C67   H21   S    
C60   H10   S    
Cu2   O5    S    
C72   H39   S    
C62   H12   S    
C28   C29   A    
Cu2   O11   S    
C47   H8    S    
C61   H14   S    
C78   H44   S    
C5    C6    A    
C9    C22   A    
C56   N1    A    
C66   H1    S    
C85   H64   S    
C15   C16   A    
C24   C72   S    
Cu2   N4    S    
C88   C89   S    
C72   H38   S    
C75   H41   S    
C18   C19   A    
O16   C85   S    
C81   H52   S    
O17   C86   S    
O13   C67   S    
C45   O12   S    
C4    C28   A    
C69   C70   S    
C78   H43   S    
C73   H36   S    
C21   H15   S    
C71   H31   S    
C16   C17   A    
C49   H4    S    
C81   H50   S    
C88   H78   S    
C65   H19   S    
C83   H61   S    
C30   H18   S    
C79   H56   S    
C12   O7    A    
C87   H72   S    
C8    C12   S    
C91   H82   S    
C2    C79   S    
C23   O9    A    
C35   H3    S    
C8    C65   A    
C80   H54   S    
C21   C22   A    
C27   C30   A    
C41   C43   A    
C7    C56   A    
C4    C7    A    
C40   O16   S    
C84   H58   S    
C44   C46   A    
C68   H29   S    
C89   H77   S    
C86   H69   S    
C51   H11   S    
C38   C39   A    
C67   H22   S    
C76   H49   S    
C34   O10   A    
C7    C31   A    
Cu1   Cu2   S    
C48   H6    S    
C75   H40   S    
C45   N1    A    
C51   C63   A    
C77   C78   S    
C10   C14   A    
C78   H45   S    
C77   H47   S    
C39   C40   A    
C6    O17   S    
C74   H35   S    
C58   C59   A    
C23   C37   S    
C5    C45   A    
Cu1   N3    S    
O18   C87   S    
C60   C61   A    
C43   C44   A    
Cu2   O9    S    
C19   N2    A    
C1    C50   S    
C37   C49   A    
C73   H37   S    
C82   C83   S    
C14   C15   A    
C16   C20   A    
C43   C48   A    
C76   H48   S    
C17   C18   A    
C31   C68   S    
C70   H24   S    
C34   O11   A    
C83   H60   S    
C24   C25   A    
C37   C48   A    
C25   O15   S    
C12   O6    A    
C15   H16   S    
C33   H2    S    
C42   C50   A    
C40   C41   A    
C6    C30   A    
C11   C32   A    
C1    O1    A    
C39   H7    S    
C80   H53   S    
C55   C57   A    
C73   C74   S    
C31   C35   A    
C53   C88   S    
C51   C59   A    
C18   C33   A    
C32   O14   S    
C90   H74   S    
C69   H27   S    
C84   H59   S    
C19   O4    S    
C87   H70   S    
Cu1   O10   S    
C46   C76   S    
C63   H9    S    
C64   O13   S    
C82   H63   S    
C54   C55   A    
C74   H34   S    
C57   N4    A    
C3    N1    S    
C80   C81   S    
C14   H17   S    
C4    C5    A    
C2    C66   A    
C10   C13   A    
C77   H46   S    
C38   C82   S    
O14   C71   S    
C71   H32   S    
C9    C24   A    
C57   C61   A    
O15   C75   S    
C38   C50   A    
Cu1   O8    S    
C20   N2    A    
C29   C35   A    
C13   C17   A    
C32   C33   A    
C90   H75   S    
C2    C3    A    
C25   C26   A    
C86   H67   S    
C79   C80   S    
C64   C65   A    
C87   H71   S    
C76   C77   S    
C89   C90   S    
C9    C34   S    
C85   H65   S    
C1    O5    A    
C62   N3    A    
C63   N3    A    
Cu1   O1    S    
C82   H62   S    
O19   C91   S    
C70   H25   S    
C42   C47   A    
C81   H51   S    
C3    C64   A    
C52   H13   S    
C83   C84   S    
Cu2   O7    S    
C46   C47   A    
C36   C44   A    
C36   H5    S    
Cu1   O6    S    
C91   H80   S    
C59   C60   A    
C11   C29   A    
C55   C58   A    
C27   C28   A    
C71   H30   S    
C22   O19   S    
C52   N4    A    
C90   H73   S    
C68   C69   S    
C79   H55   S    
C69   H26   S    
C36   C49   A    
C88   H79   S    
C52   C53   A    
C72   C73   S    
C91   H81   S    
C85   H66   S    
