data_mof_unit_8781.cif
_audit_creation_date              2012-12-11T15:29:26-0500
_audit_creation_method            fapswitch 2.2
_symmetry_space_group_name_H-M    P1
_symmetry_Int_Tables_number       1
_space_group_crystal_system       triclinic
_cell_length_a                    13.486847
_cell_length_b                    13.494874
_cell_length_c                    27.573903
_cell_angle_alpha                 90.562329
_cell_angle_beta                  90.003691
_cell_angle_gamma                 60.057404
_cell_volume                      4348.41902241

loop_
_atom_site_label
_atom_site_type_symbol
_atom_type_description
_atom_site_fract_x
_atom_site_fract_y
_atom_site_fract_z
_atom_type_partial_charge
C1    C     C_R   0.620331 0.101225 0.569880 0.543059
C2    C     C_1   0.649411 0.703715 0.657611 -0.059800
C3    C     C_3   0.059797 0.205205 0.735987 -0.101536
C4    C     C_R   0.599771 0.779134 0.568395 0.544334
C5    C     C_3   0.111525 0.102193 0.770902 -0.099323
C6    C     C_1   0.097157 0.200473 0.900109 -0.021601
C7    C     C_1   0.228608 0.138389 0.616881 -0.017299
C8    C     C_3   0.094056 0.272534 0.771493 -0.099103
C9    C     C_3   0.146277 0.169340 0.805598 0.054619
C10   C     C_3   0.211481 0.223499 0.745771 -0.096065
C11   C     C_3   0.176935 0.156254 0.711031 0.053117
C12   C     C_1   0.631254 0.731281 0.615762 -0.016097
C13   C     C_3   0.263312 0.120632 0.780598 -0.104526
C14   C     C_3   0.229191 0.053062 0.745081 -0.104144
C15   C     C_1   0.124412 0.181868 0.857956 -0.064585
C16   C     C_R   0.277550 0.121768 0.569321 0.544859
C17   C     C_1   0.199943 0.148007 0.658820 -0.059668
C18   C     C_3   0.716028 0.219747 0.737419 -0.101710
C19   C     C_3   0.612278 0.287683 0.771868 -0.100330
C20   C     C_1   0.691672 0.206898 0.901322 -0.017454
C21   C     C_1   0.635588 0.133491 0.617778 -0.016185
C22   C     C_3   0.766593 0.118606 0.773196 -0.097915
C23   C     C_3   0.751274 0.559668 0.766543 -0.111272
C24   C     C_3   0.662712 0.186195 0.806862 0.052823
C25   C     C_3   0.701179 0.066406 0.747298 -0.100456
C26   C     C_3   0.650761 0.167776 0.712244 0.052344
C27   C     C_3   0.597471 0.134193 0.781694 -0.102603
C28   C     C_R   0.622134 0.100475 0.431578 0.558939
C29   C     C_3   0.546766 0.235403 0.745846 -0.099356
C30   C     C_1   0.674548 0.196368 0.859210 -0.060251
C31   C     C_1   0.643871 0.152652 0.659906 -0.059379
C32   C     C_R   0.640358 0.721589 0.383159 0.020504
C33   C     C_R   0.723960 0.734374 0.358191 -0.124258
C34   C     C_3   0.679181 0.653148 0.804355 0.059858
C35   C     C_R   0.736972 0.715935 0.308631 -0.122618
C36   C     C_R   0.669351 0.680765 0.283583 0.035708
C37   C     C_R   0.594381 0.656292 0.309311 -0.121632
C38   C     C_R   0.579228 0.677510 0.358920 -0.130760
C39   C     C_R   0.576496 0.703497 0.203362 -0.120766
C40   C     C_R   0.602035 0.776683 0.430505 0.539812
C41   C     C_R   0.585117 0.681264 0.153803 -0.130354
C42   C     C_R   0.789753 0.609052 0.157656 -0.126371
C43   C     C_R   0.781557 0.628589 0.207184 -0.123908
C44   C     C_R   0.675625 0.671817 0.230651 0.036526
C45   C     C_3   0.641715 0.594967 0.736384 -0.103550
C46   C     C_R   0.692717 0.628936 0.131193 0.023565
C47   C     C_R   0.222628 0.138748 0.384102 0.019414
C48   C     C_R   0.241679 0.043525 0.355976 -0.134960
C49   C     C_R   0.216187 0.055689 0.306937 -0.126531
C50   C     C_R   0.168797 0.163631 0.285536 0.035321
C51   C     C_R   0.140691 0.260297 0.314567 -0.121259
C52   C     C_R   0.278555 0.120264 0.431137 0.540338
C53   C     C_R   0.168247 0.247821 0.363552 -0.130415
C54   C     C_R   0.171900 0.251807 0.206887 -0.119737
C55   C     C_R   0.146163 0.268896 0.157746 -0.130225
C56   C     C_3   0.662922 0.682182 0.709711 0.043512
C57   C     C_R   0.089086 0.124548 0.159264 -0.125715
C58   C     C_R   0.112652 0.109141 0.208393 -0.123907
C59   C     C_R   0.151345 0.174743 0.232887 0.036701
C60   C     C_R   0.101114 0.207890 0.133999 0.022710
C61   C     C_R   0.641028 0.140852 0.385092 0.028160
C62   C     C_R   0.545120 0.226371 0.360770 -0.177009
C63   C     C_R   0.552274 0.247305 0.312207 -0.142649
C64   C     C_3   0.772273 0.647292 0.738994 -0.106110
C65   C     C_R   0.655628 0.183972 0.287116 -0.009421
C66   C     C_R   0.754290 0.106192 0.312173 -0.102255
C67   C     C_3   0.570909 0.688073 0.774667 0.032440
C68   C     C_R   0.748363 0.085574 0.361441 0.268230
C69   C     C_R   0.721490 0.098044 0.205085 -0.119400
C70   C     C_R   0.733321 0.109412 0.155737 -0.127858
C71   C     C_R   0.612642 0.315282 0.163855 -0.127986
C72   C     C_R   0.601920 0.303974 0.213293 -0.119931
C73   C     C_R   0.659389 0.195591 0.234450 0.038305
C74   C     C_R   0.682356 0.218423 0.135176 0.023322
C75   C     C_R   0.049842 0.234873 0.947932 0.545772
C76   C     C_3   0.700142 0.740493 0.777526 -0.113697
C77   C     C_R   0.712094 0.561707 0.946417 0.545463
C78   C     C_3   0.590474 0.776065 0.747300 -0.093148
C79   C     C_R   0.722633 0.224117 0.949086 0.545651
C80   C     C_R   0.047445 0.243861 0.086469 0.541770
C81   C     C_R   0.709257 0.572283 0.084266 0.540524
C82   C     C_R   0.719783 0.233339 0.087483 0.541441
C83   C     C_1   0.697981 0.606414 0.898562 -0.023837
C84   C     C_3   0.455364 0.709667 0.793869 -0.259457
C85   C     C_3   0.402933 0.809357 0.830424 -0.293718
C86   C     C_3   0.283290 0.836641 0.845944 -0.444703
C87   C     C_3   0.917970 0.046986 0.394471 -0.119072
C88   C     C_1   0.689092 0.632061 0.856502 -0.067206
Cr1   Cr    Cr6+3 0.417550 0.169090 0.500530 1.017626
Cr2   Cr    Cr6+3 0.669180 0.913420 0.499920 1.042568
Cr3   Cr    Cr6+3 0.413260 0.917540 0.499520 1.017153
Cr4   Cr    Cr6+3 0.909770 0.175810 0.018240 1.017205
Cr5   Cr    Cr6+3 0.913300 0.427650 0.016090 1.019788
Cr6   Cr    Cr6+3 0.657770 0.431010 0.016900 1.018896
H1    H     H_    0.723871 0.800328 0.794830 0.101270
H2    H     H_    0.857167 0.070310 0.785027 0.100729
H3    H     H_    0.772600 0.768179 0.375993 0.154133
H4    H     H_    0.855539 0.630065 0.723630 0.107271
H5    H     H_    0.493146 0.741149 0.220600 0.102652
H6    H     H_    0.509090 0.698380 0.133848 0.123755
H7    H     H_    0.795275 0.735602 0.289699 0.107105
H8    H     H_    0.859365 0.603206 0.227343 0.100731
H9    H     H_    0.874028 0.568565 0.141109 0.134202
H10   H     H_    0.544551 0.624779 0.290841 0.100409
H11   H     H_    0.515224 0.665882 0.377651 0.124326
H12   H     H_    0.346733 0.086702 0.799310 0.090825
H13   H     H_    0.284326 0.958181 0.370865 0.133867
H14   H     H_    0.205198 0.300827 0.224774 0.103243
H15   H     H_    0.156634 0.333222 0.138956 0.124386
H16   H     H_    0.523956 0.865157 0.738834 0.097527
H17   H     H_    0.239270 0.979634 0.285390 0.101951
H18   H     H_    0.095373 0.049679 0.227561 0.099369
H19   H     H_    0.053906 0.076493 0.141996 0.133884
H20   H     H_    0.100557 0.345001 0.299123 0.103578
H21   H     H_    0.152049 0.322489 0.384751 0.125391
H22   H     H_    0.461864 0.271783 0.378148 0.144905
H23   H     H_    0.252450 0.273708 0.734857 0.101451
H24   H     H_    0.763447 0.013283 0.220530 0.107161
H25   H     H_    0.786954 0.033573 0.134162 0.124199
H26   H     H_    0.475164 0.308046 0.293623 0.115303
H27   H     H_    0.553487 0.380379 0.235289 0.102212
H28   H     H_    0.573376 0.400501 0.148926 0.133278
H29   H     H_    0.835397 0.058897 0.293218 0.109776
H30   H     H_    0.617589 0.535292 0.719199 0.098195
H31   H     H_    0.817432 0.470445 0.774941 0.101818
H32   H     H_    0.070240 0.052334 0.781852 0.096075
H33   H     H_    0.976317 0.240086 0.717228 0.098104
H34   H     H_    0.038767 0.363087 0.782982 0.102810
H35   H     H_    0.284617 0.962612 0.733470 0.104627
H36   H     H_    0.226406 0.858954 0.813932 0.146967
H37   H     H_    0.287125 0.761902 0.864289 0.156456
H38   H     H_    0.246584 0.910553 0.871585 0.153399
H39   H     H_    0.457561 0.787710 0.863137 0.172815
H40   H     H_    0.397510 0.886578 0.814014 0.156669
H41   H     H_    0.396842 0.729055 0.762552 0.136100
H42   H     H_    0.467388 0.630569 0.811341 0.142862
H43   H     H_    0.873841 0.127754 0.416207 0.114701
H44   H     H_    0.953513 0.060676 0.360412 0.111210
H45   H     H_    0.575532 0.378941 0.782591 0.100190
H46   H     H_    0.991156 0.983658 0.416171 0.144103
H47   H     H_    0.764594 0.254909 0.718813 0.097209
H48   H     H_    0.456249 0.283632 0.733949 0.100911
H49   H     H_    0.548897 0.099033 0.800299 0.096994
H50   H     H_    0.737985 0.975112 0.736631 0.105001
O1    O     O_R   0.301780 0.195490 0.553940 -0.507177
O2    O     O_R   0.636050 0.541380 0.962520 -0.509819
O3    O     O_R   0.666480 0.323610 0.968170 -0.494080
O4    O     O_R   0.522450 0.158840 0.550250 -0.495807
O5    O     O_R   0.817280 0.156800 0.072180 -0.521217
O6    O     O_R   0.005110 0.187160 0.067410 -0.505400
O7    O     O_R   0.026450 0.340060 0.069950 -0.521846
O8    O     O_R   0.808300 0.527240 0.065170 -0.506211
O9    O     O_R   0.634070 0.548770 0.069460 -0.521827
O10   O     O_R   0.664650 0.330470 0.067300 -0.503587
O11   O     O_3   0.826940 0.344820 0.017080 -0.243205
O12   O     O_R   0.658840 0.818280 0.449970 -0.505188
O13   O     O_R   0.694460 0.003360 0.553820 -0.507576
O14   O     O_R   0.657750 0.819520 0.549120 -0.495560
O15   O     O_R   0.501990 0.803120 0.552700 -0.507884
O16   O     O_R   0.318230 0.023430 0.549370 -0.494576
O17   O     O_R   0.302950 0.194150 0.446980 -0.519442
O18   O     O_R   0.523540 0.157600 0.451100 -0.519513
O19   O     O_R   0.695630 0.002030 0.446860 -0.458662
O20   O     O_3   0.844562 0.002914 0.384828 -0.554319
O21   O     O_R   0.503160 0.801780 0.445740 -0.522041
O22   O     O_R   0.319320 0.022190 0.450230 -0.506251
O23   O     O_3   0.499990 0.000010 0.499990 -0.248167
O24   O     O_R   0.819250 0.149410 0.965240 -0.508568
O25   O     O_R   0.006940 0.180310 0.968270 -0.496077
O26   O     O_R   0.028420 0.332670 0.963010 -0.505896
O27   O     O_R   0.810130 0.520390 0.966030 -0.493501

loop_
_geom_bond_atom_site_label_1
_geom_bond_atom_site_label_2
_ccdc_geom_bond_type
Cr6   O2    S    
Cr1   O4    S    
C66   C68   A    
C63   C65   A    
C84   H41   S    
C1    C21   S    
C23   C45   S    
Cr2   O23   S    
C16   O16   A    
C71   H28   S    
C35   C36   A    
C18   C26   S    
C24   C27   S    
C87   H46   S    
C2    C12   T    
C42   H9    S    
C28   O18   A    
C6    C75   S    
C39   C41   A    
C20   C30   T    
C85   C86   S    
C80   O6    A    
C21   C31   T    
C5    C9    S    
C62   C63   A    
C58   H18   S    
C50   C59   S    
Cr3   O23   S    
C36   C37   A    
C76   C78   S    
C76   H1    S    
C72   H27   S    
C11   C14   S    
C3    H33   S    
C86   H37   S    
C4    O15   A    
C27   C29   S    
C77   C83   S    
C69   H24   S    
C81   O9    A    
C18   C19   S    
C42   C46   A    
C9    C13   S    
C70   C74   A    
Cr1   O23   S    
Cr3   O22   S    
C52   O22   A    
C6    C15   T    
C8    H34   S    
C84   H42   S    
C45   C56   S    
C8    C9    S    
C7    C17   T    
C22   C25   S    
C5    H32   S    
C45   C67   S    
C27   H49   S    
C41   C46   A    
C56   C64   S    
C69   C73   A    
C32   C38   A    
C79   O24   A    
C4    C12   S    
C5    C14   S    
C70   H25   S    
Cr3   O15   S    
C56   C78   S    
C77   O27   A    
C52   O17   A    
C47   C53   A    
C28   C61   S    
C64   H4    S    
C83   C88   T    
C67   C84   S    
C13   C14   S    
C55   H15   S    
C86   H36   S    
C61   C62   A    
C67   C78   S    
C87   H43   S    
C49   H17   S    
Cr1   O17   S    
Cr5   O8    S    
C54   C59   A    
C68   O20   S    
C45   H30   S    
C4    O14   A    
Cr5   O26   S    
C51   H20   S    
Cr5   O11   S    
C3    C11   S    
C84   C85   S    
C3    C8    S    
C65   C73   S    
Cr6   O11   S    
C57   C60   A    
C79   O3    A    
C35   H7    S    
C25   C26   S    
C16   O1    A    
C51   C53   A    
C82   O10   A    
Cr2   O14   S    
Cr1   O1    S    
C43   C44   A    
C75   O25   A    
C37   C38   A    
C37   H10   S    
C46   C81   S    
Cr4   O24   S    
C39   H5    S    
C47   C48   A    
Cr4   O25   S    
Cr6   O10   S    
C23   C34   S    
C75   O26   A    
C50   C51   A    
C64   C76   S    
C41   H6    S    
C78   H16   S    
C34   C88   S    
C40   O21   A    
C47   C52   S    
C8    C10   S    
C23   C64   S    
C49   C50   A    
Cr4   O6    S    
C22   C24   S    
Cr5   O7    S    
C25   H50   S    
C42   C43   A    
C87   H44   S    
Cr2   O12   S    
C19   C29   S    
Cr1   O18   S    
C13   H12   S    
C74   C82   S    
C80   O7    A    
Cr6   O3    S    
C54   C55   A    
C60   C80   S    
C20   C79   S    
C18   C22   S    
C22   H2    S    
Cr3   O21   S    
C18   H47   S    
C7    C16   S    
C72   C73   A    
C3    C5    S    
C10   C13   S    
C11   C17   S    
C34   C67   S    
C71   C74   A    
C57   H19   S    
C39   C44   A    
C54   H14   S    
C25   C27   S    
C81   O8    A    
C85   H40   S    
C86   H38   S    
C23   H31   S    
Cr2   O19   S    
C32   C33   A    
C38   H11   S    
C1    O13   A    
C19   C24   S    
C58   C59   A    
C43   H8    S    
C71   C72   A    
C10   H23   S    
C2    C56   S    
C62   H22   S    
C63   H26   S    
C61   C68   A    
Cr3   O16   S    
C57   C58   A    
Cr2   O13   S    
Cr6   O9    S    
C48   C49   A    
C29   H48   S    
C33   C35   A    
C87   O20   S    
Cr4   O11   S    
C33   H3    S    
C32   C40   S    
C9    C15   S    
C69   C70   A    
C24   C30   S    
C82   O5    A    
C36   C44   S    
C10   C11   S    
C48   H13   S    
C26   C31   S    
C26   C29   S    
C19   H45   S    
C65   C66   A    
C85   H39   S    
Cr4   O5    S    
C66   H29   S    
C40   O12   A    
C1    O4    A    
C55   C60   A    
C77   O2    A    
C53   H21   S    
C28   O19   A    
C34   C76   S    
C14   H35   S    
Cr5   O27   S    
