data_mof_unit_43957.cif
_audit_creation_date              2012-12-10T17:15:09-0500
_audit_creation_method            fapswitch 2.2
_symmetry_space_group_name_H-M    P1
_symmetry_Int_Tables_number       1
_space_group_crystal_system       triclinic
_cell_length_a                    10.183455
_cell_length_b                    10.811587
_cell_length_c                    12.859462
_cell_angle_alpha                 90.583567
_cell_angle_beta                  91.732747
_cell_angle_gamma                 96.569007
_cell_volume                      1405.74688294

loop_
_atom_site_label
_atom_site_type_symbol
_atom_type_description
_atom_site_fract_x
_atom_site_fract_y
_atom_site_fract_z
_atom_type_partial_charge
C1    C     C_R   0.443136 0.267758 0.495502 1.004021
C2    C     C_R   0.653833 0.433518 0.041167 -0.196581
C3    C     C_R   0.353050 0.557003 0.851858 -0.191060
C4    C     C_R   0.647449 0.444049 0.148146 -0.205192
C5    C     C_R   0.558099 0.462434 0.871784 -0.224943
C6    C     C_R   0.442099 0.538147 0.128245 -0.223526
C7    C     C_R   0.553348 0.473777 0.978110 0.169671
C8    C     C_R   0.446978 0.527024 0.021907 0.168056
C9    C     C_2   0.409112 0.135322 0.484557 -0.306313
C10   C     C_2   0.591001 0.865144 0.512541 -0.328801
C11   C     C_2   0.490537 0.058854 0.526690 -0.069968
C12   C     C_R   0.556925 0.732314 0.503881 0.967768
C13   C     C_2   0.506817 0.940356 0.472286 -0.061562
C14   C     C_2   0.427238 0.901262 0.374904 0.482308
C15   C     C_2   0.565389 0.095834 0.626668 0.479045
C16   C     C_2   0.899470 0.635800 0.444887 0.462478
C17   C     C_2   0.107442 0.438467 0.615286 0.488350
C18   C     C_2   0.072676 0.506935 0.521659 0.012931
C19   C     C_2   0.931337 0.526419 0.504781 -0.089326
C20   C     C_R   0.474565 0.502846 0.698310 0.918016
C21   C     C_R   0.525489 0.497329 0.301695 0.887032
C22   C     C_R   0.540452 0.494645 0.191246 -0.041712
C23   C     C_R   0.459756 0.505922 0.808768 -0.042513
C24   C     C_R   0.346631 0.567501 0.958835 -0.197648
H1    H     H_    0.360415 0.579236 0.161787 0.172242
H2    H     H_    0.132318 0.591904 0.390559 0.182467
H3    H     H_    0.325366 0.919752 0.364890 0.066932
H4    H     H_    0.665310 0.073874 0.641074 0.049002
H5    H     H_    0.816189 0.629208 0.390565 0.121865
H6    H     H_    0.080702 0.470613 0.691133 0.015442
H7    H     H_    0.639687 0.421174 0.838261 0.172040
H8    H     H_    0.723975 0.410242 0.196853 0.165572
H9    H     H_    0.276820 0.591260 0.803167 0.157305
H10   H     H_    0.264585 0.608099 0.992071 0.147617
H11   H     H_    0.735992 0.393116 0.007915 0.147766
H12   H     H_    0.667528 0.895661 0.570245 0.122834
H13   H     H_    0.336284 0.106641 0.423558 0.110262
H14   H     H_    0.862782 0.372071 0.580745 0.171335
N1    N     N_2   0.162330 0.550370 0.457540 -0.201267
N2    N     N_2   0.837670 0.449630 0.542460 -0.244342
O1    O     O_R   0.567930 0.307680 0.508550 -0.613502
O2    O     O_2   0.514807 0.153290 0.694131 -0.564098
O3    O     O_2   0.968309 0.735571 0.455264 -0.591476
O4    O     O_2   0.155403 0.340634 0.608134 -0.534337
O5    O     O_R   0.432070 0.692320 0.491450 -0.597957
O6    O     O_R   0.351090 0.340020 0.481290 -0.560435
O7    O     O_R   0.648910 0.659980 0.518710 -0.631340
O8    O     O_R   0.590490 0.486480 0.665020 -0.613333
O9    O     O_R   0.409510 0.513520 0.334980 -0.616035
O10   O     O_R   0.373660 0.518820 0.637760 -0.614264
O11   O     O_R   0.626340 0.481180 0.362240 -0.659062
O12   O     O_2   0.475823 0.845749 0.305172 -0.579938
Zn1   Zn    Zn3+2 0.644780 0.478400 0.518200 0.951973
Zn2   Zn    Zn3+2 0.355220 0.521600 0.481800 1.006198

loop_
_geom_bond_atom_site_label_1
_geom_bond_atom_site_label_2
_ccdc_geom_bond_type
C2    H11   S    
C2    C4    A    
C18   N1    D    
C14   H3    S    
C9    C11   D    
C3    C23   A    
C2    C7    A    
C5    C23   A    
C20   C23   S    
O7    Zn1   S    
O6    Zn2   S    
C9    H13   S    
C17   C18   S    
C15   H4    S    
C17   O4    D    
C7    C8    A    
C4    H8    S    
C21   C22   S    
H14   N2    S    
C17   H6    S    
C11   C13   S    
C16   O3    D    
O1    Zn1   S    
C3    C24   A    
O10   Zn2   S    
C10   C12   S    
C12   O7    A    
C21   O9    A    
C8    C24   A    
C10   H12   S    
O5    Zn2   S    
N2    Zn1   S    
C16   C19   S    
O8    Zn1   S    
C1    O6    A    
C14   O12   D    
H2    N1    S    
C6    H1    S    
C19   N2    D    
C3    H9    S    
O9    Zn2   S    
N1    Zn2   S    
C21   O11   A    
C1    C9    S    
C20   O10   A    
C18   C19   S    
C1    O1    A    
C5    C7    A    
C4    C22   A    
C6    C8    A    
C20   O8    A    
C5    H7    S    
C16   H5    S    
C13   C14   S    
C11   C15   S    
C24   H10   S    
C15   O2    D    
C12   O5    A    
O11   Zn1   S    
C10   C13   D    
C6    C22   A    
