data_mof_unit_56066.cif
_audit_creation_date              2013-03-05T15:51:40-0500
_audit_creation_method            fapswitch 2.2
_symmetry_space_group_name_H-M    P1
_symmetry_Int_Tables_number       1
_space_group_crystal_system       triclinic
_cell_length_a                    11.542102
_cell_length_b                    11.537089
_cell_length_c                    19.56928
_cell_angle_alpha                 90.408271
_cell_angle_beta                  90.077497
_cell_angle_gamma                 59.951201
_cell_volume                      2255.59132277

loop_
_atom_site_label
_atom_site_type_symbol
_atom_site_description
_atom_site_fract_x
_atom_site_fract_y
_atom_site_fract_z
_atom_type_partial_charge
O1    O     O_R   0.267750 0.231960 0.575440 -0.504869
O2    O     O_R   0.527290 0.186640 0.570530 -0.494659
C1    C     C_R   0.640451 0.117190 0.599318 0.546135
O3    O     O_R   0.728110 0.003450 0.576380 -0.504456
O4    O     O_R   0.682980 0.789190 0.570500 -0.493952
C2    C     C_R   0.612489 0.746009 0.598674 0.545511
O5    O     O_R   0.499300 0.771880 0.575540 -0.504721
O6    O     O_R   0.285350 0.030870 0.569740 -0.493419
C3    C     C_R   0.241157 0.145173 0.598248 0.546473
O7    O     O_R   0.270960 0.227070 0.423890 -0.518895
O8    O     O_R   0.530270 0.182120 0.430040 -0.509078
C4    C     C_R   0.645019 0.113715 0.403083 0.549261
O9    O     O_R   0.731320 0.998570 0.424830 -0.520289
O10   O     O_R   0.685950 0.784660 0.430010 -0.508015
C5    C     C_R   0.615265 0.742050 0.401383 0.548333
O11   O     O_R   0.502510 0.767000 0.423980 -0.517987
O12   O     O_R   0.288320 0.026340 0.429250 -0.504691
C6    C     C_R   0.248019 0.138908 0.400096 0.545727
Cr1   Cr    Cr6+3 0.404720 0.198220 0.499960 1.025954
Cr2   Cr    Cr6+3 0.698290 0.897110 0.500380 1.026117
Cr3   Cr    Cr6+3 0.396970 0.904720 0.499610 1.028276
O13   O     O_3   0.499990 0.000020 0.499980 -0.254387
C7    C     C_1   0.670357 0.646420 0.860098 0.006985
C8    C     C_1   0.654780 0.683714 0.728458 -0.030130
C9    C     C_1   0.663419 0.666651 0.799687 -0.029164
C10   C     C_1   0.641276 0.703954 0.668045 0.004642
C11   C     C_1   0.126525 0.199007 0.859254 0.007099
C12   C     C_1   0.171641 0.170190 0.727740 -0.029750
C13   C     C_1   0.150086 0.182406 0.798941 -0.028698
C14   C     C_1   0.195517 0.160696 0.667441 0.004063
C15   C     C_1   0.678567 0.191496 0.860722 0.005774
C16   C     C_1   0.658637 0.167061 0.729037 -0.029840
C17   C     C_1   0.665704 0.180990 0.800311 -0.028796
C18   C     C_1   0.653075 0.149402 0.668686 0.004193
C19   C     C_R   0.651663 0.686778 0.188148 0.003959
C20   C     C_R   0.532977 0.717789 0.222434 0.056784
C21   C     C_R   0.526483 0.729998 0.291958 -0.011345
C22   C     C_R   0.748716 0.699545 0.295488 -0.169234
C23   C     C_R   0.754082 0.692308 0.224251 -0.175474
C24   C     C_3   0.452719 0.647026 0.223711 0.113373
C25   C     C_3   0.443419 0.665305 0.300439 -0.247549
C26   C     C_R   0.637263 0.709614 0.329852 0.013363
H1    H     H_    0.832862 0.692177 0.323593 0.124910
H2    H     H_    0.843449 0.677177 0.198414 0.135068
H3    H     H_    0.509181 0.540407 0.207882 0.126762
H4    H     H_    0.341480 0.736562 0.319951 0.162321
H5    H     H_    0.496636 0.569095 0.328570 0.108645
C27   C     C_R   0.157940 0.188883 0.188215 0.015320
C28   C     C_R   0.195293 0.270235 0.223586 0.013594
C29   C     C_R   0.219625 0.253840 0.292337 0.033866
C30   C     C_R   0.194645 0.058932 0.291843 -0.155509
C31   C     C_R   0.168590 0.075985 0.221597 -0.127486
C32   C     C_3   0.127690 0.419515 0.229935 -0.257501
C33   C     C_3   0.154644 0.400888 0.305822 -0.264562
C34   C     C_R   0.209687 0.155257 0.328740 0.013145
H6    H     H_    0.196688 0.975133 0.317435 0.131994
H7    H     H_    0.145623 0.007911 0.194940 0.187057
H8    H     H_    0.019536 0.469086 0.217957 0.155535
H9    H     H_    0.184227 0.460987 0.203678 0.179649
H10   H     H_    0.226722 0.431739 0.323503 0.147369
H11   H     H_    0.062061 0.439831 0.337188 0.136623
C35   C     C_R   0.687414 0.194254 0.198800 0.017348
C36   C     C_R   0.799222 0.105595 0.237108 0.020515
C37   C     C_R   0.791233 0.090335 0.305996 0.005205
C38   C     C_R   0.559741 0.266008 0.303839 -0.158134
C39   C     C_R   0.568795 0.281267 0.233497 -0.174176
C40   C     C_3   0.894853 0.959860 0.225839 -0.235026
C41   C     C_3   0.888729 0.943204 0.302063 -0.258205
C42   C     C_R   0.668574 0.161827 0.339357 0.018181
H12   H     H_    0.482011 0.355639 0.206086 0.139419
H13   H     H_    0.994282 0.939570 0.207985 0.189076
H14   H     H_    0.850445 0.909990 0.195434 0.149292
H15   H     H_    0.843603 0.881346 0.315197 0.161104
H16   H     H_    0.984317 0.915724 0.328521 0.143346
O14   O     O_R   0.821590 0.119350 0.952850 -0.501508
O15   O     O_R   0.037230 0.162540 0.957390 -0.488069
C43   C     C_R   0.081613 0.231289 0.928540 0.548843
O16   O     O_R   0.056530 0.344750 0.951370 -0.502355
O17   O     O_R   0.798000 0.560370 0.957490 -0.495640
C44   C     C_R   0.683921 0.604388 0.929470 0.546975
O18   O     O_R   0.596230 0.579400 0.952760 -0.492286
O19   O     O_R   0.639160 0.321170 0.958690 -0.493177
C45   C     C_R   0.708408 0.206785 0.930081 0.543535
O20   O     O_R   0.821370 0.124220 0.104400 -0.512862
O21   O     O_R   0.037020 0.167050 0.097880 -0.495006
C46   C     C_R   0.084709 0.234994 0.124647 0.548758
O22   O     O_R   0.056310 0.349620 0.102920 -0.516889
O23   O     O_R   0.797790 0.564880 0.097980 -0.512490
C47   C     C_R   0.681125 0.614877 0.124285 0.546013
O24   O     O_R   0.596000 0.584270 0.104310 -0.485841
O25   O     O_R   0.638950 0.325690 0.099180 -0.505763
C48   C     C_R   0.709859 0.212014 0.127775 0.538942
Cr4   Cr    Cr6+3 0.926290 0.152010 0.028150 1.064820
Cr5   Cr    Cr6+3 0.921440 0.451830 0.027490 1.039325
Cr6   Cr    Cr6+3 0.626370 0.446880 0.028730 1.073677
O26   O     O_3   0.824700 0.350240 0.028120 -0.269355
H17   H     H_    0.464203 0.327457 0.328713 0.137247
N1    N     N_R   0.323119 0.722097 0.189853 0.067227
O27   O     O_R   0.312972 0.786374 0.133738 -0.334120
O28   O     O_R   0.227668 0.698370 0.205963 -0.407371

loop_
_geom_bond_atom_site_label_1
_geom_bond_atom_site_label_2
_geom_bond_distance
_ccdc_geom_bond_type
C4    C42   1.448839 S    
O11   Cr3   2.057168 S    
C32   H8    1.107463 S    
C11   C13   1.203821 T    
Cr6   O26   1.981736 S    
C32   H9    1.111709 S    
O24   Cr6   2.057784 S    
O4    Cr2   1.926065 S    
C33   H10   1.110195 S    
C32   C33   1.511515 S    
C4    O9    1.272703 A    
O8    Cr1   1.933597 S    
C29   C33   1.493380 S    
C37   C41   1.496340 S    
C12   C13   1.409335 S    
C8    C10   1.201442 T    
C30   H6    1.081709 S    
C24   N1    1.461068 S    
O4    C2    1.274828 A    
O18   Cr6   2.041346 S    
C38   C42   1.415349 A    
C41   H16   1.111893 S    
C5    O11   1.263612 A    
O22   Cr5   2.042775 S    
C15   C45   1.431146 S    
C40   H14   1.112387 S    
C21   C26   1.392433 A    
C28   C29   1.369014 A    
O21   Cr4   1.933801 S    
C19   C20   1.401074 A    
O6    C3    1.275571 A    
C35   C48   1.448848 S    
C25   H4    1.110872 S    
C15   C17   1.204083 T    
C7    C44   1.426677 S    
C40   H13   1.106699 S    
C43   O16   1.268627 A    
Cr3   O13   1.982916 S    
O6    Cr3   1.939063 S    
O23   Cr5   1.938125 S    
C24   H3    1.107266 S    
O7    C6    1.258611 A    
C36   C40   1.493559 S    
O1    Cr1   2.052915 S    
C35   C39   1.399869 A    
C30   C31   1.400846 A    
O10   Cr2   1.938771 S    
C20   C24   1.510949 S    
Cr1   O13   1.979846 S    
O1    C3    1.269049 A    
C8    C9    1.405535 S    
O17   Cr5   1.925335 S    
O25   C48   1.279544 A    
C46   O22   1.269095 A    
C1    C18   1.431299 S    
C41   H15   1.105398 S    
O21   C46   1.271730 A    
O19   C45   1.275992 A    
O12   Cr3   1.923002 S    
C40   C41   1.511610 S    
C16   C18   1.204124 T    
C19   C23   1.404734 A    
C35   C36   1.399993 A    
O15   Cr4   1.932571 S    
O7    Cr1   2.048553 S    
C27   C28   1.393230 A    
O12   C6    1.278033 A    
C25   H5    1.112377 S    
C37   C42   1.391483 A    
O15   C43   1.274501 A    
Cr5   O26   1.982797 S    
C2    O5    1.269115 A    
C3    C14   1.430755 S    
C6    C34   1.449045 S    
C24   C25   1.511229 S    
Cr2   O13   1.981647 S    
N1    O27   1.301470 A    
Cr4   O26   1.979817 S    
N1    O28   1.300876 A    
C27   C46   1.449551 S    
O17   C44   1.274618 A    
C1    O3    1.268977 A    
C19   C47   1.438577 S    
O14   Cr4   2.053541 S    
C2    C10   1.426693 S    
C20   C21   1.365109 A    
O19   Cr6   1.939505 S    
O9    Cr2   2.043156 S    
O2    Cr1   1.932487 S    
C22   C23   1.395568 A    
C5    C26   1.436081 S    
C44   O18   1.269094 A    
C11   C43   1.430798 S    
O8    C4    1.266667 A    
C22   C26   1.404323 A    
C23   H2    1.081616 S    
C33   H11   1.112454 S    
C29   C34   1.398795 A    
C16   C17   1.409806 S    
C12   C14   1.203806 T    
O2    C1    1.273453 A    
C38   H17   1.081265 S    
C22   H1    1.081442 S    
O5    Cr3   2.041226 S    
O14   C45   1.267984 A    
C39   H12   1.082443 S    
O16   Cr5   2.056033 S    
C28   C32   1.497271 S    
C30   C34   1.402841 A    
O20   Cr4   2.048508 S    
C7    C9    1.201440 T    
C21   C25   1.490846 S    
C31   H7    1.077722 S    
O25   Cr6   1.923614 S    
C36   C37   1.369962 A    
O3    Cr2   2.056963 S    
C27   C31   1.410649 A    
O23   C47   1.276988 A    
C38   C39   1.399640 A    
O10   C5    1.271852 A    
O20   C48   1.257440 A    
C47   O24   1.259880 A    
