data_mof_unit_22640.cif
_audit_creation_date              2012-12-11T16:48:38-0500
_audit_creation_method            fapswitch 2.2
_symmetry_space_group_name_H-M    P1
_symmetry_Int_Tables_number       1
_space_group_crystal_system       triclinic
_cell_length_a                    17.38849
_cell_length_b                    24.188591
_cell_length_c                    15.192401
_cell_angle_alpha                 90.084234
_cell_angle_beta                  125.715109
_cell_angle_gamma                 90.104285
_cell_volume                      5188.1725055

loop_
_atom_site_label
_atom_site_type_symbol
_atom_type_description
_atom_site_fract_x
_atom_site_fract_y
_atom_site_fract_z
_atom_type_partial_charge
C1    C     C_R   0.311399 0.374420 0.909494 -0.134797
C2    C     C_R   0.497524 0.498318 0.674391 -0.077718
C3    C     C_R   0.098965 0.874416 0.910690 -0.165912
C4    C     C_R   0.312962 0.361877 0.999813 0.044812
C5    C     C_R   0.681258 0.352544 0.003024 0.042878
C6    C     C_R   0.816708 0.856326 0.999424 0.040195
C7    C     C_R   0.187974 0.861424 0.002674 0.049572
C8    C     C_3   0.696477 0.404267 0.432339 0.150457
C9    C     C_3   0.744294 0.349448 0.441835 -0.229392
C10   C     C_3   0.849883 0.351057 0.533885 -1.047733
C11   C     C_3   0.367509 0.382297 0.631503 0.219565
C12   C     C_3   0.368002 0.335137 0.699176 -0.286877
C13   C     C_R   0.058275 0.000076 0.359760 -0.151931
C14   C     C_3   0.277250 0.300569 0.634850 -1.016433
C15   C     C_3   0.153372 0.896501 0.446841 0.158348
C16   C     C_3   0.198115 0.839273 0.469042 -0.250230
C17   C     C_3   0.281156 0.832779 0.587996 -1.034864
C18   C     C_3   0.875359 0.876231 0.664171 0.204378
C19   C     C_3   0.864061 0.816333 0.626066 -0.208584
C20   C     C_3   0.785189 0.787003 0.623936 -1.043981
C21   C     C_3   0.165624 0.625089 0.682569 0.143197
C22   C     C_3   0.060998 0.611117 0.598922 -0.339679
C23   C     C_3   0.997041 0.649401 0.609463 -0.974358
C24   C     C_R   0.967932 0.002165 0.654648 -0.035890
C25   C     C_3   0.857191 0.616250 0.265832 0.152205
C26   C     C_3   0.888125 0.676375 0.300414 -0.261356
C27   C     C_3   0.936123 0.700039 0.250743 -1.000579
C28   C     C_3   0.642712 0.115749 0.731050 0.116396
C29   C     C_3   0.612676 0.175907 0.697249 -0.230655
C30   C     C_3   0.561336 0.198930 0.743344 -0.956220
C31   C     C_3   0.332957 0.124157 0.317343 0.154260
C32   C     C_3   0.437273 0.109556 0.399643 -0.353829
C33   C     C_3   0.501584 0.146725 0.387532 -0.931062
C34   C     C_R   0.195167 0.497840 0.639708 -0.006450
C35   C     C_R   0.826129 0.498577 0.306830 -0.018104
C36   C     C_R   0.673714 0.997982 0.688257 0.001625
C37   C     C_R   0.298840 0.997918 0.365810 -0.002252
C38   C     C_2   0.977391 0.455578 0.383899 -0.127457
C39   C     C_2   0.076947 0.450902 0.472845 -0.123499
C40   C     C_2   0.420698 0.951506 0.530612 -0.142228
C41   C     C_R   0.682245 0.366768 0.091461 -0.092089
C42   C     C_2   0.521845 0.955687 0.615706 -0.125959
C43   C     C_2   0.926407 0.496575 0.384912 -0.198667
C44   C     C_2   0.125810 0.496885 0.523368 -0.151217
C45   C     C_2   0.371431 0.997500 0.481837 -0.170569
C46   C     C_2   0.572781 0.995601 0.611065 -0.179683
C47   C     C_R   0.384911 0.763343 0.102730 0.125170
C48   C     C_R   0.614513 0.761102 0.897524 0.138731
C49   C     C_R   0.886095 0.259731 0.105597 0.155283
C50   C     C_R   0.115025 0.264099 0.900029 0.140609
C51   C     C_R   0.362419 0.741868 0.004889 0.051318
C52   C     C_R   0.815688 0.868978 0.909852 -0.118195
C53   C     C_R   0.631306 0.742928 0.994272 0.032035
C54   C     C_R   0.870678 0.242526 0.008867 0.034482
C55   C     C_R   0.138322 0.242185 0.997722 0.040551
C56   C     C_R   0.298056 0.770320 0.908103 -0.193397
C57   C     C_R   0.693943 0.772700 0.090159 -0.171425
C58   C     C_R   0.807817 0.272045 0.913360 -0.184768
C59   C     C_R   0.204242 0.270147 0.095092 -0.203951
C60   C     C_R   0.749133 0.311678 0.911679 -0.176604
C61   C     C_R   0.253705 0.315410 0.095067 -0.137042
C62   C     C_R   0.248891 0.815516 0.908489 -0.182824
C63   C     C_R   0.188824 0.874653 0.092051 -0.103591
C64   C     C_R   0.750346 0.814175 0.091568 -0.148986
C65   C     C_R   0.755334 0.322808 0.006498 0.032923
C66   C     C_R   0.238437 0.332834 0.997833 0.049396
C67   C     C_R   0.262731 0.832296 0.005438 0.051904
C68   C     C_R   0.742061 0.826973 0.996159 0.036436
C69   C     C_R   0.441634 0.650990 0.091233 -0.096350
C70   C     C_R   0.555907 0.651578 0.909337 -0.123299
C71   C     C_R   0.944573 0.151302 0.091693 -0.063068
C72   C     C_R   0.058409 0.151269 0.909642 -0.121045
C73   C     C_R   0.828326 0.299465 0.104377 0.152824
C74   C     C_R   0.384854 0.684174 0.002175 0.039975
C75   C     C_R   0.164757 0.309110 0.900051 0.125524
C76   C     C_R   0.335328 0.808262 0.103036 0.114904
C77   C     C_R   0.669720 0.802698 0.898434 0.138100
C78   C     C_3   0.910876 0.329832 0.197699 -0.511892
C79   C     C_3   0.075782 0.337358 0.812607 -0.471345
C80   C     C_3   0.424393 0.836361 0.191711 -0.447518
C81   C     C_3   0.585184 0.831485 0.805144 -0.495425
C82   C     C_3   0.478121 0.787650 0.191361 -0.459966
C83   C     C_3   0.525079 0.786606 0.804997 -0.486895
C84   C     C_3   0.973796 0.287050 0.198201 -0.481047
C85   C     C_R   0.611135 0.685093 0.998437 0.026045
C86   C     C_3   0.021841 0.288521 0.812657 -0.501481
C87   C     C_R   0.527891 0.446694 0.556045 0.085310
C88   C     C_R   0.543528 0.450164 0.478349 -0.036203
C89   C     C_R   0.939687 0.968228 0.488561 0.095579
C90   C     C_R   0.964458 0.967465 0.418205 -0.078577
C91   C     C_R   0.534401 0.495495 0.610416 0.068828
C92   C     C_R   0.581577 0.496991 0.464761 0.109304
C93   C     C_R   0.988723 0.003140 0.577834 0.058517
C94   C     C_R   0.040885 0.998887 0.439251 0.134676
C95   C     C_R   0.583544 0.541318 0.607675 -0.165898
C96   C     C_R   0.890050 0.184891 0.003245 0.013474
C97   C     C_R   0.607959 0.541866 0.535000 -0.184758
C98   C     C_R   0.070001 0.031878 0.604058 -0.180906
C99   C     C_R   0.096279 0.029763 0.534006 -0.205069
C100  C     C_3   0.460833 0.414943 0.397624 0.147402
C101  C     C_3   0.448080 0.405990 0.486127 0.267080
C102  C     C_3   0.863688 0.965915 0.319987 0.217830
C103  C     C_3   0.835988 0.967603 0.397976 0.220671
C104  C     C_R   0.563209 0.454575 0.305709 0.573449
C105  C     C_R   0.477633 0.453502 0.713665 0.518865
C106  C     C_R   0.050157 0.953965 0.301678 0.534447
C107  C     C_R   0.115437 0.184398 0.999239 0.050886
C108  C     C_R   0.963327 0.955368 0.702813 0.517066
C109  C     C_R   0.240896 0.544358 0.701292 0.542447
C110  C     C_R   0.769890 0.545275 0.265839 0.520181
C111  C     C_R   0.730059 0.044914 0.731469 0.540333
C112  C     C_R   0.256775 0.044163 0.301937 0.522408
C113  C     C_R   0.550761 0.545828 0.302248 -0.127716
C114  C     C_R   0.491100 0.545296 0.723182 -0.202257
C115  C     C_R   0.043186 0.045911 0.298524 -0.052989
C116  C     C_R   0.973277 0.047287 0.712117 -0.239471
C117  C     C_R   0.242352 0.452729 0.703726 -0.273115
C118  C     C_R   0.575902 0.500217 0.367377 -0.115747
C119  C     C_R   0.767945 0.453087 0.270949 -0.234737
C120  C     C_R   0.732317 0.952726 0.725384 -0.246226
C121  C     C_R   0.251229 0.952725 0.301499 -0.244342
C122  C     C_R   0.357407 0.653298 0.911565 -0.147414
C123  C     C_R   0.641388 0.653735 0.089107 -0.110348
C124  C     C_R   0.859245 0.153736 0.911814 -0.107552
C125  C     C_R   0.142794 0.153344 0.089233 -0.157962
C126  C     C_R   0.402229 0.375337 0.091327 -0.061779
C127  C     C_R   0.595593 0.369001 0.911381 -0.166880
C128  C     C_R   0.903619 0.872529 0.090977 -0.097532
Cl1   Cl    Cl    0.364277 0.453188 0.286995 -0.688528
Cl2   Cl    Cl    0.481674 0.336028 0.533914 -0.700331
Cl3   Cl    Cl    0.826754 0.026593 0.237674 -0.663985
Cl4   Cl    Cl    0.778508 0.905544 0.393718 -0.692167
H1    H     H_    0.253086 0.368065 0.825784 0.115949
H2    H     H_    0.705173 0.761109 0.165463 0.127427
H3    H     H_    0.818208 0.612732 0.176257 0.117394
H4    H     H_    0.922378 0.590943 0.304694 0.099905
H5    H     H_    0.826236 0.702193 0.275711 0.201415
H6    H     H_    0.937804 0.679036 0.389904 0.206773
H7    H     H_    0.999581 0.675252 0.275909 0.270347
H8    H     H_    0.958647 0.743325 0.278826 0.271728
H9    H     H_    0.886056 0.700027 0.160862 0.272087
H10   H     H_    0.680913 0.112184 0.820471 0.131287
H11   H     H_    0.577217 0.090409 0.691030 0.101673
H12   H     H_    0.675379 0.201975 0.725473 0.200882
H13   H     H_    0.797901 0.261300 0.838309 0.123032
H14   H     H_    0.565474 0.178851 0.607650 0.220028
H15   H     H_    0.496612 0.174217 0.714014 0.263490
H16   H     H_    0.540364 0.242386 0.716587 0.298160
H17   H     H_    0.608678 0.198263 0.833382 0.264591
H18   H     H_    0.325232 0.169480 0.321607 0.148932
H19   H     H_    0.312343 0.114598 0.234341 0.095756
H20   H     H_    0.456191 0.114118 0.482739 0.208742
H21   H     H_    0.448333 0.066141 0.385811 0.194287
H22   H     H_    0.484235 0.142402 0.304938 0.264519
H23   H     H_    0.576574 0.134579 0.447846 0.283326
H24   H     H_    0.223900 0.254686 0.172375 0.129950
H25   H     H_    0.493244 0.190641 0.401944 0.273917
H26   H     H_    0.696122 0.330944 0.835222 0.162692
H27   H     H_    0.309170 0.333267 0.172267 0.160212
H28   H     H_    0.194857 0.833941 0.831549 0.131376
H29   H     H_    0.803891 0.833312 0.168257 0.136420
H30   H     H_    0.920185 0.371783 0.175227 0.205172
H31   H     H_    0.062549 0.376404 0.840469 0.208098
H32   H     H_    0.438466 0.875529 0.165044 0.211767
H33   H     H_    0.734012 0.354251 0.173748 0.089266
H34   H     H_    0.573296 0.872849 0.827255 0.207725
H35   H     H_    0.911092 0.328003 0.270946 0.184391
H36   H     H_    0.070730 0.341029 0.736443 0.193270
H37   H     H_    0.428734 0.839788 0.267483 0.184470
H38   H     H_    0.584792 0.830457 0.731750 0.179940
H39   H     H_    0.523696 0.798206 0.164444 0.211916
H40   H     H_    0.478415 0.801463 0.827873 0.210689
H41   H     H_    0.019569 0.303781 0.175406 0.206812
H42   H     H_    0.977011 0.298881 0.840628 0.204228
H43   H     H_    0.513609 0.762830 0.266938 0.186851
H44   H     H_    0.761812 0.857212 0.827519 0.095755
H45   H     H_    0.489263 0.760227 0.731102 0.186779
H46   H     H_    0.011230 0.260958 0.272230 0.191361
H47   H     H_    0.985525 0.263869 0.736549 0.191798
H48   H     H_    0.598267 0.577813 0.656476 0.126482
H49   H     H_    0.639168 0.578651 0.527286 0.125622
H50   H     H_    0.112286 0.056075 0.677866 0.138953
H51   H     H_    0.157012 0.053119 0.551558 0.137479
H52   H     H_    0.479898 0.377235 0.372652 0.164365
H53   H     H_    0.378290 0.419856 0.464772 0.109937
H54   H     H_    0.846137 0.926654 0.273711 0.124072
H55   H     H_    0.246784 0.869461 0.176378 0.101269
H56   H     H_    0.799040 0.005891 0.394684 0.131285
H57   H     H_    0.485524 0.664052 0.175149 0.092300
H58   H     H_    0.510621 0.664654 0.825662 0.102435
H59   H     H_    0.989732 0.164098 0.175732 0.093203
H60   H     H_    0.014262 0.164613 0.826100 0.096099
H61   H     H_    0.558670 0.588783 0.326068 0.116441
H62   H     H_    0.496743 0.588140 0.707506 0.131313
H63   H     H_    0.047663 0.088860 0.321063 0.129175
H64   H     H_    0.972374 0.090488 0.693296 0.139469
H65   H     H_    0.230062 0.410231 0.678485 0.137123
H66   H     H_    0.957574 0.528996 0.445075 0.146038
H67   H     H_    0.789518 0.411538 0.300299 0.134823
H68   H     H_    0.711691 0.910941 0.695657 0.129031
H69   H     H_    0.256697 0.910629 0.328220 0.133624
H70   H     H_    0.330260 0.669874 0.832784 0.115595
H71   H     H_    0.671577 0.669534 0.169502 0.134079
H72   H     H_    0.829186 0.169653 0.831686 0.133487
H73   H     H_    0.169806 0.169810 0.168203 0.116168
H74   H     H_    0.428615 0.371007 0.175199 0.143032
H75   H     H_    0.571479 0.359343 0.830783 0.184991
H76   H     H_    0.928653 0.867512 0.174078 0.147168
H77   H     H_    0.102542 0.536369 0.481853 0.153719
H78   H     H_    0.074495 0.868079 0.828369 0.154018
H79   H     H_    0.943519 0.422184 0.325747 0.136383
H80   H     H_    0.101315 0.410297 0.508602 0.124939
H81   H     H_    0.393969 0.910882 0.495242 0.134839
H82   H     H_    0.556245 0.922907 0.674816 0.134857
H83   H     H_    0.700300 0.410170 0.507280 0.122130
H84   H     H_    0.736201 0.438431 0.426179 0.105110
H85   H     H_    0.710099 0.315624 0.457071 0.211518
H86   H     H_    0.735055 0.340341 0.364459 0.192645
H87   H     H_    0.885955 0.383667 0.518789 0.272589
H88   H     H_    0.397572 0.037173 0.522541 0.153694
H89   H     H_    0.882255 0.310553 0.539181 0.272294
H90   H     H_    0.860730 0.359443 0.612339 0.283220
H91   H     H_    0.336497 0.365383 0.549420 0.172430
H92   H     H_    0.319258 0.416342 0.617356 0.059906
H93   H     H_    0.428432 0.307106 0.725989 0.230041
H94   H     H_    0.376932 0.352297 0.772103 0.188738
H95   H     H_    0.213541 0.326832 0.599544 0.250358
H96   H     H_    0.277803 0.269686 0.689221 0.272344
H97   H     H_    0.272860 0.278180 0.568139 0.285955
H98   H     H_    0.128278 0.901927 0.498838 0.130079
H99   H     H_    0.540632 0.027565 0.550474 0.145068
H100  H     H_    0.208690 0.928090 0.468420 0.108284
H101  H     H_    0.143912 0.807157 0.447659 0.210108
H102  H     H_    0.223618 0.832801 0.417632 0.191167
H103  H     H_    0.337434 0.863570 0.610656 0.276703
H104  H     H_    0.311355 0.790679 0.601267 0.272058
H105  H     H_    0.257100 0.838368 0.640985 0.270892
H106  H     H_    0.806803 0.898269 0.610139 0.149396
H107  H     H_    0.894267 0.875008 0.747478 0.085650
H108  H     H_    0.847516 0.815103 0.543599 0.253995
H109  H     H_    0.931750 0.793936 0.681899 0.182749
H110  H     H_    0.279475 0.755371 0.830834 0.118377
H111  H     H_    0.801193 0.786762 0.706237 0.262313
H112  H     H_    0.779030 0.743596 0.596572 0.276568
H113  H     H_    0.716437 0.808096 0.566914 0.278999
H114  H     H_    0.174993 0.670223 0.678266 0.140057
H115  H     H_    0.184865 0.616383 0.765232 0.098364
H116  H     H_    0.043447 0.615037 0.516377 0.206430
H117  H     H_    0.047913 0.568028 0.612131 0.190809
H118  H     H_    0.013046 0.645750 0.691498 0.267581
H119  H     H_    0.921814 0.637731 0.548199 0.284680
H120  H     H_    0.007190 0.693024 0.595392 0.259898
N1    N     N_R   0.395410 0.396350 0.944340 -0.051049
N2    N     N_R   0.474920 0.471030 0.794350 -0.098871
N3    N     N_R   0.025080 0.971030 0.205650 -0.079122
N4    N     N_R   0.974920 0.971030 0.794350 -0.112279
N5    N     N_R   0.320260 0.527820 0.794570 -0.090511
N6    N     N_R   0.679740 0.527820 0.205430 -0.098945
N7    N     N_R   0.820260 0.027820 0.794570 -0.087295
N8    N     N_R   0.179740 0.027820 0.205430 -0.101534
N9    N     N_R   0.524590 0.527840 0.205200 -0.067276
N10   N     N_R   0.475410 0.527840 0.794800 -0.065681
N11   N     N_R   0.024590 0.027840 0.205200 -0.069144
N12   N     N_R   0.604590 0.396350 0.055660 -0.037660
N13   N     N_R   0.975410 0.027840 0.794800 -0.063631
N14   N     N_R   0.320750 0.471000 0.795020 -0.069356
N15   N     N_R   0.679250 0.471000 0.204980 -0.073919
N16   N     N_R   0.820750 0.971000 0.795020 -0.080509
N17   N     N_R   0.179250 0.971000 0.204980 -0.072539
N18   N     N_R   0.393620 0.602490 0.942710 -0.041781
N19   N     N_R   0.606380 0.602490 0.057290 -0.050221
N20   N     N_R   0.893620 0.102490 0.942710 -0.045988
N21   N     N_R   0.106380 0.102490 0.057290 -0.045793
N22   N     N_R   0.451720 0.396350 0.057510 -0.043225
N23   N     N_R   0.895410 0.896350 0.944340 -0.046682
N24   N     N_R   0.548280 0.396350 0.942490 -0.050456
N25   N     N_R   0.951720 0.896350 0.057510 -0.036968
N26   N     N_R   0.048280 0.896350 0.942490 -0.052002
N27   N     N_R   0.104590 0.896350 0.055660 -0.036950
N28   N     N_R   0.449930 0.602500 0.055880 -0.038734
N29   N     N_R   0.550070 0.602500 0.944120 -0.042129
N30   N     N_R   0.949930 0.102500 0.055880 -0.039832
N31   N     N_R   0.050070 0.102500 0.944120 -0.038849
N32   N     N_R   0.525080 0.471030 0.205650 -0.074336
Ni1   Ni    Ni4+2 0.435420 0.434270 0.870230 0.202794
Ni2   Ni    Ni4+2 0.564580 0.434270 0.129770 0.240397
Ni3   Ni    Ni4+2 0.935420 0.934270 0.870230 0.194209
Ni4   Ni    Ni4+2 0.064580 0.934270 0.129770 0.238776
Ni5   Ni    Ni4+2 0.563430 0.564580 0.128740 0.219211
Ni6   Ni    Ni4+2 0.436570 0.564580 0.871260 0.228999
Ni7   Ni    Ni4+2 0.063430 0.064580 0.128740 0.231648
Ni8   Ni    Ni4+2 0.936570 0.064580 0.871260 0.224134
O1    O     O_3   0.600889 0.401946 0.340669 -0.702164
O2    O     O_3   0.461195 0.399899 0.675488 -0.670362
O3    O     O_3   0.075940 0.899634 0.336329 -0.696727
O4    O     O_3   0.946216 0.902278 0.660566 -0.669695
O5    O     O_3   0.225178 0.597467 0.661330 -0.677369
O6    O     O_3   0.798295 0.599565 0.297216 -0.682880
O7    O     O_3   0.702187 0.099169 0.700499 -0.680747
O8    O     O_3   0.273687 0.097730 0.340409 -0.680548

loop_
_geom_bond_atom_site_label_1
_geom_bond_atom_site_label_2
_ccdc_geom_bond_type
C9    H86   S    
C11   O2    S    
C55   C59   A    
C15   H100  S    
C46   H99   S    
C19   C20   S    
N4    N13   A    
N23   Ni3   S    
C21   H115  S    
C125  N21   A    
C78   H35   S    
C102  H54   S    
C47   C76   A    
C87   C91   A    
C1    H1    S    
C8    O1    S    
C58   C60   A    
N8    N17   A    
C127  H75   S    
N15   Ni2   S    
C25   O6    S    
C10   H87   S    
C103  Cl4   S    
C28   O7    S    
C117  N14   A    
C101  Cl2   S    
C3    H78   S    
C21   C22   S    
C52   N23   A    
N24   Ni1   S    
N20   N30   A    
N25   Ni4   S    
N26   Ni3   S    
N5    N14   A    
C105  O2    S    
C11   H91   S    
C29   H14   S    
C31   H18   S    
C30   H17   S    
C104  O1    S    
C29   H12   S    
N3    Ni4   S    
N4    Ni3   S    
C86   H42   S    
C23   H120  S    
N9    N32   A    
C36   C111  A    
C69   C74   A    
C13   C115  A    
C37   C121  A    
N6    Ni5   S    
N3    N11   A    
C60   C65   A    
C15   H98   S    
C49   C73   A    
C37   C45   S    
C84   H41   S    
C70   H58   S    
C68   C77   A    
C56   H110  S    
C82   H39   S    
C114  H62   S    
C71   N30   A    
N11   Ni7   S    
C13   C106  A    
C8    H84   S    
C95   C97   A    
N31   Ni8   S    
N28   Ni5   S    
C123  H71   S    
C13   C94   S    
N12   Ni2   S    
C114  N10   A    
C121  H69   S    
C38   C43   D    
C4    C66   S    
C2    C114  A    
N14   Ni1   S    
C16   H101  S    
C110  O6    S    
C125  H73   S    
C27   H9    S    
C85   C123  A    
C25   H3    S    
C19   H109  S    
C98   C99   A    
C22   C23   S    
C53   C85   S    
N21   Ni7   S    
C6    C52   A    
C75   C79   S    
N19   Ni5   S    
C20   H111  S    
C22   H116  S    
C26   H5    S    
C106  O3    S    
C30   H15   S    
N12   N24   A    
C21   O5    S    
C64   C68   A    
C49   C84   S    
C110  N6    A    
C23   H118  S    
N1    N22   A    
C38   C39   S    
C44   H77   S    
C92   C118  S    
C90   C102  S    
N7    N16   A    
C87   C101  S    
C36   C46   S    
N22   Ni2   S    
C35   C43   S    
C9    C10   S    
C99   H51   S    
C40   C42   S    
C126  N22   A    
C89   C103  S    
C101  H53   S    
C81   C83   S    
C92   C97   A    
C48   C53   A    
C59   C61   A    
C107  C125  A    
C80   C82   S    
C10   H90   S    
C25   C26   S    
C27   H7    S    
C48   C77   A    
C36   C120  A    
C14   H96   S    
C29   C30   S    
C31   H19   S    
C12   H94   S    
C31   C32   S    
C32   H20   S    
C7    C63   A    
C20   H113  S    
C24   C116  A    
C63   H55   S    
C62   H28   S    
C121  N17   A    
C17   H104  S    
C9    H85   S    
C18   O4    S    
C124  N20   A    
C41   N12   A    
C76   C80   S    
C109  O5    S    
C64   H29   S    
C59   H24   S    
C33   H23   S    
C21   H114  S    
C128  H76   S    
C48   C83   S    
C4    C126  A    
N32   Ni2   S    
C6    C128  A    
C24   C93   S    
C112  N8    A    
C63   N27   A    
N7    Ni8   S    
C86   H47   S    
C39   H80   S    
C89   C93   A    
C102  C103  S    
C31   O8    S    
C7    C67   S    
C116  H64   S    
C95   H48   S    
C82   H43   S    
N2    N10   A    
C45   H88   S    
N26   N27   A    
C71   H59   S    
C70   C85   A    
C72   H60   S    
C18   H106  S    
C87   C88   A    
C120  N16   A    
N17   Ni4   S    
C51   C74   S    
C58   H13   S    
C26   C27   S    
C112  O8    S    
C119  H67   S    
C80   H37   S    
C28   C29   S    
C3    C7    A    
N19   N29   A    
C123  N19   A    
C18   C19   S    
C42   C46   D    
N18   N28   A    
C80   H32   S    
C23   H119  S    
C1    N1    A    
C16   C17   S    
N9    Ni5   S    
C81   H34   S    
C24   C108  A    
C52   H44   S    
N29   Ni6   S    
C108  N4    A    
C105  N2    A    
C111  N7    A    
C33   H25   S    
C90   C94   A    
C104  C118  A    
C40   C45   D    
C83   H45   S    
C102  Cl3   S    
C53   C57   A    
C100  Cl1   S    
C47   C51   A    
C71   C96   A    
C69   N28   A    
C98   H50   S    
C16   H102  S    
C83   H40   S    
C5    C127  A    
C72   N31   A    
C81   H38   S    
C88   C100  S    
C35   C110  A    
C74   C122  A    
C111  O7    S    
N16   Ni3   S    
C57   H2    S    
C39   C44   D    
N2    Ni1   S    
C20   H112  S    
C115  H63   S    
C113  H61   S    
C103  H56   S    
C27   H8    S    
C26   H6    S    
C11   H92   S    
N18   Ni6   S    
C30   H16   S    
C70   N29   A    
C32   C33   S    
C122  H70   S    
C50   C75   A    
C104  N32   A    
C126  H74   S    
C66   C75   A    
C120  H68   S    
C43   H66   S    
C100  H52   S    
C122  N18   A    
C32   H21   S    
N30   Ni7   S    
C89   C90   A    
C79   C86   S    
C49   C54   A    
C35   C119  A    
C127  N24   A    
C8    H83   S    
C108  O4    S    
C15   O3    S    
C62   C67   A    
C124  H72   S    
N23   N25   A    
C60   H26   S    
C61   H27   S    
N1    Ni1   S    
C15   C16   S    
C65   C73   A    
C51   C56   A    
C47   C82   S    
C25   H4    S    
C100  C101  S    
C14   H97   S    
C10   H89   S    
C61   C66   A    
C88   C92   A    
C8    C9    S    
C37   C112  A    
C41   H33   S    
C40   H81   S    
N13   Ni8   S    
C73   C78   S    
C77   C81   S    
C79   H36   S    
C54   C96   S    
C34   C117  A    
C6    C68   S    
N8    Ni7   S    
C2    C91   S    
N6    N15   A    
N5    Ni6   S    
C17   H103  S    
C96   C124  A    
N21   N31   A    
C34   C44   S    
C22   H117  S    
C5    C65   S    
C116  N13   A    
C69   H57   S    
C28   H11   S    
C33   H22   S    
C3    N26   A    
C91   C95   A    
N10   Ni6   S    
C55   C107  S    
C42   H82   S    
C72   C107  A    
C119  N15   A    
C113  N9    A    
C84   H46   S    
C115  N11   A    
C12   C14   S    
C78   H30   S    
C38   H79   S    
C28   H10   S    
C128  N25   A    
C117  H65   S    
C18   H107  S    
C57   C64   A    
C54   C58   A    
C5    C41   A    
C106  N3    A    
C79   H31   S    
C11   C12   S    
C97   H49   S    
C2    C105  A    
C50   C55   A    
C1    C4    A    
N27   Ni4   S    
C14   H95   S    
C19   H108  S    
N20   Ni8   S    
C12   H93   S    
C94   C99   A    
C56   C62   A    
C109  N5    A    
C50   C86   S    
C113  C118  A    
C78   C84   S    
C34   C109  A    
C67   C76   A    
C93   C98   A    
C17   H105  S    
