data_mof_unit_24739.cif
_audit_creation_date              2012-12-10T20:03:08-0500
_audit_creation_method            fapswitch 2.2
_symmetry_space_group_name_H-M    P1
_symmetry_Int_Tables_number       1
_space_group_crystal_system       triclinic
_cell_length_a                    8.578033
_cell_length_b                    19.320303
_cell_length_c                    18.475789
_cell_angle_alpha                 89.969242
_cell_angle_beta                  98.864663
_cell_angle_gamma                 90.233485
_cell_volume                      3025.39575891

loop_
_atom_site_label
_atom_site_type_symbol
_atom_type_description
_atom_site_fract_x
_atom_site_fract_y
_atom_site_fract_z
_atom_type_partial_charge
C1    C     C_R   0.501015 0.365666 0.500092 0.852397
C2    C     C_R   0.501220 0.634337 0.500050 0.855092
C3    C     C_R   0.619021 0.964465 0.557187 -0.185762
C4    C     C_R   0.433001 0.035872 0.443680 -0.185999
C5    C     C_R   0.618780 0.036208 0.557237 -0.185823
C6    C     C_R   0.432832 0.964237 0.443738 -0.184857
C7    C     C_R   0.525535 0.071952 0.500527 0.106592
C8    C     C_R   0.525623 0.928345 0.500532 0.108628
C9    C     C_R   0.598874 0.543613 0.733204 0.629950
C10   C     C_R   0.391284 0.460744 0.266736 0.641559
C11   C     C_R   0.595938 0.545004 0.809428 -0.388060
C12   C     C_R   0.388042 0.461363 0.189940 -0.387301
C13   C     C_R   0.496836 0.499815 0.841038 0.072604
C14   C     C_R   0.499468 0.500194 0.158455 0.067476
C15   C     C_R   0.398438 0.455040 0.794324 -0.286708
C16   C     C_R   0.611281 0.538859 0.205903 -0.279008
C17   C     C_R   0.402021 0.455906 0.718635 -0.103327
C18   C     C_R   0.609219 0.538168 0.281691 -0.087163
C19   C     C_R   0.355251 0.494642 0.951432 -0.193109
C20   C     C_R   0.640056 0.505205 0.047362 -0.190245
C21   C     C_R   0.355859 0.495353 0.027515 -0.188118
C22   C     C_R   0.639217 0.505151 0.971308 -0.191464
C23   C     C_R   0.200832 0.499689 0.480817 0.979134
C24   C     C_R   0.799140 0.499465 0.519154 0.967416
C25   C     C_R   0.498383 0.500425 0.076879 0.153956
C26   C     C_R   0.496892 0.499720 0.922206 0.153443
C27   C     C_2   0.035650 0.499587 0.470418 -0.373188
C28   C     C_2   0.964247 0.497965 0.529412 -0.409330
C29   C     C_R   0.525701 0.745131 0.436126 -0.194886
C30   C     C_R   0.490093 0.253839 0.564139 -0.193307
C31   C     C_R   0.533557 0.816705 0.436490 -0.179865
C32   C     C_R   0.497810 0.182211 0.564427 -0.178764
C33   C     C_R   0.522736 0.853124 0.500977 0.118994
C34   C     C_R   0.522475 0.147040 0.500998 0.119470
C35   C     C_R   0.505434 0.817600 0.565352 -0.185604
C36   C     C_R   0.540741 0.183617 0.437463 -0.178908
C37   C     C_R   0.498027 0.745940 0.565117 -0.182010
C38   C     C_R   0.533716 0.255180 0.437196 -0.210097
C39   C     C_R   0.507503 0.709434 0.500386 -0.034413
C40   C     C_R   0.507404 0.290594 0.500400 -0.027295
H1    H     H_    0.973334 0.501457 0.414503 0.182776
H2    H     H_    0.026556 0.495616 0.585241 0.177801
H3    H     H_    0.320436 0.419104 0.816182 0.146909
H4    H     H_    0.698066 0.570638 0.184675 0.147748
H5    H     H_    0.325714 0.421417 0.682988 0.147674
H6    H     H_    0.694648 0.568632 0.317586 0.148293
H7    H     H_    0.243304 0.491441 0.915345 0.127224
H8    H     H_    0.752529 0.507822 0.083031 0.129341
H9    H     H_    0.243808 0.493015 0.047486 0.129051
H10   H     H_    0.750771 0.508186 0.950861 0.126586
H11   H     H_    0.534655 0.717880 0.385718 0.156813
H12   H     H_    0.469743 0.280284 0.613498 0.151900
H13   H     H_    0.548793 0.843655 0.386603 0.130814
H14   H     H_    0.482002 0.154191 0.613604 0.130542
H15   H     H_    0.495110 0.845318 0.615336 0.132608
H16   H     H_    0.561505 0.156776 0.388381 0.131229
H17   H     H_    0.483972 0.719287 0.615325 0.173943
H18   H     H_    0.549997 0.282640 0.387775 0.145458
H19   H     H_    0.692513 0.937184 0.600926 0.132766
H20   H     H_    0.358910 0.063149 0.400120 0.132614
H21   H     H_    0.691814 0.063827 0.601043 0.132996
H22   H     H_    0.358322 0.936851 0.400243 0.133059
H23   H     H_    0.667681 0.582274 0.843519 0.144974
H24   H     H_    0.299672 0.431263 0.155393 0.142526
N1    N     N_R   0.500020 0.499980 0.689440 -0.120775
N2    N     N_R   0.499980 0.500020 0.310560 -0.125130
O1    O     O_R   0.500010 0.398180 0.560840 -0.635018
O2    O     O_R   0.499990 0.601820 0.439160 -0.635088
O3    O     O_R   0.499930 0.398180 0.439210 -0.611941
O4    O     O_R   0.500070 0.601820 0.560790 -0.580592
O5    O     O_R   0.271780 0.500000 0.546590 -0.628815
O6    O     O_R   0.728220 0.500000 0.453410 -0.624825
O7    O     O_R   0.271710 0.499990 0.424960 -0.573241
O8    O     O_R   0.728290 0.500010 0.575040 -0.609889
Zn1   Zn    Zn3+2 0.500050 0.500000 0.581210 0.964735
Zn2   Zn    Zn3+2 0.499950 0.500000 0.418790 0.973018
O9    O     O_3   0.689768 0.590452 0.701071 -0.627981
C41   C     C_3   0.851686 0.578081 0.725478 0.061684
H25   H     H_    0.882116 0.523376 0.714640 0.140269
H26   H     H_    0.883298 0.589075 0.785041 0.120307
C42   C     C_3   0.949607 0.626214 0.684307 -0.313810
H27   H     H_    0.917204 0.617898 0.624381 0.229828
H28   H     H_    0.923124 0.680900 0.696404 0.220909
C43   C     C_3   0.126166 0.613578 0.706384 -0.943273
H29   H     H_    0.162211 0.623712 0.765796 0.262500
H30   H     H_    0.193694 0.648717 0.674972 0.268043
H31   H     H_    0.155536 0.559345 0.694319 0.268491
O10   O     O_3   0.276393 0.426579 0.298366 -0.626939
C44   C     C_3   0.266158 0.355476 0.279531 0.059936
H32   H     H_    0.283929 0.325354 0.331322 0.174373
H33   H     H_    0.357661 0.337291 0.247047 0.108587
C45   C     C_3   0.100915 0.339224 0.238880 -0.343335
H34   H     H_    0.011681 0.354302 0.273624 0.233025
H35   H     H_    0.078478 0.369585 0.187294 0.211877
C46   C     C_3   0.082026 0.262332 0.220675 -0.968971
H36   H     H_    0.167960 0.246403 0.184661 0.263650
H37   H     H_    0.960883 0.252192 0.191622 0.265550
H38   H     H_    0.101077 0.230953 0.271661 0.265094

loop_
_geom_bond_atom_site_label_1
_geom_bond_atom_site_label_2
_ccdc_geom_bond_type
C30   C32   A    
C46   H36   S    
C43   H31   S    
O6    Zn2   S    
C21   H9    S    
C42   H27   S    
C46   H38   S    
O9    C41   S    
C10   O10   S    
C35   C37   A    
C43   H30   S    
C2    O2    A    
C12   H24   S    
C41   H26   S    
C20   C25   A    
O3    Zn2   S    
C19   C26   A    
C21   C25   A    
C1    C40   S    
C33   C35   A    
C38   H18   S    
C2    C39   S    
C31   C33   A    
C23   C27   S    
C44   H33   S    
C16   H4    S    
C22   H10   S    
C38   C40   A    
C29   C39   A    
C23   O7    A    
C4    C7    A    
C18   H6    S    
C32   H14   S    
C42   H28   S    
C10   N2    A    
O8    Zn1   S    
C35   H15   S    
C23   O5    A    
C43   H29   S    
C4    C6    A    
C3    C8    A    
C5    C7    A    
C41   H25   S    
C6    C8    A    
C45   C46   S    
C1    O3    A    
C17   H5    S    
C32   C34   A    
C36   H16   S    
C27   H1    S    
C29   C31   A    
N2    Zn2   S    
C4    H20   S    
C45   H35   S    
C30   C40   A    
C9    O9    S    
C31   H13   S    
C44   C45   S    
C9    C11   A    
C20   H8    S    
C10   C12   A    
C12   C14   A    
C13   C15   A    
O7    Zn2   S    
C14   C16   A    
C13   C26   S    
C18   N2    A    
O4    Zn1   S    
C42   C43   S    
C7    C34   S    
C24   O6    A    
C29   H11   S    
C15   C17   A    
C30   H12   S    
C19   C21   A    
C24   C28   S    
C20   C22   A    
C3    C5    A    
C46   H37   S    
O2    Zn2   S    
C17   N1    A    
N1    Zn1   S    
C6    H22   S    
C36   C38   A    
C15   H3    S    
C37   C39   A    
O5    Zn1   S    
C11   C13   A    
C41   C42   S    
C24   O8    A    
C28   H2    S    
C45   H34   S    
C1    O1    A    
C34   C36   A    
C8    C33   S    
C14   C25   S    
C9    N1    A    
O1    Zn1   S    
O10   C44   S    
C16   C18   A    
C22   C26   A    
C19   H7    S    
C27   C28   D    
C44   H32   S    
C2    O4    A    
C11   H23   S    
C37   H17   S    
C5    H21   S    
C3    H19   S    
