data_mof_unit_42928.cif
_audit_creation_date              2012-12-10T16:54:31-0500
_audit_creation_method            fapswitch 2.2
_symmetry_space_group_name_H-M    P1
_symmetry_Int_Tables_number       1
_space_group_crystal_system       triclinic
_cell_length_a                    15.088227
_cell_length_b                    10.927827
_cell_length_c                    9.701346
_cell_angle_alpha                 89.510845
_cell_angle_beta                  89.628476
_cell_angle_gamma                 90.615029
_cell_volume                      1599.38778134

loop_
_atom_site_label
_atom_site_type_symbol
_atom_type_description
_atom_site_fract_x
_atom_site_fract_y
_atom_site_fract_z
_atom_type_partial_charge
C1    C     C_R   0.503195 0.265845 0.500274 0.728293
C2    C     C_R   0.907776 0.538205 0.619599 0.027077
C3    C     C_R   0.955261 0.451266 0.252526 0.170965
C4    C     C_R   0.048087 0.450298 0.255814 -0.259611
C5    C     C_R   0.093769 0.476039 0.377132 0.073267
C6    C     C_R   0.046935 0.504402 0.498457 0.089598
C7    C     C_R   0.093380 0.530648 0.620894 0.125141
C8    C     C_R   0.047083 0.559557 0.741245 -0.249427
C9    C     C_R   0.955105 0.563794 0.740559 -0.190110
C10   C     C_R   0.186121 0.474242 0.378658 -0.241079
C11   C     C_R   0.232124 0.500293 0.500198 -0.069270
C12   C     C_R   0.328767 0.499735 0.500261 0.810749
C13   C     C_R   0.185631 0.528344 0.620909 -0.250020
C14   C     C_2   0.468145 0.939300 0.390568 0.160896
C15   C     C_2   0.480589 0.866161 0.501713 -0.312976
C16   C     C_2   0.458723 0.071065 0.415727 -0.243246
C17   C     C_2   0.513818 0.133730 0.498130 0.343360
C18   C     C_2   0.441045 0.439568 0.922518 0.596112
C19   C     C_2   0.453631 0.423876 0.077629 -0.045380
C20   C     C_R   0.495079 0.734633 0.499369 0.791709
C21   C     C_R   0.671376 0.503021 0.499776 0.812343
C22   C     C_R   0.815104 0.543835 0.618925 0.441441
C23   C     C_R   0.768486 0.509039 0.499626 -0.184037
C24   C     C_R   0.814619 0.479945 0.378759 -0.344286
C25   C     C_R   0.907428 0.479407 0.374891 0.081411
C26   C     C_R   0.953917 0.507063 0.497515 -0.045218
Cu1   Cu    Cu3+1 0.500020 0.500020 0.638630 1.006963
Cu2   Cu    Cu3+1 0.499980 0.499980 0.361370 0.954980
H1    H     H_    0.476549 0.905112 0.604296 0.188712
H2    H     H_    0.408804 0.120038 0.357484 0.123365
H3    H     H_    0.558914 0.520265 0.890175 0.205972
H4    H     H_    0.423082 0.345202 0.128288 0.096762
H5    H     H_    0.776951 0.456199 0.288415 0.188017
H6    H     H_    0.085107 0.428608 0.163103 0.135774
H7    H     H_    0.222131 0.452148 0.285145 0.149614
H8    H     H_    0.221186 0.550222 0.714419 0.165751
H9    H     H_    0.082040 0.579463 0.835858 0.138030
H10   H     H_    0.921236 0.587079 0.835368 0.176667
N1    N     N_2   0.499020 0.498660 0.846910 -0.294226
N2    N     N_2   0.499000 0.498630 0.153040 0.003270
O1    O     O_R   0.500020 0.321960 0.617040 -0.544842
O2    O     O_R   0.499980 0.321920 0.382900 -0.615080
O3    O     O_R   0.370270 0.499990 0.617090 -0.528504
O4    O     O_R   0.370240 0.499950 0.382940 -0.591080
O5    O     O_R   0.500020 0.678080 0.617100 -0.571333
O6    O     O_R   0.499980 0.678040 0.382960 -0.569623
O7    O     O_R   0.629760 0.500050 0.617060 -0.540823
O8    O     O_R   0.629730 0.500010 0.382910 -0.607751
O9    O     O_3   0.770227 0.579577 0.736670 -0.584123
C27   C     C_3   0.756567 0.707001 0.728469 -0.315733
H11   H     H_    0.714788 0.731727 0.638477 0.167109
H12   H     H_    0.820580 0.758517 0.723861 0.150168
H13   H     H_    0.720901 0.736045 0.822723 0.181311
O10   O     O_3   0.579957 0.073789 0.571934 -0.588852
C28   C     C_3   0.657566 0.146228 0.583636 -0.306717
H14   H     H_    0.648989 0.217859 0.663000 0.184756
H15   H     H_    0.677980 0.187712 0.482888 0.142131
H16   H     H_    0.712320 0.086582 0.618085 0.180491
O11   O     O_3   0.372428 0.379074 0.855302 -0.540913
C29   C     C_3   0.293266 0.379640 0.933659 -0.383681
H17   H     H_    0.280082 0.470939 0.979324 0.150836
H18   H     H_    0.294023 0.307214 0.014591 0.156099
H19   H     H_    0.237184 0.357860 0.864371 0.199604
O12   O     O_3   0.517126 0.608735 0.094949 -0.516451
C30   C     C_3   0.608227 0.633095 0.113815 -0.169129
H20   H     H_    0.621205 0.672860 0.216177 0.184192
H21   H     H_    0.649752 0.550537 0.098117 0.137282
H22   H     H_    0.629700 0.702460 0.036159 0.124173
C31   C     C_3   0.910612 0.422891 0.116625 -0.406402
C32   C     C_3   0.876969 0.290660 0.113143 -0.819494
H23   H     H_    0.933367 0.226830 0.123837 0.251265
H24   H     H_    0.828524 0.271862 0.197397 0.246712
H25   H     H_    0.844040 0.273348 0.013040 0.244600
H26   H     H_    0.855903 0.487580 0.096126 0.196459
H27   H     H_    0.958193 0.435922 0.029593 0.199751
C33   C     C_3   0.463252 0.891154 0.243630 -0.303991
C34   C     C_3   0.444981 0.987617 0.132300 -0.865800
H28   H     H_    0.377923 0.026651 0.146454 0.243966
H29   H     H_    0.495863 0.061810 0.134543 0.256922
H30   H     H_    0.447510 0.944136 0.029314 0.260181
H31   H     H_    0.527823 0.849594 0.217502 0.225325
H32   H     H_    0.410045 0.820302 0.237662 0.229633

loop_
_geom_bond_atom_site_label_1
_geom_bond_atom_site_label_2
_ccdc_geom_bond_type
C28   H14   S    
C7    C8    A    
C34   H28   S    
Cu2   O6    S    
C29   H19   S    
C3    C31   S    
C12   O3    A    
C5    C6    A    
Cu2   N2    S    
C16   H2    S    
C1    O2    A    
C29   H18   S    
C18   C19   S    
Cu1   N1    S    
C8    C9    A    
C30   H21   S    
C2    C22   A    
C27   H12   S    
C23   C24   A    
C32   H23   S    
C20   O5    A    
C21   O8    A    
Cu1   O5    S    
O11   C29   S    
C19   H4    S    
C15   H1    S    
C34   H29   S    
C15   C20   S    
C4    H6    S    
C27   H13   S    
C3    C25   A    
C24   C25   A    
C13   H8    S    
C19   N2    D    
C33   H32   S    
C16   C17   D    
C25   C26   A    
Cu2   O4    S    
C29   H17   S    
C14   C33   S    
C18   N1    D    
Cu1   O1    S    
C30   H22   S    
C32   H25   S    
C27   H11   S    
C31   H26   S    
C2    C26   A    
C33   C34   S    
C10   H7    S    
C22   O9    S    
C1    O1    A    
O9    C27   S    
C28   H15   S    
C14   C16   S    
C8    H9    S    
C3    C4    A    
C34   H30   S    
Cu1   O7    S    
O10   C28   S    
Cu2   O8    S    
C14   C15   D    
C4    C5    A    
C33   H31   S    
C11   C12   S    
C6    C7    A    
C1    C17   S    
C24   H5    S    
N2    O12   S    
O12   C30   S    
C21   C23   S    
C5    C10   A    
C12   O4    A    
C11   C13   A    
C6    C26   A    
Cu2   O2    S    
C9    H10   S    
H3    N1    S    
C31   H27   S    
C31   C32   S    
C10   C11   A    
Cu1   O3    S    
C18   O11   S    
C7    C13   A    
C30   H20   S    
C28   H16   S    
Cu1   Cu2   S    
C22   C23   A    
C32   H24   S    
C2    C9    A    
C17   O10   S    
C20   O6    A    
C21   O7    A    
