data_mof_unit_31880.cif
_audit_creation_date              2012-12-10T18:51:33-0500
_audit_creation_method            fapswitch 2.2
_symmetry_space_group_name_H-M    P1
_symmetry_Int_Tables_number       1
_space_group_crystal_system       triclinic
_cell_length_a                    10.69171
_cell_length_b                    9.850481
_cell_length_c                    10.512568
_cell_angle_alpha                 90.27985
_cell_angle_beta                  89.768972
_cell_angle_gamma                 89.929375
_cell_volume                      1107.14467284

loop_
_atom_site_label
_atom_site_type_symbol
_atom_type_description
_atom_site_fract_x
_atom_site_fract_y
_atom_site_fract_z
_atom_type_partial_charge
C1    C     C_R   0.872510 0.500048 0.500789 -0.001054
C2    C     C_R   0.127490 0.499951 0.499212 -0.001066
C3    C     C_R   0.259924 0.500028 0.499635 0.867719
C4    C     C_R   0.740076 0.499971 0.500366 0.867728
C5    C     C_R   0.500546 0.499578 0.257390 0.877423
C6    C     C_R   0.499455 0.500423 0.742609 0.877401
C7    C     C_3   0.426068 0.600726 0.044184 -0.220072
C8    C     C_3   0.573935 0.399281 0.955816 -0.220076
C9    C     C_3   0.543190 0.621281 0.959210 -0.211703
C10   C     C_3   0.456813 0.378725 0.040789 -0.211697
C11   C     C_3   0.383167 0.481358 0.960061 0.050486
C12   C     C_3   0.616835 0.518649 0.039939 0.050489
C13   C     C_3   0.498934 0.501509 0.877325 -0.018030
C14   C     C_3   0.501068 0.498496 0.122674 -0.018039
C15   C     C_R   0.577382 0.072226 0.579018 -0.077017
C16   C     C_R   0.422617 0.927774 0.420982 -0.077024
C17   C     C_R   0.422631 0.071616 0.420971 -0.081560
C18   C     C_R   0.577369 0.928384 0.579029 -0.081562
C19   C     C_R   0.064051 0.377614 0.517243 -0.190154
C20   C     C_R   0.935949 0.622386 0.482764 -0.190189
C21   C     C_R   0.936129 0.377688 0.518173 -0.229226
C22   C     C_R   0.063871 0.622311 0.481831 -0.229298
H1    H     H_    0.639282 0.126927 0.642209 0.116866
H2    H     H_    0.360718 0.873073 0.357790 0.116868
H3    H     H_    0.360766 0.125830 0.357755 0.118106
H4    H     H_    0.639235 0.874170 0.642245 0.118111
H5    H     H_    0.365298 0.681913 0.084405 0.134692
H6    H     H_    0.634704 0.318095 0.915592 0.134678
H7    H     H_    0.576425 0.719805 0.921106 0.136217
H8    H     H_    0.423586 0.280198 0.078891 0.136213
H9    H     H_    0.112759 0.282451 0.531732 0.157269
H10   H     H_    0.887242 0.717551 0.468287 0.157274
H11   H     H_    0.887545 0.282564 0.532969 0.152996
H12   H     H_    0.112455 0.717438 0.467045 0.153008
N1    N     N_R   0.500000 0.857200 0.500000 -0.076400
N2    N     N_R   0.500000 0.142800 0.500000 -0.076399
O1    O     O_R   0.316770 0.614620 0.499990 -0.631371
O2    O     O_R   0.683230 0.385380 0.500010 -0.631361
O3    O     O_R   0.683230 0.614620 0.500010 -0.627645
O4    O     O_R   0.316770 0.385380 0.499990 -0.627643
O5    O     O_R   0.499970 0.614650 0.313950 -0.619796
O6    O     O_R   0.500030 0.385350 0.686050 -0.619789
O7    O     O_R   0.500030 0.614650 0.686050 -0.630132
O8    O     O_R   0.499970 0.385350 0.313950 -0.630118
Zn1   Zn    Zn3+2 0.500000 0.653120 0.500000 0.936933
Zn2   Zn    Zn3+2 0.500000 0.346880 0.500000 0.936947
C23   C     C_R   0.251056 0.468120 0.912514 0.102531
C24   C     C_R   0.182168 0.348671 0.932260 -0.154371
C25   C     C_R   0.057677 0.340397 0.892503 -0.138458
C26   C     C_R   0.000886 0.451401 0.833911 -0.055607
C27   C     C_R   0.069049 0.570228 0.813281 -0.117879
C28   C     C_R   0.193911 0.578408 0.851585 -0.183892
H13   H     H_    0.223891 0.262246 0.978950 0.113306
H14   H     H_    0.004722 0.248449 0.908529 0.116662
H15   H     H_    0.904060 0.445437 0.804702 0.116110
H16   H     H_    0.024954 0.656207 0.768001 0.131664
H17   H     H_    0.245510 0.671343 0.835525 0.135446
C29   C     C_R   0.748943 0.531877 0.087495 0.102522
C30   C     C_R   0.806119 0.421541 0.148320 -0.183891
C31   C     C_R   0.930978 0.429717 0.186631 -0.117864
C32   C     C_R   0.999108 0.548592 0.166114 -0.055550
C33   C     C_R   0.942284 0.659643 0.107634 -0.138486
C34   C     C_R   0.817795 0.651372 0.067872 -0.154346
H18   H     H_    0.754552 0.328564 0.164277 0.135406
H19   H     H_    0.975099 0.343693 0.231810 0.131602
H20   H     H_    0.095936 0.554553 0.195315 0.116107
H21   H     H_    0.995210 0.751633 0.091715 0.116656
H22   H     H_    0.776046 0.737845 0.021284 0.113326

loop_
_geom_bond_atom_site_label_1
_geom_bond_atom_site_label_2
_ccdc_geom_bond_type
C26   H15   S    
C2    C22   A    
C15   C18   A    
O4    Zn2   S    
C5    O5    A    
C1    C21   A    
C8    C13   S    
C27   C28   A    
C17   N2    A    
C8    C12   S    
C12   C14   S    
C11   C13   S    
C18   N1    A    
C10   H8    S    
C11   C23   S    
C23   C24   A    
C18   H4    S    
C4    O3    A    
C9    H7    S    
O3    Zn1   S    
C1    C4    S    
C12   C29   S    
C32   C33   A    
C15   H1    S    
C2    C3    S    
C30   H18   S    
C19   H9    S    
C30   C31   A    
C16   H2    S    
C6    C13   S    
C7    C11   S    
N2    Zn2   S    
O7    Zn1   S    
C5    C14   S    
C33   C34   A    
C33   H21   S    
C22   H12   S    
C24   C25   A    
C19   C21   A    
C5    O8    A    
O8    Zn2   S    
C31   H19   S    
C26   C27   A    
C6    O7    A    
C16   N1    A    
C20   H10   S    
C24   H13   S    
C8    H6    S    
C9    C12   S    
C29   C30   A    
O2    Zn2   S    
C21   H11   S    
C10   C11   S    
O1    Zn1   S    
C28   H17   S    
N1    Zn1   S    
C15   N2    A    
C7    H5    S    
C3    O1    A    
C8    C10   S    
C25   C26   A    
O6    Zn2   S    
C23   C28   A    
C29   C34   A    
C7    C9    S    
O5    Zn1   S    
C34   H22   S    
C16   C17   A    
C1    C20   A    
C9    C13   S    
C17   H3    S    
C3    O4    A    
C4    O2    A    
C6    O6    A    
C32   H20   S    
C7    C14   S    
C25   H14   S    
C2    C19   A    
C20   C22   A    
C31   C32   A    
C10   C14   S    
C27   H16   S    
