data_mof_unit_58797.cif
_audit_creation_date              2012-12-10T18:43:48-0500
_audit_creation_method            fapswitch 2.2
_symmetry_space_group_name_H-M    P1
_symmetry_Int_Tables_number       1
_space_group_crystal_system       triclinic
_cell_length_a                    10.759034
_cell_length_b                    10.641108
_cell_length_c                    9.916468
_cell_angle_alpha                 90.029207
_cell_angle_beta                  104.123597
_cell_angle_gamma                 91.229048
_cell_volume                      1100.72558345

loop_
_atom_site_label
_atom_site_type_symbol
_atom_type_description
_atom_site_fract_x
_atom_site_fract_y
_atom_site_fract_z
_atom_type_partial_charge
C1    C     C_R   0.502003 0.260447 0.500548 0.955884
C2    C     C_2   0.879534 0.518859 0.593383 0.249562
C3    C     C_2   0.070155 0.558626 0.510356 -0.173340
C4    C     C_2   0.933787 0.558429 0.492847 -0.183722
C5    C     C_R   0.413770 0.064566 0.396158 -0.196375
C6    C     C_R   0.586226 0.935408 0.603853 -0.203715
C7    C     C_R   0.409839 0.935451 0.394567 0.408267
C8    C     C_R   0.590118 0.064519 0.605489 0.408635
C9    C     C_R   0.496959 0.871956 0.499007 -0.189223
C10   C     C_R   0.503037 0.128027 0.501009 -0.198986
C11   C     C_R   0.498011 0.739553 0.499459 0.928423
C12   C     C_R   0.258826 0.503871 0.441623 0.860623
C13   C     C_R   0.741450 0.503721 0.558620 0.859103
C14   C     C_R   0.578595 0.580927 0.092271 0.341297
C15   C     C_R   0.419685 0.420606 0.907069 0.336300
C16   C     C_R   0.580014 0.579427 0.949247 0.347740
C17   C     C_R   0.419715 0.420739 0.050588 0.341860
C18   C     C_2   0.121759 0.519863 0.408102 0.259390
Cl1   Cl    Cl    0.676077 0.691519 0.203815 -0.453668
Cl2   Cl    Cl    0.315208 0.316610 0.792765 -0.404834
Cl3   Cl    Cl    0.968698 0.480415 0.762437 -0.375019
Cl4   Cl    Cl    0.030109 0.483156 0.238323 -0.390336
Cl5   Cl    Cl    0.686927 0.680190 0.890238 -0.413499
Cl6   Cl    Cl    0.312944 0.319809 0.109543 -0.395053
Cl7   Cl    Cl    0.291365 0.857373 0.265275 -0.465638
Cl8   Cl    Cl    0.708467 0.142562 0.734942 -0.442686
H1    H     H_    0.876217 0.580978 0.390437 0.245174
H2    H     H_    0.129450 0.581345 0.613240 0.216496
H3    H     H_    0.345695 0.115448 0.317712 0.236310
H4    H     H_    0.654307 0.884521 0.682289 0.233843
N1    N     N_R   0.499970 0.499970 0.857200 -0.200951
N2    N     N_R   0.500030 0.500030 0.142800 -0.196919
O1    O     O_R   0.499990 0.316750 0.614620 -0.542488
O2    O     O_R   0.500010 0.683250 0.385380 -0.544107
O3    O     O_R   0.499990 0.316780 0.385290 -0.588993
O4    O     O_R   0.500010 0.683220 0.614710 -0.598735
O5    O     O_R   0.317810 0.500000 0.571850 -0.616834
O6    O     O_R   0.682190 0.500000 0.428150 -0.616951
O7    O     O_R   0.317810 0.500030 0.342520 -0.528957
O8    O     O_R   0.682190 0.499970 0.657480 -0.527300
Zn1   Zn    Zn3+2 0.500000 0.499980 0.653120 1.108341
Zn2   Zn    Zn3+2 0.500000 0.500020 0.346880 1.111079

loop_
_geom_bond_atom_site_label_1
_geom_bond_atom_site_label_2
_ccdc_geom_bond_type
C2    C4    D    
C5    C7    A    
C15   N1    A    
O7    Zn2   S    
C8    Cl8   S    
O2    Zn2   S    
O1    Zn1   S    
C6    C9    A    
O4    Zn1   S    
C1    O1    A    
C5    C10   A    
C7    Cl7   S    
C16   N1    A    
C9    C11   S    
C13   O6    A    
C2    Cl3   S    
C15   C17   A    
C2    C13   S    
C3    H2    S    
C6    H4    S    
O6    Zn2   S    
C16   Cl5   S    
C5    H3    S    
C11   O2    A    
O5    Zn1   S    
C15   Cl2   S    
C14   C16   A    
C17   Cl6   S    
C3    C4    S    
C4    H1    S    
C1    O3    A    
C3    C18   D    
C8    C10   A    
O3    Zn2   S    
C12   C18   S    
C12   O5    A    
C7    C9    A    
C17   N2    A    
N2    Zn2   S    
O8    Zn1   S    
C13   O8    A    
C6    C8    A    
N1    Zn1   S    
C18   Cl4   S    
C14   Cl1   S    
C12   O7    A    
C1    C10   S    
C14   N2    A    
C11   O4    A    
