data_mof_unit_52117.cif
_audit_creation_date              2012-12-10T20:35:49-0500
_audit_creation_method            fapswitch 2.2
_symmetry_space_group_name_H-M    P1
_symmetry_Int_Tables_number       1
_space_group_crystal_system       triclinic
_cell_length_a                    15.734155
_cell_length_b                    10.686015
_cell_length_c                    9.932176
_cell_angle_alpha                 88.472327
_cell_angle_beta                  89.519747
_cell_angle_gamma                 91.985578
_cell_volume                      1668.28229839

loop_
_atom_site_label
_atom_site_type_symbol
_atom_type_description
_atom_site_fract_x
_atom_site_fract_y
_atom_site_fract_z
_atom_type_partial_charge
C1    C     C_R   0.500297 0.260103 0.501263 0.884903
C2    C     C_3   0.948930 0.431423 0.636655 0.327786
C3    C     C_3   0.916759 0.499534 0.506061 0.142597
C4    C     C_3   0.953877 0.635646 0.493595 -0.423371
C5    C     C_3   0.052300 0.635370 0.486168 -0.172305
C6    C     C_1   0.825418 0.500180 0.502468 0.012335
C7    C     C_1   0.174196 0.497317 0.502318 -0.016877
C8    C     C_1   0.249534 0.498422 0.501640 -0.035822
C9    C     C_R   0.560230 0.064130 0.581372 -0.001869
C10   C     C_R   0.503369 0.127679 0.500076 -0.101575
C11   C     C_R   0.459200 0.063871 0.399429 -0.180228
C12   C     C_R   0.338463 0.500064 0.500568 0.937527
C13   C     C_R   0.460282 0.935200 0.396786 -0.113695
C14   C     C_R   0.507758 0.871122 0.492552 -0.062395
C15   C     C_R   0.562763 0.936071 0.577009 0.060108
C16   C     C_3   0.577463 0.920737 0.724700 -0.472003
C17   C     C_3   0.571957 0.062201 0.730473 -0.221675
C18   C     C_R   0.439345 0.431674 0.073815 0.083521
C19   C     C_R   0.550467 0.584366 0.065421 0.458058
C20   C     C_R   0.551447 0.579631 0.922571 -0.152916
C21   C     C_R   0.440560 0.430529 0.931794 0.210698
C22   C     C_3   0.428128 0.291759 0.931784 -0.421948
C23   C     C_R   0.501850 0.739384 0.498351 0.866387
C24   C     C_3   0.419659 0.293891 0.085706 0.180259
C25   C     C_R   0.661461 0.499916 0.499604 0.902760
C26   C     C_3   0.047350 0.440131 0.639079 -0.443033
C27   C     C_3   0.046264 0.421628 0.383101 -0.167758
C28   C     C_3   0.947954 0.427053 0.382872 -0.526156
C29   C     C_1   0.750202 0.500216 0.499580 -0.077998
C30   C     C_3   0.082435 0.497857 0.503607 0.055619
H1    H     H_    0.929311 0.330549 0.631092 0.082883
H2    H     H_    0.070563 0.497178 0.724014 0.230581
H3    H     H_    0.929848 0.682017 0.400321 0.186429
H4    H     H_    0.420600 0.111995 0.327324 0.210289
H5    H     H_    0.420220 0.885917 0.325892 0.196008
H6    H     H_    0.524045 0.869876 0.778893 0.232745
H7    H     H_    0.641434 0.884234 0.746259 0.216777
H8    H     H_    0.514312 0.089567 0.785142 0.167840
H9    H     H_    0.072383 0.345311 0.658100 0.175383
H10   H     H_    0.591800 0.643240 0.862104 0.200313
H11   H     H_    0.487696 0.249118 0.900272 0.155561
H12   H     H_    0.469886 0.241485 0.138259 0.114588
H13   H     H_    0.070724 0.467180 0.287417 0.210218
H14   H     H_    0.917407 0.331300 0.383970 0.183698
H15   H     H_    0.927534 0.474550 0.287889 0.233270
H16   H     H_    0.072261 0.670787 0.383649 0.190603
H17   H     H_    0.930975 0.691697 0.578202 0.233201
N1    N     N_R   0.499430 0.499140 0.142800 -0.193792
N2    N     N_R   0.499430 0.499180 0.857150 -0.142716
O1    O     O_R   0.500010 0.316790 0.614690 -0.622065
O2    O     O_R   0.500000 0.316760 0.385350 -0.613337
O3    O     O_R   0.377150 0.500020 0.614720 -0.583439
O4    O     O_R   0.377140 0.499990 0.385380 -0.565023
O5    O     O_R   0.500000 0.683240 0.614650 -0.638940
O6    O     O_R   0.499990 0.683210 0.385310 -0.556630
O7    O     O_R   0.622860 0.500010 0.614620 -0.592483
O8    O     O_R   0.622850 0.499980 0.385280 -0.559941
Zn1   Zn    Zn3+2 0.500010 0.500020 0.653130 1.011855
Zn2   Zn    Zn3+2 0.499990 0.499980 0.346870 1.065681
S1    S     S_3+6 0.904745 0.482692 0.793811 0.018225
O9    O     O_2   0.809601 0.464367 0.794874 -0.265085
O10   O     O_2   0.940350 0.404729 0.906777 -0.257711
O11   O     O_3   0.930530 0.634128 0.819155 -0.595057
H18   H     H_    0.904871 0.652162 0.907646 0.402226
C31   C     C_2   0.653484 0.128087 0.770195 0.531312
H19   H     H_    0.712963 0.107483 0.720595 0.066819
O12   O     O_2   0.653375 0.205560 0.858231 -0.533123
S2    S     S_3+6 0.602769 0.721884 0.127248 0.048341
O13   O     O_2   0.663501 0.776249 0.021688 -0.316945
O14   O     O_2   0.536088 0.816237 0.150722 -0.325302
O15   O     O_3   0.659048 0.701859 0.267982 -0.528502
H20   H     H_    0.673325 0.787570 0.298295 0.366107
C32   C     C_2   0.352185 0.244563 0.853655 0.625090
H21   H     H_    0.339649 0.144402 0.848023 0.067803
O16   O     O_2   0.304747 0.316361 0.796582 -0.533337
S3    S     S_3+6 0.313893 0.260498 0.152187 0.065096
O17   O     O_2   0.252390 0.350579 0.092287 -0.199643
O18   O     O_2   0.286641 0.129052 0.117525 -0.304153
O19   O     O_3   0.312614 0.272871 0.320425 -0.569664
H22   H     H_    0.273279 0.204886 0.354927 0.388574
C33   C     C_2   0.073029 0.286975 0.384679 0.476734
H23   H     H_    0.056454 0.224270 0.469203 0.059883
O20   O     O_2   0.111606 0.246535 0.289013 -0.469785
C34   C     C_2   0.091310 0.724259 0.586492 0.438682
H24   H     H_    0.077068 0.712582 0.693135 0.135024
O21   O     O_2   0.138879 0.810869 0.548114 -0.552098

loop_
_geom_bond_atom_site_label_1
_geom_bond_atom_site_label_2
_ccdc_geom_bond_type
C26   H2    S    
O6    Zn2   S    
C18   C21   A    
C24   H12   S    
C32   H21   S    
C19   C20   A    
S3    O19   S    
C3    C6    S    
C21   N2    A    
C33   H23   S    
O4    Zn2   S    
C7    C8    T    
N1    Zn2   S    
S1    O11   S    
C18   C24   S    
C3    C28   S    
C34   O21   D    
C13   H5    S    
C20   H10   S    
C2    S1    S    
C26   H9    S    
O8    Zn2   S    
C22   H11   S    
C15   C16   S    
S1    O10   D    
C12   O3    A    
S2    O13   D    
C16   C17   S    
C31   O12   D    
C25   O7    A    
C9    C10   A    
C12   O4    A    
C16   H7    S    
C7    C30   S    
C21   C22   S    
C27   C30   S    
C32   O16   D    
C25   O8    A    
C33   O20   D    
C25   C29   S    
C28   H15   S    
O1    Zn1   S    
C27   C33   S    
C34   H24   S    
C5    C34   S    
C19   N1    A    
C24   S3    S    
C28   H14   S    
N2    Zn1   S    
O11   H18   S    
C2    H1    S    
C14   C23   S    
C20   N2    A    
C1    O1    A    
C8    C12   S    
C19   S2    S    
C2    C26   S    
S3    O17   D    
C1    O2    A    
O3    Zn1   S    
C9    C17   S    
C26   C30   S    
C22   C24   S    
O2    Zn2   S    
C3    C4    S    
C23   O5    A    
C5    C30   S    
O5    Zn1   S    
C4    H3    S    
C11   H4    S    
C1    C10   S    
S3    O18   D    
C4    C5    S    
C18   N1    A    
C23   O6    A    
C5    H16   S    
C17   C31   S    
C2    C3    S    
C9    C15   A    
O15   H20   S    
C16   H6    S    
C11   C13   A    
S2    O15   S    
O7    Zn1   S    
C17   H8    S    
C10   C11   A    
O19   H22   S    
C27   H13   S    
C6    C29   T    
S2    O14   D    
C31   H19   S    
C27   C28   S    
C14   C15   A    
S1    O9    D    
C22   C32   S    
C13   C14   A    
C4    H17   S    
