data_mof_unit_54319.cif
_audit_creation_date              2012-12-11T16:26:30-0500
_audit_creation_method            fapswitch 2.2
_symmetry_space_group_name_H-M    P1
_symmetry_Int_Tables_number       1
_space_group_crystal_system       triclinic
_cell_length_a                    6.950541
_cell_length_b                    17.622027
_cell_length_c                    19.400839
_cell_angle_alpha                 108.32909
_cell_angle_beta                  88.775633
_cell_angle_gamma                 90.83065
_cell_volume                      2255.1172646

loop_
_atom_site_label
_atom_site_type_symbol
_atom_type_description
_atom_site_fract_x
_atom_site_fract_y
_atom_site_fract_z
_atom_type_partial_charge
O1    O     O_R   0.494330 0.415720 0.413720 -0.528619
O2    O     O_R   0.819330 0.430070 0.560210 -0.546231
O3    O     O_R   0.994320 0.584280 0.586280 -0.545826
C1    C     C_R   0.648952 0.415548 0.581966 0.681180
O4    O     O_R   0.823730 0.406300 0.412670 -0.527788
O5    O     O_R   0.998760 0.560340 0.437690 -0.513856
C2    C     C_R   0.655862 0.384925 0.383742 0.784559
O6    O     O_R   0.489890 0.439660 0.562310 -0.541279
O7    O     O_3   0.662340 0.550560 0.508380 -0.360777
V1    V     V_3+5 0.935370 0.490620 0.498450 1.480719
O8    O     O_R   0.328750 0.569930 0.439790 -0.539848
C3    C     C_R   0.161285 0.587740 0.420608 0.751822
O9    O     O_R   0.324340 0.593700 0.587330 -0.541436
C4    C     C_R   0.154129 0.616549 0.614680 0.670220
V2    V     V_3+5 0.435940 0.509380 0.501550 1.476133
O10   O     O_3   0.159100 0.449440 0.491620 -0.371684
H1    H     H_    0.336403 0.860895 0.564339 0.168127
C5    C     C_R   0.986799 0.597959 0.745359 -0.210434
C6    C     C_R   0.921560 0.584254 0.808277 -0.179500
C7    C     C_R   0.957106 0.639830 0.875290 0.315122
C8    C     C_R   0.054296 0.712187 0.879060 -0.087832
C9    C     C_R   0.081880 0.734440 0.814656 -0.030017
C10   C     C_R   0.067461 0.672666 0.747012 0.077826
C11   C     C_R   0.124473 0.814873 0.815634 -0.130028
C12   C     C_R   0.172578 0.830022 0.748658 0.027297
C13   C     C_R   0.191989 0.763322 0.683512 0.049385
C14   C     C_R   0.139390 0.685240 0.682883 -0.129690
C15   C     C_R   0.202330 0.908611 0.742305 0.282562
C16   C     C_R   0.263408 0.917764 0.676277 -0.007506
C17   C     C_R   0.291273 0.852407 0.615175 -0.153796
C18   C     C_R   0.253639 0.776291 0.618154 -0.166830
H2    H     H_    0.969952 0.549094 0.695674 0.139624
H3    H     H_    0.855254 0.527318 0.805085 0.151240
H4    H     H_    0.287354 0.976947 0.671852 0.190678
H5    H     H_    0.269863 0.727911 0.567779 0.109045
C19   C     C_R   0.313664 0.648942 0.332229 -0.173953
C20   C     C_R   0.155583 0.642991 0.376565 -0.056832
C21   C     C_R   0.992613 0.690180 0.378563 -0.160315
C22   C     C_R   0.986005 0.741013 0.335467 0.100088
C23   C     C_R   0.141504 0.743187 0.288226 0.062282
C24   C     C_R   0.306348 0.696940 0.286863 0.057425
C25   C     C_R   0.825822 0.789106 0.338199 -0.201696
C26   C     C_R   0.816357 0.836840 0.292836 -0.140193
C27   C     C_R   0.966247 0.837048 0.242588 0.055726
C28   C     C_R   0.131199 0.790532 0.241465 0.013888
C29   C     C_R   0.286046 0.790736 0.193463 0.088711
C30   C     C_R   0.448788 0.744098 0.192313 -0.126402
C31   C     C_R   0.458786 0.697555 0.238574 -0.168897
C32   C     C_R   0.955181 0.881795 0.193330 0.185956
C33   C     C_R   0.108922 0.879608 0.143225 -0.080618
C34   C     C_R   0.275291 0.836227 0.146275 -0.142473
H6    H     H_    0.440327 0.614289 0.331318 0.181945
H7    H     H_    0.871262 0.687553 0.413824 0.136800
H8    H     H_    0.705880 0.789003 0.374806 0.139877
H9    H     H_    0.688061 0.871962 0.296816 0.182741
H10   H     H_    0.395750 0.835492 0.109760 0.157213
H11   H     H_    0.568512 0.743425 0.155401 0.171518
H12   H     H_    0.585494 0.661632 0.236258 0.174749
C35   C     C_R   0.598886 0.212380 0.891683 -0.256010
C36   C     C_R   0.627996 0.130008 0.865525 -0.076298
C37   C     C_R   0.658254 0.091249 0.790209 0.255055
C38   C     C_R   0.663315 0.137034 0.740452 -0.022044
C39   C     C_R   0.631947 0.221305 0.769167 0.009561
C40   C     C_R   0.599855 0.258164 0.844547 0.108951
C41   C     C_R   0.694226 0.103918 0.663464 0.002288
C42   C     C_R   0.693737 0.153146 0.619004 -0.236160
C43   C     C_R   0.664140 0.235095 0.647587 0.094610
C44   C     C_R   0.631291 0.269612 0.722671 0.071942
C45   C     C_R   0.597934 0.352855 0.751261 0.091941
C46   C     C_R   0.566345 0.387669 0.826025 -0.159778
C47   C     C_R   0.567798 0.340848 0.872184 -0.128342
C48   C     C_R   0.668734 0.283132 0.601821 -0.199654
C49   C     C_R   0.636105 0.365452 0.630060 -0.058661
C50   C     C_R   0.598232 0.400011 0.704620 -0.222098
H13   H     H_    0.573674 0.240864 0.949416 0.115231
H14   H     H_    0.719063 0.127002 0.560941 0.135763
H15   H     H_    0.697596 0.256598 0.544100 0.104404
H16   H     H_    0.572876 0.463773 0.726336 0.114023
H17   H     H_    0.541137 0.451307 0.848920 0.160187
H18   H     H_    0.543262 0.369459 0.929861 0.155400
H19   H     H_    0.346828 0.157552 0.432698 0.123792
C51   C     C_R   0.775060 0.401463 0.236617 0.182046
C52   C     C_R   0.851588 0.403739 0.168933 -0.002718
C53   C     C_R   0.851979 0.334814 0.109375 -0.213693
C54   C     C_R   0.775760 0.264330 0.114900 -0.167402
C55   C     C_R   0.703194 0.258374 0.181522 0.045299
C56   C     C_R   0.709360 0.326999 0.245356 0.016923
C57   C     C_R   0.616471 0.185686 0.183374 -0.154484
C58   C     C_R   0.536466 0.180239 0.249339 0.071295
C59   C     C_R   0.557662 0.244928 0.314736 0.054164
C60   C     C_R   0.644034 0.318344 0.313530 -0.169302
C61   C     C_R   0.438052 0.110221 0.251919 -0.093253
C62   C     C_R   0.369496 0.102597 0.317372 -0.079906
C63   C     C_R   0.397776 0.164096 0.381723 -0.119794
C64   C     C_R   0.490587 0.234351 0.380789 -0.140286
H20   H     H_    0.907736 0.335878 0.057056 0.161435
H21   H     H_    0.772525 0.214785 0.065073 0.117137
H22   H     H_    0.413560 0.060213 0.203608 0.137373
H23   H     H_    0.295894 0.048284 0.318166 0.133102
H24   H     H_    0.508813 0.279929 0.432673 0.094704
O11   O     O_R   0.775200 0.060470 0.937800 -0.521458
O12   O     O_R   0.441110 0.093720 0.087350 -0.556421
O13   O     O_R   0.266330 0.939630 0.062280 -0.559440
C65   C     C_R   0.608540 0.115576 0.115782 0.696572
O14   O     O_R   0.445750 0.069950 0.939820 -0.520504
O15   O     O_R   0.271000 0.915700 0.913700 -0.509290
C66   C     C_R   0.616014 0.084278 0.917806 0.786095
O16   O     O_R   0.770530 0.084400 0.086380 -0.536159
O17   O     O_3   0.602830 0.949510 0.991680 -0.359505
V3    V     V_3+5 0.329710 0.009370 0.001550 1.530670
O18   O     O_R   0.940990 0.906170 0.912570 -0.523674
C67   C     C_R   0.111065 0.882181 0.885464 0.794302
O19   O     O_R   0.936350 0.929940 0.060100 -0.512176
C68   C     C_R   0.102319 0.922145 0.087515 0.772700
V4    V     V_3+5 0.829160 0.990450 0.998310 1.581710
O20   O     O_3   0.105910 0.050480 0.008320 -0.371276
Br1   Br    Br    0.735916 0.948993 0.197637 -0.653407
Br2   Br    Br    0.678075 0.975836 0.761082 -0.534332
C69   C     C_2   0.733567 0.019315 0.624571 0.833697
O21   O     O_2   0.611756 0.978201 0.584895 -0.575918
O22   O     O_R   0.914816 0.988203 0.628634 -0.643570
H25   H     H_    0.925554 0.930136 0.597596 0.301926
Br3   Br    Br    0.725484 0.504089 0.307297 -0.578042
C70   C     C_2   0.926821 0.478091 0.157227 0.837325
O23   O     O_2   0.895184 0.491312 0.100266 -0.529157
O24   O     O_R   0.039642 0.531592 0.209646 -0.639132
H26   H     H_    0.083607 0.578828 0.194001 0.314869
Br4   Br    Br    0.887390 0.607715 0.958695 -0.449182
C71   C     C_2   0.171412 0.749879 0.943592 0.751602
O25   O     O_2   0.107296 0.756366 0.004066 -0.541955
O26   O     O_R   0.362049 0.771931 0.934457 -0.649840
H27   H     H_    0.432221 0.793200 0.981979 0.303023
Br5   Br    Br    0.152846 0.010066 0.814865 -0.496895

loop_
_geom_bond_atom_site_label_1
_geom_bond_atom_site_label_2
_ccdc_geom_bond_type
C27   C32   A    
O11   C66   A    
O14   V3    S    
C62   C63   A    
C56   C60   A    
C49   C50   A    
O18   C67   A    
C11   C67   S    
C1    O6    A    
C61   H22   S    
C59   C64   A    
O15   C67   A    
C28   C29   A    
C12   C15   A    
C71   O26   S    
O14   C66   A    
C13   C14   A    
C38   C39   A    
O24   H26   S    
O13   V3    S    
O16   V4    S    
C15   C16   A    
C20   C21   A    
C7    Br4   S    
C45   C46   A    
O5    C3    A    
C17   C18   A    
C55   C57   A    
V2    O10   S    
C34   H10   S    
C53   H20   S    
C40   C47   A    
C3    C20   S    
C48   H15   S    
O19   C68   A    
O8    V2    S    
C32   Br1   S    
C30   C31   A    
C44   C45   A    
C46   C47   A    
O1    V2    S    
C10   C14   A    
C52   C70   S    
O7    V1    S    
C62   H23   S    
C19   H6    S    
C42   C43   A    
C46   H17   S    
C42   H14   S    
C35   C36   A    
C8    C9    A    
H1    C17   S    
C19   C24   A    
C63   C64   A    
C35   H13   S    
C47   H18   S    
C57   C65   S    
C22   C25   A    
C69   O22   S    
C23   C28   A    
O22   H25   S    
C43   C44   A    
C43   C48   A    
O13   C68   A    
C53   C54   A    
C6    H3    S    
C22   C23   A    
O4    C2    A    
C64   H24   S    
C5    C6    A    
C12   C13   A    
C54   C55   A    
C29   C34   A    
C15   Br5   S    
C36   C37   A    
C33   C68   S    
O2    C1    A    
C26   C27   A    
C16   C17   A    
C30   H11   S    
C52   C53   A    
C69   O21   D    
C2    C60   S    
C7    C8    A    
C33   C34   A    
C41   C69   S    
C45   C50   A    
C29   C30   A    
C11   C12   A    
C58   C61   A    
O12   C65   A    
C36   C66   S    
C8    C71   S    
C1    C49   S    
O3    C4    A    
C26   H9    S    
C23   C24   A    
C32   C33   A    
O6    V2    S    
O9    V2    S    
C4    C14   S    
C18   H5    S    
O12   V3    S    
C5    H2    S    
C25   C26   A    
O26   H27   S    
O2    V1    S    
V3    O20   S    
C51   Br3   S    
C65   O16   A    
C27   C28   A    
C55   C56   A    
C70   O24   S    
C71   O25   D    
O15   V3    S    
C39   C44   A    
C19   C20   A    
C38   C41   A    
C37   Br2   S    
O1    C2    A    
C48   C49   A    
O5    V1    S    
O8    C3    A    
C31   H12   S    
C6    C7    A    
O7    V2    S    
O4    V1    S    
O3    V1    S    
V1    O10   S    
O17   V3    S    
C25   H8    S    
H19   C63   S    
C59   C60   A    
C21   C22   A    
C21   H7    S    
C5    C10   A    
O11   V4    S    
C16   H4    S    
C61   C62   A    
C24   C31   A    
C9    C11   A    
C41   C42   A    
C37   C38   A    
C54   H21   S    
O17   V4    S    
C39   C40   A    
C35   C40   A    
C13   C18   A    
C57   C58   A    
C51   C52   A    
C50   H16   S    
C9    C10   A    
O18   V4    S    
V4    O20   S    
C58   C59   A    
O9    C4    A    
C51   C56   A    
C70   O23   D    
O19   V4    S    
