data_mof_unit_67461.cif
_audit_creation_date              2013-03-05T15:40:59-0500
_audit_creation_method            fapswitch 2.2
_symmetry_space_group_name_H-M    P1
_symmetry_Int_Tables_number       1
_space_group_crystal_system       triclinic
_cell_length_a                    10.746867
_cell_length_b                    8.710247
_cell_length_c                    7.486819
_cell_angle_alpha                 102.692578
_cell_angle_beta                  95.128672
_cell_angle_gamma                 93.250786
_cell_volume                      678.856489509

loop_
_atom_site_label
_atom_site_type_symbol
_atom_site_description
_atom_site_fract_x
_atom_site_fract_y
_atom_site_fract_z
_atom_type_partial_charge
O1    O     O_R   0.509140 0.286130 0.619770 -0.555019
O2    O     O_R   0.485380 0.256770 0.308360 -0.619837
C1    C     C_R   0.498025 0.200094 0.453943 0.927049
O3    O     O_R   0.329570 0.514650 0.655700 -0.616391
O4    O     O_R   0.305810 0.485300 0.344290 -0.573635
C2    C     C_R   0.260080 0.501921 0.501000 0.757376
Cu1   Cu    Cu3+1 0.514070 0.517380 0.684380 0.971472
Cu2   Cu    Cu3+1 0.485930 0.482620 0.315620 0.991680
O5    O     O_R   0.514620 0.743230 0.691640 -0.589578
O6    O     O_R   0.490860 0.713870 0.380230 -0.554040
O7    O     O_R   0.694190 0.514700 0.655710 -0.624523
O8    O     O_R   0.670430 0.485350 0.344300 -0.516255
C3    C     C_R   0.509555 0.800058 0.546613 0.729646
C4    C     C_R   0.739618 0.496122 0.498790 0.844718
C5    C     C_3   0.082330 0.479191 0.687302 -0.465970
H1    H     H_    0.131771 0.567375 0.804699 0.208378
H2    H     H_    0.110363 0.362861 0.708825 0.182598
C6    C     C_3   0.940360 0.482629 0.688732 -0.436223
H3    H     H_    0.902727 0.374436 0.726698 0.221237
H4    H     H_    0.918969 0.584173 0.796691 0.186529
H5    H     H_    0.894239 0.749028 0.555759 0.118247
C7    C     C_3   0.073186 0.662003 0.454624 0.574332
C8    C     C_3   0.059037 0.358474 0.352401 -0.472804
C9    C     C_3   0.121703 0.504056 0.500867 0.017640
H6    H     H_    0.084201 0.369293 0.214653 0.218429
H7    H     H_    0.104561 0.252253 0.373610 0.107225
C10   C     C_3   0.877697 0.493129 0.496616 -0.024972
C11   C     C_3   0.927942 0.650909 0.456436 -0.442917
C12   C     C_3   0.911089 0.347059 0.349230 0.933251
H8    H     H_    0.882048 0.662493 0.321711 0.204131
C13   C     C_2   0.491816 0.032308 0.431380 -0.449335
H9    H     H_    0.449679 0.960941 0.299677 0.132041
C14   C     C_2   0.527323 0.968335 0.572670 0.319410
N1    N     N_2   0.464720 0.456420 0.038520 -0.152469
H10   H     H_    0.409058 0.368060 0.947777 0.166433
N2    N     N_2   0.535280 0.543580 0.961480 0.104515
O9    O     O_3   0.857444 0.363199 0.173589 -0.601261
C15   C     C_3   0.850951 0.221117 0.037608 -0.276142
H11   H     H_    0.791840 0.125189 0.072046 0.206883
H12   H     H_    0.945411 0.183228 0.010856 0.135208
H13   H     H_    0.804851 0.241956 0.907900 0.216543
O10   O     O_3   0.090753 0.656740 0.264809 -0.591566
C16   C     C_3   0.189687 0.755570 0.228749 -0.323236
H14   H     H_    0.273277 0.768413 0.328515 0.171452
H15   H     H_    0.156633 0.872773 0.223406 0.149893
H16   H     H_    0.219339 0.703016 0.092268 0.203113
O11   O     O_3   0.599293 0.056366 0.729143 -0.584440
C17   C     C_3   0.530147 0.072560 0.882885 -0.275506
H17   H     H_    0.538371 0.970660 0.948341 0.196905
H18   H     H_    0.430131 0.090965 0.848623 0.135922
H19   H     H_    0.571388 0.177964 0.986898 0.215332
O12   O     O_3   0.589449 0.674920 0.078977 -0.452933
C18   C     C_3   0.708106 0.707809 0.025939 -0.125498
H20   H     H_    0.701576 0.757323 0.901862 0.170135
H21   H     H_    0.763086 0.602099 0.007745 0.181405
H22   H     H_    0.759890 0.800485 0.137303 0.107229
C19   C     C_3   0.137067 0.818849 0.594621 -0.443540
C20   C     C_3   0.081646 0.884992 0.777544 -0.392033
C21   C     C_3   0.173914 0.009608 0.905992 -0.900417
H23   H     H_    0.260365 0.955372 0.944975 0.254885
H24   H     H_    0.198044 0.107203 0.838209 0.246387
H25   H     H_    0.131608 0.059789 0.033741 0.230308
H26   H     H_    0.995220 0.944037 0.751221 0.210977
H27   H     H_    0.057972 0.793520 0.851859 0.233103
H28   H     H_    0.237377 0.802464 0.628533 0.181015
H29   H     H_    0.135727 0.918625 0.525169 0.185188
O13   O     O_3   0.849825 0.211919 0.396024 -0.606064
C22   C     C_3   0.922460 0.083971 0.405089 -0.429895
H30   H     H_    0.992752 0.114868 0.527597 0.176540
H31   H     H_    0.965236 0.041412 0.275320 0.163228
H32   H     H_    0.859631 0.984943 0.424444 0.208506

loop_
_geom_bond_atom_site_label_1
_geom_bond_atom_site_label_2
_geom_bond_distance
_ccdc_geom_bond_type
O1    C1    1.292945 A    
C5    C6    1.528671 S    
C1    C13   1.430835 S    
C16   H14   1.099699 S    
C13   C14   1.336431 D    
C3    C14   1.434864 S    
O9    C15   1.413059 S    
C4    C10   1.487102 S    
C10   C12   1.571876 S    
Cu1   N2    2.027190 S    
C6    H4    1.109307 S    
C13   H9    1.087490 S    
N2    O12   1.346162 S    
C19   H29   1.106586 S    
Cu2   O8    1.973434 S    
C2    C9    1.488206 S    
C18   H22   1.107619 S    
C7    C19   1.603755 S    
C11   H8    1.110077 S    
O2    C1    1.291410 A    
C21   H23   1.110599 S    
Cu2   N1    2.027190 S    
C18   H20   1.105303 S    
Cu1   O7    1.967451 S    
C16   H15   1.107473 S    
C19   C20   1.549275 S    
C7    O10   1.441393 S    
C22   H32   1.107829 S    
O1    Cu1   1.961920 S    
C19   H28   1.109691 S    
C8    C12   1.585177 S    
C17   H18   1.111368 S    
C5    C9    1.549927 S    
C15   H12   1.106730 S    
H5    C11   1.103877 S    
O8    C4    1.300047 A    
N1    H10   1.028144 S    
N1    N2    1.299766 D    
C18   H21   1.111949 S    
C20   H27   1.098281 S    
O4    C2    1.294422 A    
C14   O11   1.390880 S    
O7    C4    1.293341 A    
C7    C9    1.594621 S    
C16   H16   1.106526 S    
O4    Cu2   1.967451 S    
C21   H24   1.111540 S    
O10   C16   1.412099 S    
C8    C9    1.564277 S    
O3    C2    1.300380 A    
C5    H1    1.103802 S    
C12   O13   1.440955 S    
Cu1   Cu2   2.697846 S    
C8    H6    1.111421 S    
C15   H11   1.109928 S    
O12   C18   1.401766 S    
C15   H13   1.105924 S    
C22   H31   1.110673 S    
C6    H3    1.107920 S    
C8    H7    1.105710 S    
C12   O9    1.426963 S    
C20   H26   1.109957 S    
Cu1   O5    1.955643 S    
O5    C3    1.286692 A    
C17   H17   1.108177 S    
C21   H25   1.108648 S    
C7    C11   1.559890 S    
O3    Cu1   1.973435 S    
C20   C21   1.528062 S    
C5    H2    1.114058 S    
O11   C17   1.410835 S    
C17   H19   1.106215 S    
O2    Cu2   1.955643 S    
C6    C10   1.556376 S    
O13   C22   1.406545 S    
Cu2   O6    1.961920 S    
C22   H30   1.108571 S    
C10   C11   1.548322 S    
O6    C3    1.297257 A    
