data_mof_unit_50650.cif
_audit_creation_date              2012-12-11T14:17:41-0500
_audit_creation_method            fapswitch 2.2
_symmetry_space_group_name_H-M    P1
_symmetry_Int_Tables_number       1
_space_group_crystal_system       triclinic
_cell_length_a                    6.951129
_cell_length_b                    13.709955
_cell_length_c                    20.490521
_cell_angle_alpha                 102.216633
_cell_angle_beta                  90.596078
_cell_angle_gamma                 90.539541
_cell_volume                      1908.28090726

loop_
_atom_site_label
_atom_site_type_symbol
_atom_type_description
_atom_site_fract_x
_atom_site_fract_y
_atom_site_fract_z
_atom_type_partial_charge
O1    O     O_R   0.506860 0.599390 0.449240 -0.537636
O2    O     O_R   0.180220 0.594600 0.586780 -0.518981
O3    O     O_R   0.004500 0.400610 0.550760 -0.538956
C1    C     C_R   0.349156 0.612839 0.614430 0.768121
O4    O     O_R   0.177490 0.611290 0.451970 -0.547026
O5    O     O_R   0.001750 0.417420 0.414990 -0.572417
C2    C     C_R   0.345990 0.636422 0.434669 0.696473
O6    O     O_R   0.509610 0.582580 0.585010 -0.536361
O7    O     O_3   0.337420 0.436370 0.488020 -0.377228
V1    V     V_3+5 0.064680 0.511800 0.502220 1.533782
O8    O     O_R   0.671710 0.405400 0.413220 -0.511537
C3    C     C_R   0.838911 0.387152 0.385901 0.717265
O9    O     O_R   0.674440 0.388710 0.548030 -0.536432
C4    C     C_R   0.843472 0.363661 0.565913 0.769578
V2    V     V_3+5 0.564010 0.488200 0.497780 1.566648
O10   O     O_3   0.841140 0.563630 0.511980 -0.364398
C5    C     C_R   0.924886 0.114827 0.610117 -0.109771
H1    H     H_    0.944365 0.988769 0.689334 0.185548
H2    H     H_    0.951192 0.038452 0.584728 0.164655
C6    C     C_R   0.856766 0.284901 0.604124 -0.110852
C7    C     C_R   0.855433 0.313229 0.926555 -0.148688
C8    C     C_R   0.900645 0.389181 0.892241 -0.052145
C9    C     C_R   0.930659 0.365162 0.822364 -0.026791
C10   C     C_R   0.899347 0.265253 0.785605 -0.033319
C11   C     C_R   0.887688 0.186432 0.821674 -0.028525
C12   C     C_R   0.888510 0.240256 0.713762 0.069033
C13   C     C_R   0.914909 0.140273 0.680049 0.021500
C14   C     C_R   0.926693 0.065448 0.715870 -0.100587
C15   C     C_R   0.903755 0.085578 0.784675 0.239062
C16   C     C_R   0.843453 0.310084 0.673942 -0.273243
C17   C     C_R   0.901940 0.187181 0.572294 0.290672
C18   C     C_R   0.863659 0.212019 0.892568 -0.092490
H3    H     H_    0.795066 0.384230 0.695998 0.146934
C19   C     C_2   0.989056 0.282617 0.284766 -0.204726
C20   C     C_2   0.840703 0.338369 0.314264 0.091566
C21   C     C_2   0.991855 0.247495 0.210929 0.071157
C22   C     C_2   0.865571 0.174846 0.182074 -0.180509
H4    H     H_    0.756106 0.151100 0.213136 0.134013
C23   C     C_2   0.247793 0.750522 0.796229 -0.185950
C24   C     C_2   0.351487 0.835317 0.815231 0.155755
H5    H     H_    0.174376 0.719601 0.833966 0.167543
C25   C     C_2   0.213554 0.700781 0.725348 0.369117
C26   C     C_2   0.363419 0.671177 0.684206 -0.322937
H6    H     H_    0.508031 0.686158 0.704685 0.192111
C27   C     C_R   0.404066 0.885107 0.391339 0.310297
H7    H     H_    0.431480 0.826777 0.479896 0.156065
H8    H     H_    0.390797 0.014794 0.311532 0.210598
C28   C     C_R   0.355474 0.711952 0.394500 -0.148576
C29   C     C_R   0.377072 0.689536 0.074754 -0.232884
C30   C     C_R   0.400000 0.614611 0.110407 -0.003446
C31   C     C_R   0.399837 0.639432 0.180148 -0.043965
C32   C     C_R   0.365251 0.737941 0.215491 0.080989
C33   C     C_R   0.362970 0.816121 0.179164 -0.010708
C34   C     C_R   0.350604 0.761175 0.286762 0.043534
C35   C     C_R   0.378083 0.861810 0.321305 0.015369
C36   C     C_R   0.378834 0.937462 0.285557 -0.113291
C37   C     C_R   0.365082 0.916740 0.216184 -0.092231
C38   C     C_R   0.311936 0.688358 0.325567 -0.080210
C39   C     C_R   0.403646 0.809139 0.426502 -0.174099
C40   C     C_R   0.362700 0.789437 0.107723 -0.064013
H9    H     H_    0.378983 0.670539 0.020585 0.130846
H10   H     H_    0.434237 0.581325 0.206466 0.166871
O11   O     O_R   0.203230 0.917310 0.915020 -0.530425
O12   O     O_R   0.535500 0.888690 0.048040 -0.563028
O13   O     O_R   0.711080 0.082610 0.085000 -0.553481
C41   C     C_R   0.367201 0.862848 0.065249 0.643111
O14   O     O_R   0.532630 0.905370 0.913230 -0.523781
O15   O     O_R   0.708190 0.099410 0.949230 -0.513134
C42   C     C_R   0.363017 0.887122 0.885972 0.730629
O16   O     O_R   0.206120 0.900510 0.050790 -0.543186
O17   O     O_3   0.375360 0.063570 0.011990 -0.358321
V3    V     V_3+5 0.648170 0.988200 0.997780 1.579398
O18   O     O_R   0.038240 0.111390 0.951940 -0.536921
C43   C     C_R   0.869768 0.135832 0.933510 0.842106
O19   O     O_R   0.041120 0.094710 0.086750 -0.511797
C44   C     C_R   0.873289 0.116975 0.112723 0.807599
V4    V     V_3+5 0.148810 0.011930 0.002180 1.615552
O20   O     O_3   0.871750 0.936430 0.988010 -0.376450
Br1   Br    Br    0.928968 0.149127 0.477240 -0.492303
Br2   Br    Br    0.636053 0.377258 0.261051 -0.501131
C45   C     C_2   0.131558 0.296639 0.173427 0.558103
H11   H     H_    0.244244 0.344012 0.200597 0.120016
O21   O     O_2   0.117153 0.289770 0.113219 -0.516260
Br3   Br    Br    0.444302 0.907507 0.750724 -0.483064
Br4   Br    Br    0.947516 0.677002 0.699609 -0.460092
Br5   Br    Br    0.446739 0.018545 0.442400 -0.462032
C46   C     C_2   0.202494 0.594171 0.298369 0.388473
H12   H     H_    0.228053 0.527544 0.317715 0.052251
O22   O     O_2   0.076858 0.591481 0.255888 -0.509514
C47   C     C_2   0.427371 0.510522 0.073909 0.450326
H13   H     H_    0.431076 0.493186 0.019719 0.049369
O23   O     O_2   0.445507 0.442856 0.103730 -0.475823
C48   C     C_2   0.365010 0.004962 0.186290 0.418486
H14   H     H_    0.480550 0.018286 0.154601 0.049055
O24   O     O_2   0.236865 0.065503 0.199202 -0.516754
C49   C     C_2   0.819160 0.340433 0.000033 0.412652
H15   H     H_    0.887416 0.405901 0.030927 0.080074
O25   O     O_2   0.708485 0.291672 0.026648 -0.487917
C50   C     C_2   0.018707 0.441341 0.789473 0.439092
H16   H     H_    0.130597 0.419767 0.752832 0.040866
O26   O     O_2   0.961223 0.527023 0.800484 -0.499247
C51   C     C_2   0.922160 0.493592 0.931083 0.439972
H17   H     H_    0.807323 0.527076 0.963516 0.012505
O27   O     O_2   0.071640 0.540646 0.929851 -0.526857
Br6   Br    Br    0.899142 0.965182 0.818695 -0.462211
C52   C     C_2   0.149191 0.251898 0.324562 0.477256
H18   H     H_    0.130754 0.250128 0.376724 0.099777
O28   O     O_2   0.304298 0.227618 0.299265 -0.493118

loop_
_geom_bond_atom_site_label_1
_geom_bond_atom_site_label_2
_ccdc_geom_bond_type
C9    C50   S    
C35   C36   A    
C48   H14   S    
H7    C39   S    
O18   C43   A    
C24   Br3   S    
C1    O6    A    
C38   C46   S    
C45   H11   S    
C23   H5    S    
C6    C16   A    
V4    O20   S    
C14   C15   A    
C12   C13   A    
C29   C40   A    
C21   C22   D    
C10   C12   A    
C19   C20   D    
O11   V4    S    
C52   H18   S    
O15   C43   A    
V2    O10   S    
C20   Br2   S    
C36   C37   A    
O14   V3    S    
V3    O20   S    
O8    V2    S    
C30   C47   S    
O11   C42   A    
C49   O25   D    
O13   C44   A    
C9    C10   A    
O1    V2    S    
O7    V1    S    
C5    C13   A    
C11   C18   A    
C40   C41   S    
C48   O24   D    
C37   C48   S    
O9    C4    A    
O16   V4    S    
C15   Br6   S    
C31   H10   S    
C17   Br1   S    
O5    C3    A    
C45   O21   D    
C33   C40   A    
C32   C34   A    
C23   C25   S    
C11   C15   A    
C7    C18   A    
C29   H9    S    
C24   C42   S    
C31   C32   A    
C19   C52   S    
C4    C6    S    
H1    C14   S    
C10   C11   A    
C23   C24   D    
O4    C2    A    
C33   C37   A    
O14   C42   A    
O12   C41   A    
O2    C1    A    
O19   C44   A    
C22   H4    S    
C47   O23   D    
C50   H16   S    
C21   C45   S    
O15   V3    S    
C49   H15   S    
C30   C31   A    
C25   Br4   S    
C3    C20   S    
C51   O27   D    
O19   V4    S    
O3    C4    A    
C50   O26   D    
C22   C44   S    
C12   C16   A    
O6    V2    S    
C46   O22   D    
C26   H6    S    
C5    C17   A    
C25   C26   D    
O2    V1    S    
O17   V4    S    
C32   C33   A    
C28   C39   A    
C34   C38   A    
C34   C35   A    
C27   C39   A    
C16   H3    S    
O1    C2    A    
O5    V1    S    
O8    C3    A    
C28   C38   A    
C7    C49   S    
O13   V3    S    
C8    C51   S    
C2    C28   S    
O9    V2    S    
C27   Br5   S    
O7    V2    S    
O17   V3    S    
O3    V1    S    
V1    O10   S    
C18   C43   S    
C47   H13   S    
C41   O16   A    
C52   O28   D    
C5    H2    S    
C1    C26   S    
C19   C21   S    
O12   V3    S    
C51   H17   S    
O4    V1    S    
C27   C35   A    
C46   H12   S    
C29   C30   A    
C13   C14   A    
O18   V4    S    
C8    C9    A    
C7    C8    A    
H8    C36   S    
C6    C17   A    
