data_mof_unit_29436.cif
_audit_creation_date              2012-12-11T14:40:06-0500
_audit_creation_method            fapswitch 2.2
_symmetry_space_group_name_H-M    P1
_symmetry_Int_Tables_number       1
_space_group_crystal_system       triclinic
_cell_length_a                    19.710556
_cell_length_b                    10.91323
_cell_length_c                    19.509297
_cell_angle_alpha                 89.689584
_cell_angle_beta                  97.376459
_cell_angle_gamma                 89.83732
_cell_volume                      4161.74525297

loop_
_atom_site_label
_atom_site_type_symbol
_atom_type_description
_atom_site_fract_x
_atom_site_fract_y
_atom_site_fract_z
_atom_type_partial_charge
C1    C     C_R   0.723895 0.955997 0.362184 0.561303
C2    C     C_R   0.292289 0.000163 0.633302 0.550010
C3    C     C_R   0.223895 0.455997 0.362184 0.561304
C4    C     C_R   0.792289 0.500163 0.633302 0.550010
C5    C     C_3   0.717297 0.347816 0.489992 -0.150632
C6    C     C_3   0.229026 0.311725 0.517319 -0.118898
C7    C     C_3   0.217297 0.847816 0.489992 -0.150632
C8    C     C_3   0.729026 0.811725 0.517319 -0.118898
C9    C     C_3   0.751414 0.406202 0.431673 0.047914
C10   C     C_3   0.252416 0.412756 0.569541 0.033717
C11   C     C_3   0.251414 0.906202 0.431673 0.047914
C12   C     C_3   0.752417 0.912756 0.569541 0.033717
C13   C     C_3   0.737815 0.533387 0.456529 0.040558
C14   C     C_3   0.309261 0.448374 0.526549 0.057280
C15   C     C_3   0.237816 0.033387 0.456529 0.040558
C16   C     C_3   0.809262 0.948374 0.526549 0.057280
C17   C     C_3   0.808946 0.531632 0.501001 -0.167340
C18   C     C_3   0.259962 0.540773 0.486483 -0.145125
C19   C     C_3   0.308946 0.031632 0.501001 -0.167340
C20   C     C_3   0.759962 0.040773 0.486483 -0.145125
C21   C     C_3   0.822098 0.401652 0.474900 -0.116390
C22   C     C_3   0.202651 0.504551 0.530538 -0.168554
C23   C     C_3   0.322098 0.901652 0.474900 -0.116389
C24   C     C_3   0.702651 0.004551 0.530538 -0.168555
C25   C     C_3   0.788208 0.343368 0.533991 -0.115141
C26   C     C_3   0.178971 0.403262 0.478145 -0.083154
C27   C     C_3   0.288208 0.843368 0.533991 -0.115142
C28   C     C_3   0.678971 0.903262 0.478145 -0.083154
C29   C     C_3   0.775205 0.472176 0.559977 0.018010
C30   C     C_3   0.236550 0.437369 0.435790 0.050087
C31   C     C_3   0.275205 0.972177 0.559977 0.018010
C32   C     C_3   0.736550 0.937368 0.435790 0.050087
C33   C     C_3   0.521133 0.273048 0.968769 -0.158092
C34   C     C_3   0.479202 0.273120 0.030438 -0.157943
C35   C     C_3   0.021132 0.773048 0.968769 -0.158092
C36   C     C_3   0.979202 0.773120 0.030438 -0.157943
C37   C     C_3   0.568266 0.171973 0.003605 0.176912
C38   C     C_3   0.432738 0.171468 0.996450 0.177938
C39   C     C_3   0.068266 0.671973 0.003605 0.176912
C40   C     C_3   0.932738 0.671468 0.996450 0.177938
C41   C     C_3   0.527246 0.172591 0.064888 -0.005465
C42   C     C_3   0.473737 0.171848 0.935155 -0.005077
C43   C     C_3   0.027246 0.672591 0.064888 -0.005465
C44   C     C_3   0.973737 0.671848 0.935155 -0.005077
C45   C     C_R   0.535560 0.179871 0.338262 0.553925
C46   C     C_R   0.464879 0.180010 0.662086 0.546186
C47   C     C_R   0.035560 0.679871 0.338262 0.553924
C48   C     C_R   0.964879 0.680010 0.662086 0.546185
C49   C     C_3   0.480360 0.071490 0.031455 0.265675
C50   C     C_3   0.521277 0.071440 0.969404 0.264000
C51   C     C_3   0.980360 0.571491 0.031455 0.265675
C52   C     C_3   0.021277 0.571440 0.969404 0.264000
C53   C     C_1   0.763522 0.425998 0.904709 0.074148
C54   C     C_1   0.236808 0.426332 0.095451 0.078931
C55   C     C_1   0.263522 0.925998 0.904709 0.074148
C56   C     C_1   0.736808 0.926332 0.095451 0.078931
C57   C     C_1   0.749107 0.412267 0.035602 0.105973
C58   C     C_1   0.250875 0.411269 0.964440 0.106151
C59   C     C_1   0.249107 0.912267 0.035602 0.105973
C60   C     C_1   0.750875 0.911269 0.964440 0.106151
C61   C     C_1   0.755413 0.417398 0.964586 0.097407
C62   C     C_1   0.244827 0.417146 0.035563 0.098242
C63   C     C_1   0.255413 0.917398 0.964586 0.097407
C64   C     C_1   0.744827 0.917145 0.035563 0.098242
C65   C     C_1   0.743781 0.398651 0.095872 0.087516
C66   C     C_1   0.256062 0.397420 0.904169 0.087924
C67   C     C_1   0.243782 0.898651 0.095872 0.087516
C68   C     C_1   0.756062 0.897420 0.904169 0.087924
C69   C     C_R   0.739183 0.361182 0.362055 0.576227
C70   C     C_R   0.259950 0.367792 0.639918 0.542988
C71   C     C_R   0.239183 0.861182 0.362055 0.576226
C72   C     C_R   0.759950 0.867792 0.639918 0.542988
C73   C     C_R   0.721770 0.953106 0.163581 0.550034
C74   C     C_R   0.278278 0.952711 0.836449 0.561046
C75   C     C_R   0.221770 0.453106 0.163581 0.550034
C76   C     C_R   0.778278 0.452711 0.836449 0.561046
C77   C     C_R   0.558289 0.181919 0.135651 0.601200
C78   C     C_R   0.442324 0.181493 0.864470 0.603851
C79   C     C_R   0.058289 0.681919 0.135651 0.601200
C80   C     C_R   0.942324 0.681493 0.864470 0.603851
C81   C     C_R   0.736132 0.361502 0.164728 0.567865
C82   C     C_R   0.263885 0.360698 0.835372 0.560639
C83   C     C_R   0.236132 0.861502 0.164728 0.567865
C84   C     C_R   0.763885 0.860699 0.835372 0.560639
C85   C     C_1   0.486807 0.171815 0.595262 0.021211
C86   C     C_1   0.515118 0.171431 0.405771 0.009871
C87   C     C_1   0.986806 0.671815 0.595262 0.021211
C88   C     C_1   0.015118 0.671431 0.405771 0.009871
C89   C     C_1   0.505531 0.167725 0.465377 -0.025668
C90   C     C_1   0.497271 0.167819 0.535939 -0.014574
C91   C     C_1   0.005531 0.667725 0.465377 -0.025668
C92   C     C_1   0.997271 0.667819 0.535939 -0.014574
C93   C     C_3   0.703761 0.477025 0.516504 -0.113905
C94   C     C_3   0.286603 0.347179 0.474368 -0.140257
C95   C     C_3   0.203761 0.977025 0.516504 -0.113905
C96   C     C_3   0.786603 0.847179 0.474368 -0.140257
Cr1   Cr    Cr6+3 0.765830 0.160660 0.268180 1.069631
Cr2   Cr    Cr6+3 0.234170 0.160660 0.731820 1.053370
Cr3   Cr    Cr6+3 0.265830 0.660660 0.268180 1.069631
Cr4   Cr    Cr6+3 0.734170 0.660660 0.731820 1.053370
Cr5   Cr    Cr6+3 0.612110 0.009150 0.248770 1.103864
Cr6   Cr    Cr6+3 0.387890 0.009150 0.751230 1.097145
Cr7   Cr    Cr6+3 0.112110 0.509150 0.248770 1.103864
Cr8   Cr    Cr6+3 0.887890 0.509150 0.751230 1.097145
Cr9   Cr    Cr6+3 0.615930 0.324050 0.248450 1.084567
Cr10  Cr    Cr6+3 0.384070 0.324050 0.751550 1.075555
Cr11  Cr    Cr6+3 0.115930 0.824050 0.248450 1.084567
Cr12  Cr    Cr6+3 0.884070 0.824050 0.751550 1.075555
H1    H     H_    0.679014 0.273021 0.483066 0.115322
H2    H     H_    0.213695 0.219683 0.532893 0.146584
H3    H     H_    0.179014 0.773022 0.483066 0.115322
H4    H     H_    0.713695 0.719682 0.532893 0.146584
H5    H     H_    0.655791 0.508960 0.534993 0.156271
H6    H     H_    0.321089 0.286719 0.449067 0.157005
H7    H     H_    0.155791 0.008961 0.534993 0.156270
H8    H     H_    0.821089 0.786719 0.449067 0.157005
H9    H     H_    0.347366 0.105808 0.508642 0.109830
H10   H     H_    0.775182 0.131176 0.468139 0.135812
H11   H     H_    0.847366 0.605808 0.508642 0.109830
H12   H     H_    0.275182 0.631176 0.468140 0.135812
H13   H     H_    0.870076 0.369790 0.456386 0.152449
H14   H     H_    0.169302 0.569181 0.554683 0.123341
H15   H     H_    0.370076 0.869790 0.456387 0.152449
H16   H     H_    0.669302 0.069181 0.554683 0.123341
H17   H     H_    0.808818 0.265103 0.566857 0.186400
H18   H     H_    0.125144 0.383005 0.457170 0.174126
H19   H     H_    0.308817 0.765103 0.566857 0.186401
H20   H     H_    0.625144 0.883004 0.457170 0.174127
H21   H     H_    0.538882 0.355868 0.943040 0.183719
H22   H     H_    0.461008 0.355969 0.055502 0.183936
H23   H     H_    0.038882 0.855868 0.943040 0.183719
H24   H     H_    0.961008 0.855969 0.055502 0.183936
O1    O     O_R   0.783230 0.287800 0.346510 -0.525605
O2    O     O_R   0.216770 0.287800 0.653490 -0.530610
O3    O     O_R   0.283230 0.787800 0.346510 -0.525605
O4    O     O_R   0.716770 0.787800 0.653490 -0.530610
O5    O     O_R   0.554500 0.081650 0.170370 -0.442719
O6    O     O_R   0.445500 0.081650 0.829630 -0.445048
O7    O     O_R   0.054500 0.581650 0.170370 -0.442719
O8    O     O_R   0.945500 0.581650 0.829630 -0.445048
O9    O     O_R   0.545430 0.285140 0.163100 -0.510707
O10   O     O_R   0.454570 0.285140 0.836900 -0.511992
O11   O     O_R   0.045430 0.785140 0.163100 -0.510707
O12   O     O_R   0.954570 0.785140 0.836900 -0.511992
O13   O     O_R   0.677850 0.374730 0.185500 -0.504973
O14   O     O_R   0.322150 0.374730 0.814500 -0.504499
O15   O     O_R   0.177850 0.874730 0.185500 -0.504973
O16   O     O_R   0.822150 0.874730 0.814500 -0.504499
O17   O     O_3   0.664630 0.164620 0.255130 -0.305888
O18   O     O_3   0.335370 0.164620 0.744870 -0.316165
O19   O     O_3   0.164630 0.664620 0.255130 -0.305889
O20   O     O_3   0.835370 0.664620 0.744870 -0.316165
O21   O     O_R   0.760130 0.037060 0.338610 -0.508212
O22   O     O_R   0.239870 0.037060 0.661390 -0.504723
O23   O     O_R   0.260130 0.537060 0.338610 -0.508212
O24   O     O_R   0.739870 0.537060 0.661390 -0.504723
O25   O     O_R   0.666620 0.921370 0.332440 -0.505614
O26   O     O_R   0.333380 0.921370 0.667560 -0.497949
O27   O     O_R   0.166620 0.421370 0.332440 -0.505614
O28   O     O_R   0.833380 0.421370 0.667560 -0.497949
O29   O     O_R   0.557170 0.082420 0.312350 -0.495101
O30   O     O_R   0.442830 0.082420 0.687650 -0.513069
O31   O     O_R   0.057170 0.582420 0.312350 -0.495101
O32   O     O_R   0.942830 0.582420 0.687650 -0.513069
O33   O     O_R   0.548310 0.285980 0.316250 -0.488326
O34   O     O_R   0.451690 0.285980 0.683750 -0.478945
O35   O     O_R   0.048310 0.785980 0.316250 -0.488326
O36   O     O_R   0.951690 0.785980 0.683750 -0.478945
O37   O     O_R   0.680520 0.375500 0.327470 -0.481989
O38   O     O_R   0.319480 0.375500 0.672530 -0.478372
O39   O     O_R   0.180520 0.875500 0.327470 -0.481989
O40   O     O_R   0.819480 0.875500 0.672530 -0.478372
O41   O     O_R   0.780350 0.286970 0.193350 -0.477251
O42   O     O_R   0.219650 0.286970 0.806650 -0.481078
O43   O     O_R   0.280350 0.786970 0.193350 -0.477251
O44   O     O_R   0.719650 0.786970 0.806650 -0.481078
O45   O     O_R   0.757460 0.036290 0.196640 -0.491027
O46   O     O_R   0.242540 0.036290 0.803360 -0.487746
O47   O     O_R   0.257460 0.536290 0.196640 -0.491027
O48   O     O_R   0.742540 0.536290 0.803360 -0.487746
O49   O     O_R   0.663740 0.920540 0.179290 -0.488230
O50   O     O_R   0.336260 0.920540 0.820710 -0.479577
O51   O     O_R   0.163740 0.420540 0.179290 -0.488230
O52   O     O_R   0.836260 0.420540 0.820710 -0.479577
C97   C     C_2   0.707327 0.621648 0.401899 0.564292
O53   O     O_2   0.648354 0.656891 0.401241 -0.513170
O54   O     O_R   0.745173 0.655226 0.348959 -0.707968
H25   H     H_    0.717571 0.705597 0.311447 0.353388
C98   C     C_2   0.381539 0.480892 0.553286 0.597311
O55   O     O_2   0.428864 0.428751 0.530794 -0.521599
O56   O     O_R   0.394338 0.572256 0.603080 -0.695131
H26   H     H_    0.445034 0.586503 0.616926 0.342093
C99   C     C_2   0.207327 0.121648 0.401898 0.564292
O57   O     O_2   0.148354 0.156892 0.401241 -0.513170
O58   O     O_R   0.245174 0.155226 0.348959 -0.707968
H27   H     H_    0.217572 0.205597 0.311447 0.353388
C100  C     C_2   0.881539 0.980892 0.553286 0.597311
O59   O     O_2   0.928864 0.928751 0.530793 -0.521600
O60   O     O_R   0.894339 0.072254 0.603080 -0.695130
H28   H     H_    0.945035 0.086500 0.616926 0.342092
Cl1   Cl    Cl    0.658467 0.170635 0.007449 -0.654972
Cl2   Cl    Cl    0.342538 0.169057 0.992612 -0.652080
Cl3   Cl    Cl    0.158467 0.670635 0.007449 -0.654972
Cl4   Cl    Cl    0.842538 0.669057 0.992612 -0.652080
Cl5   Cl    Cl    0.451768 0.937610 0.071962 -0.473827
Cl6   Cl    Cl    0.550442 0.937739 0.929681 -0.480369
Cl7   Cl    Cl    0.951768 0.437610 0.071962 -0.473827
Cl8   Cl    Cl    0.050442 0.437739 0.929681 -0.480369

loop_
_geom_bond_atom_site_label_1
_geom_bond_atom_site_label_2
_ccdc_geom_bond_type
C58   C62   S    
C79   O7    A    
Cr2   O22   S    
C67   C83   S    
Cr10  O18   S    
C71   O3    A    
C39   Cl3   S    
C17   C29   S    
C14   C18   S    
C19   C23   S    
C35   C36   S    
C8    C96   S    
Cr1   O1    S    
C19   C31   S    
Cr6   O26   S    
C20   H10   S    
C48   O32   A    
C94   H6    S    
C38   C49   S    
Cr11  O39   S    
C10   C22   S    
C15   C19   S    
C28   C32   S    
Cr2   O18   S    
Cr9   O37   S    
Cr7   O51   S    
C33   C42   S    
C72   O40   A    
C16   C20   S    
C77   O5    A    
C38   C42   S    
C83   O43   A    
C36   H24   S    
C35   H23   S    
C15   C95   S    
Cr2   O42   S    
C11   C71   S    
C97   O54   S    
C43   C79   S    
C24   H16   S    
C7    C27   S    
C100  O60   S    
C75   O51   A    
Cr6   O6    S    
Cr5   O17   S    
C98   O56   S    
C25   H17   S    
C7    C11   S    
C9    C13   S    
C59   C67   T    
Cr12  O20   S    
C14   C98   S    
C11   C15   S    
C58   C66   T    
C79   O11   A    
C97   O53   D    
C20   C24   S    
C95   H7    S    
C6    C94   S    
C55   C63   T    
Cr4   O44   S    
C69   O1    A    
C56   C64   T    
Cr10  O10   S    
C18   C30   S    
C80   O12   A    
C23   C27   S    
Cr2   O46   S    
C75   O47   A    
C73   O49   A    
C4    C29   S    
C99   O57   D    
Cr7   O19   S    
C46   C85   S    
C47   O31   A    
C44   C52   S    
C39   C52   S    
Cr12  O36   S    
Cr5   O25   S    
O60   H28   S    
C2    O22   A    
C52   Cl8   S    
C87   C92   T    
C3    O27   A    
C6    H2    S    
C98   O55   D    
C34   C41   S    
C53   C61   T    
Cr8   O28   S    
C12   C16   S    
C78   O6    A    
C45   O29   A    
C41   C49   S    
C96   H8    S    
C82   O14   A    
C22   H14   S    
Cr11  O19   S    
C84   O16   A    
C25   C29   S    
Cr11  O35   S    
C16   C96   S    
C46   O30   A    
Cr1   O41   S    
Cr10  O38   S    
C27   C31   S    
C51   C52   S    
Cr6   O50   S    
C21   H13   S    
C40   Cl4   S    
C36   C40   S    
C13   C97   S    
C10   C14   S    
C57   C65   T    
C91   C92   S    
C29   C93   S    
C34   C38   S    
C23   H15   S    
O58   H27   S    
C54   C62   T    
C99   O58   S    
Cr11  O15   S    
C80   O8    A    
C78   O10   A    
Cr3   O19   S    
C1    C32   S    
Cr4   O20   S    
C27   H19   S    
Cr3   O23   S    
Cr7   O31   S    
C68   C84   S    
Cr3   O47   S    
C3    C30   S    
C35   C39   S    
Cr5   O29   S    
C5    C9    S    
C7    C95   S    
Cr7   O7    S    
C66   C82   S    
C47   O35   A    
Cr1   O45   S    
C74   O46   A    
C88   C91   T    
C44   C80   S    
C8    C12   S    
Cr9   O13   S    
C37   Cl1   S    
C33   C34   S    
C48   C87   S    
Cr3   O3    S    
C69   O37   A    
C1    O21   A    
C35   C44   S    
C60   C68   T    
Cr6   O18   S    
C83   O15   A    
C50   Cl6   S    
Cr8   O52   S    
C42   C50   S    
C42   C78   S    
Cr1   O21   S    
Cr12  O40   S    
C22   C26   S    
C8    C28   S    
C71   O39   A    
C53   C76   S    
C3    O23   A    
Cr11  O11   S    
Cr4   O48   S    
C10   C70   S    
Cr12  O12   S    
C19   H9    S    
Cr5   O49   S    
Cr6   O30   S    
Cr7   O27   S    
C33   C37   S    
C20   C32   S    
C33   H21   S    
O56   H26   S    
C21   C25   S    
Cr5   O5    S    
C56   C73   S    
C46   O34   A    
C4    O24   A    
C18   C22   S    
Cr10  O34   S    
C59   C63   S    
Cr1   O17   S    
Cr8   O20   S    
C24   C28   S    
C49   Cl5   S    
C76   O48   A    
C86   C89   T    
C4    O28   A    
Cr2   O2    S    
C5    C25   S    
C5    C93   S    
C85   C90   T    
C57   C61   S    
C74   O50   A    
C7    H3    S    
C40   C51   S    
Cr9   O17   S    
C12   C24   S    
C81   O13   A    
Cr10  O14   S    
C13   C17   S    
C60   C64   S    
C47   C88   S    
C9    C69   S    
C1    O25   A    
C45   C86   S    
C70   O38   A    
C82   O42   A    
C73   O45   A    
O54   H25   S    
C32   C96   S    
C76   O52   A    
C28   H20   S    
C41   C77   S    
C37   C50   S    
C9    C21   S    
Cr8   O32   S    
C6    C26   S    
C5    H1    S    
C43   C51   S    
C31   C95   S    
C11   C23   S    
C8    H4    S    
Cr9   O33   S    
C93   H5    S    
C51   Cl7   S    
C37   C41   S    
C100  O59   D    
C12   C72   S    
Cr9   O9    S    
C77   O9    A    
C72   O4    A    
C6    C10   S    
C17   H11   S    
C54   C75   S    
C15   C99   S    
Cr8   O8    S    
C40   C44   S    
Cr3   O43   S    
C2    O26   A    
C34   H22   S    
C30   C94   S    
C49   C50   S    
C38   Cl2   S    
C39   C43   S    
C13   C93   S    
C70   O2    A    
C26   H18   S    
C65   C81   S    
C2    C31   S    
C36   C43   S    
C89   C90   S    
C84   O44   A    
Cr4   O24   S    
C45   O33   A    
C48   O36   A    
C14   C94   S    
C55   C74   S    
C16   C100  S    
Cr4   O4    S    
C81   O41   A    
C18   H12   S    
Cr12  O16   S    
C26   C30   S    
C17   C21   S    
