data_mof_unit_44701.cif
_audit_creation_date              2012-12-11T14:15:06-0500
_audit_creation_method            fapswitch 2.2
_symmetry_space_group_name_H-M    P1
_symmetry_Int_Tables_number       1
_space_group_crystal_system       triclinic
_cell_length_a                    24.463131
_cell_length_b                    17.273647
_cell_length_c                    15.548861
_cell_angle_alpha                 89.821836
_cell_angle_beta                  128.560079
_cell_angle_gamma                 89.962663
_cell_volume                      5137.73767696

loop_
_atom_site_label
_atom_site_type_symbol
_atom_type_description
_atom_site_fract_x
_atom_site_fract_y
_atom_site_fract_z
_atom_type_partial_charge
C1    C     C_R   0.333323 0.393281 0.201872 -0.171884
C2    C     C_R   0.680323 0.617271 0.493510 0.026359
C3    C     C_3   0.421692 0.191236 0.848357 -1.056412
C4    C     C_3   0.658481 0.669941 0.208944 0.185094
C5    C     C_3   0.631848 0.751986 0.202598 -0.327309
C6    C     C_3   0.615617 0.796449 0.104085 -1.016645
C7    C     C_3   0.349384 0.790833 0.703614 0.199853
C8    C     C_3   0.332078 0.838426 0.605518 -0.327178
C9    C     C_3   0.335726 0.925156 0.627108 -0.985140
C10   C     C_3   0.140246 0.151122 0.208557 0.150778
C11   C     C_3   0.063906 0.168264 0.111519 -0.236163
C12   C     C_3   0.043899 0.132606 0.005888 -1.057319
C13   C     C_R   0.822985 0.125985 0.508888 0.033248
C14   C     C_3   0.854514 0.279301 0.702759 0.179507
C15   C     C_3   0.858022 0.313844 0.615140 -0.327024
C16   C     C_3   0.870603 0.400986 0.630246 -0.961715
C17   C     C_R   0.178927 0.118628 0.491242 0.052272
C18   C     C_R   0.380033 0.677358 0.199439 0.140603
C19   C     C_R   0.644615 0.626629 0.861123 0.143213
C20   C     C_R   0.879950 0.176775 0.198303 0.139397
C21   C     C_R   0.116538 0.182064 0.789363 0.135429
C22   C     C_2   0.732779 0.650258 0.402824 0.634760
C23   C     C_2   0.280517 0.683385 0.602075 0.610925
C24   C     C_2   0.223117 0.164474 0.394304 0.588822
C25   C     C_R   0.667255 0.394736 0.799211 -0.169996
C26   C     C_2   0.778293 0.177654 0.602087 0.618943
C27   C     C_2   0.739435 0.629355 0.492654 -0.284797
C28   C     C_2   0.269749 0.641425 0.520007 -0.333997
C29   C     C_2   0.234367 0.128871 0.481412 -0.347664
C30   C     C_2   0.767400 0.138179 0.518016 -0.332983
C31   C     C_2   0.281531 0.205484 0.410486 -0.272114
C32   C     C_2   0.718656 0.204579 0.596046 -0.287032
C33   C     C_2   0.788280 0.700854 0.420321 -0.332508
C34   C     C_2   0.220389 0.706296 0.597085 -0.289125
C35   C     C_2   0.324636 0.247714 0.501521 -0.205594
C36   C     C_R   0.839006 0.878298 0.215964 -0.162909
C37   C     C_2   0.662925 0.236111 0.502298 -0.254069
C38   C     C_2   0.820819 0.752494 0.502426 -0.249416
C39   C     C_2   0.163910 0.736721 0.503295 -0.251237
C40   C     C_2   0.695917 0.342292 0.975014 -0.220402
C41   C     C_2   0.305649 0.341736 0.026187 -0.222152
C42   C     C_2   0.195148 0.843403 0.975478 -0.225224
C43   C     C_2   0.832991 0.777109 0.095530 -0.213302
C44   C     C_2   0.765094 0.343817 0.032917 -0.087715
C45   C     C_2   0.236295 0.342078 0.967417 -0.089700
C46   C     C_2   0.264314 0.843699 0.032811 -0.089340
C47   C     C_R   0.166983 0.894396 0.799223 -0.164667
C48   C     C_2   0.793117 0.729375 0.102956 -0.097866
C49   C     C_2   0.354565 0.748068 0.134009 -0.210933
C50   C     C_2   0.688624 0.659020 0.971427 -0.220955
C51   C     C_2   0.854663 0.247413 0.132762 -0.205581
C52   C     C_2   0.141413 0.253403 0.853261 -0.214323
C53   C     C_R   0.586209 0.354766 0.410524 -0.155159
C54   C     C_R   0.408225 0.359432 0.590873 -0.169799
C55   C     C_R   0.087573 0.855335 0.411017 -0.168046
C56   C     C_R   0.907930 0.860257 0.591708 -0.166823
C57   C     C_2   0.305693 0.790533 0.124802 -0.124371
C58   C     C_R   0.392008 0.609512 0.596749 -0.175746
C59   C     C_2   0.756832 0.667833 0.024080 -0.114728
C60   C     C_2   0.806669 0.290689 0.124899 -0.121802
C61   C     C_2   0.194994 0.291986 0.871813 -0.112596
C62   C     C_R   0.661284 0.357065 0.593258 -0.106642
C63   C     C_R   0.334838 0.360232 0.407698 -0.082357
C64   C     C_R   0.161395 0.857219 0.593616 -0.097372
C65   C     C_R   0.832743 0.861912 0.408720 -0.106055
C66   C     C_R   0.579063 0.392565 0.804620 0.225677
C67   C     C_R   0.421565 0.392966 0.196142 0.219699
C68   C     C_R   0.078510 0.893097 0.804239 0.225560
C69   C     C_R   0.611743 0.602449 0.405195 -0.216614
C70   C     C_R   0.926702 0.878823 0.208562 0.220957
C71   C     C_R   0.352163 0.372000 0.138514 0.062899
C72   C     C_R   0.648880 0.373232 0.862940 0.062328
C73   C     C_R   0.863733 0.844144 0.166806 0.052739
C74   C     C_R   0.148242 0.873183 0.862734 0.060285
C75   C     C_R   0.636200 0.311573 0.502846 0.166144
C76   C     C_R   0.356445 0.317876 0.499528 0.151462
C77   C     C_R   0.136957 0.811992 0.503456 0.164755
C78   C     C_R   0.854750 0.819949 0.500589 0.174454
C79   C     C_R   0.315516 0.610900 0.414234 0.503164
C80   C     C_R   0.890415 0.106653 0.595894 -0.202698
C81   C     C_R   0.685728 0.606161 0.587040 0.514100
C82   C     C_R   0.814685 0.108960 0.413700 0.507597
C83   C     C_R   0.186676 0.103429 0.586953 0.476044
C84   C     C_R   0.440930 0.639281 0.238267 -0.154281
C85   C     C_R   0.573913 0.612478 0.797394 -0.124768
C86   C     C_R   0.940678 0.138462 0.237012 -0.152151
C87   C     C_R   0.057884 0.141462 0.757162 -0.167257
C88   C     C_R   0.666697 0.601440 0.802968 -0.146090
C89   C     C_R   0.346610 0.634775 0.230514 -0.135578
C90   C     C_R   0.149696 0.139584 0.757660 -0.116027
C91   C     C_R   0.110712 0.102671 0.404223 -0.158118
C92   C     C_R   0.846689 0.134775 0.230211 -0.134202
C93   C     C_3   0.544405 0.393552 0.858884 -0.393418
C94   C     C_3   0.496622 0.462132 0.830719 -0.903804
C95   C     C_3   0.454403 0.401968 0.139708 -0.418082
C96   C     C_3   0.501019 0.472371 0.173920 -0.868332
C97   C     C_3   0.045446 0.902315 0.860180 -0.406688
C98   C     C_3   0.000021 0.974024 0.826258 -0.909971
C99   C     C_3   0.951406 0.887870 0.140602 -0.404088
C100  C     C_3   0.991784 0.962268 0.162569 -0.899781
C101  C     C_3   0.224487 0.675571 0.259314 0.169422
C102  C     C_R   0.324765 0.629683 0.509814 0.041227
C103  C     C_3   0.173885 0.712422 0.273658 -0.314899
C104  C     C_3   0.129917 0.775869 0.188034 -1.029166
C105  C     C_3   0.761039 0.672881 0.747067 0.154955
C106  C     C_3   0.797005 0.731784 0.723744 -0.336916
C107  C     C_3   0.822466 0.801917 0.799257 -0.995313
C108  C     C_3   0.722597 0.171219 0.256837 0.166669
C109  C     C_3   0.670133 0.206310 0.268305 -0.321486
C110  C     C_3   0.624175 0.267336 0.179556 -1.008076
C111  C     C_3   0.294907 0.151352 0.732958 0.151030
C112  C     C_3   0.370468 0.123593 0.796582 -0.235393
H1    H     H_    0.281018 0.396358 0.176426 0.110077
H2    H     H_    0.731359 0.221332 0.673798 0.147893
H3    H     H_    0.417968 0.222598 0.906821 0.270269
H4    H     H_    0.615759 0.638984 0.133247 0.131446
H5    H     H_    0.702584 0.669258 0.205963 0.084878
H6    H     H_    0.583615 0.748040 0.194931 0.203105
H7    H     H_    0.671314 0.784924 0.278374 0.207116
H8    H     H_    0.663722 0.802837 0.111884 0.259193
H9    H     H_    0.595632 0.855040 0.100669 0.278475
H10   H     H_    0.575206 0.765707 0.026399 0.264653
H11   H     H_    0.403546 0.805362 0.776606 0.128820
H12   H     H_    0.315760 0.808062 0.725517 0.085041
H13   H     H_    0.795997 0.704628 0.358998 0.147611
H14   H     H_    0.369712 0.823461 0.590570 0.206218
H15   H     H_    0.278562 0.824908 0.530034 0.196356
H16   H     H_    0.297165 0.941433 0.639598 0.287963
H17   H     H_    0.323328 0.958011 0.555346 0.267012
H18   H     H_    0.389013 0.941320 0.701099 0.259352
H19   H     H_    0.147663 0.087069 0.219269 0.092985
H20   H     H_    0.173502 0.175320 0.188992 0.100610
H21   H     H_    0.029470 0.144119 0.128657 0.188209
H22   H     H_    0.055534 0.231934 0.100168 0.203823
H23   H     H_    0.076008 0.157672 0.984717 0.267413
H24   H     H_    0.232318 0.721677 0.674681 0.144215
H25   H     H_    0.987878 0.144323 0.937154 0.291027
H26   H     H_    0.052362 0.069063 0.016809 0.276426
H27   H     H_    0.904972 0.291125 0.784971 0.130700
H28   H     H_    0.813794 0.309034 0.701704 0.093501
H29   H     H_    0.901089 0.285623 0.620980 0.209722
H30   H     H_    0.808116 0.303257 0.531698 0.193215
H31   H     H_    0.827326 0.430422 0.622574 0.275811
H32   H     H_    0.872895 0.424267 0.565913 0.269896
H33   H     H_    0.920907 0.413627 0.712256 0.261410
H34   H     H_    0.328417 0.238531 0.574122 0.128840
H35   H     H_    0.647077 0.217495 0.423534 0.132636
H36   H     H_    0.816477 0.751657 0.567185 0.132897
H37   H     H_    0.148591 0.718530 0.424688 0.131916
H38   H     H_    0.287815 0.776278 0.171604 0.119828
H39   H     H_    0.782644 0.642415 0.994227 0.121640
H40   H     H_    0.789323 0.276957 0.172641 0.121073
H41   H     H_    0.719486 0.398839 0.824551 0.105668
H42   H     H_    0.216053 0.276328 0.830012 0.118441
H43   H     H_    0.789491 0.372864 0.002712 0.126559
H44   H     H_    0.211315 0.369077 0.997881 0.128153
H45   H     H_    0.288746 0.871579 0.001930 0.127228
H46   H     H_    0.781228 0.740457 0.158520 0.121422
H47   H     H_    0.372231 0.762188 0.086695 0.132557
H48   H     H_    0.663509 0.686774 0.001373 0.134642
H49   H     H_    0.871747 0.260900 0.084473 0.133440
H50   H     H_    0.120940 0.269103 0.896041 0.132447
H51   H     H_    0.673275 0.310382 0.006343 0.126278
H52   H     H_    0.786692 0.874047 0.189972 0.110830
H53   H     H_    0.329185 0.312523 0.994537 0.124346
H54   H     H_    0.172224 0.813134 0.007529 0.128230
H55   H     H_    0.844681 0.765029 0.039920 0.127254
H56   H     H_    0.556561 0.334921 0.327536 0.119841
H57   H     H_    0.433306 0.342640 0.673781 0.130680
H58   H     H_    0.060209 0.836127 0.328409 0.124530
H59   H     H_    0.934078 0.843283 0.675206 0.126661
H60   H     H_    0.701533 0.342478 0.678384 0.087368
H61   H     H_    0.293043 0.346690 0.322805 0.096338
H62   H     H_    0.201285 0.842588 0.678798 0.085574
H63   H     H_    0.219309 0.898420 0.824948 0.107663
H64   H     H_    0.787882 0.849677 0.325390 0.100107
H65   H     H_    0.478442 0.655625 0.226396 0.100903
H66   H     H_    0.541264 0.620194 0.821282 0.098498
H67   H     H_    0.977996 0.154054 0.224489 0.107793
H68   H     H_    0.020946 0.158006 0.770144 0.119478
H69   H     H_    0.719431 0.588630 0.835688 0.112189
H70   H     H_    0.294346 0.642131 0.200377 0.108256
H71   H     H_    0.197383 0.153273 0.772071 0.111019
H72   H     H_    0.794628 0.142723 0.200560 0.105469
H73   H     H_    0.413034 0.603749 0.681553 0.175133
H74   H     H_    0.790300 0.632565 0.572976 0.131868
H75   H     H_    0.589867 0.596849 0.320387 0.193351
H76   H     H_    0.910868 0.099482 0.680155 0.187493
H77   H     H_    0.090037 0.093121 0.320397 0.155792
H78   H     H_    0.528313 0.511996 0.883059 0.248809
H79   H     H_    0.464548 0.478479 0.743343 0.265414
H80   H     H_    0.460912 0.446950 0.849430 0.251908
H81   H     H_    0.517351 0.337865 0.843752 0.175127
H82   H     H_    0.585100 0.395090 0.949650 0.198426
H83   H     H_    0.470625 0.525861 0.155645 0.254997
H84   H     H_    0.546912 0.469629 0.261610 0.265857
H85   H     H_    0.218184 0.619010 0.454963 0.139831
H86   H     H_    0.520513 0.474229 0.125777 0.252030
H87   H     H_    0.482854 0.348382 0.150034 0.174345
H88   H     H_    0.412456 0.408316 0.049656 0.200282
H89   H     H_    0.031694 0.026567 0.846412 0.270140
H90   H     H_    0.954982 0.973602 0.738169 0.265296
H91   H     H_    0.979101 0.975621 0.872318 0.254182
H92   H     H_    0.016281 0.849317 0.849305 0.178220
H93   H     H_    0.087161 0.907456 0.950403 0.199346
H94   H     H_    0.958547 0.013258 0.144335 0.261187
H95   H     H_    0.040398 0.964724 0.248494 0.256491
H96   H     H_    0.287438 0.114840 0.552379 0.131133
H97   H     H_    0.006390 0.964716 0.107807 0.252465
H98   H     H_    0.982088 0.836491 0.150653 0.174941
H99   H     H_    0.904769 0.889180 0.052174 0.201613
H100  H     H_    0.194907 0.665565 0.169839 0.138513
H101  H     H_    0.266550 0.718253 0.285757 0.052771
H102  H     H_    0.138601 0.667713 0.266425 0.214570
H103  H     H_    0.204793 0.740139 0.355494 0.183056
H104  H     H_    0.164204 0.820099 0.191500 0.265705
H105  H     H_    0.097076 0.804679 0.205130 0.271632
H106  H     H_    0.095177 0.750800 0.104111 0.267978
H107  H     H_    0.715304 0.118900 0.450315 0.136449
H108  H     H_    0.796981 0.660794 0.836878 0.131797
H109  H     H_    0.712668 0.699313 0.727113 0.091707
H110  H     H_    0.842666 0.704197 0.736667 0.210487
H111  H     H_    0.758916 0.752106 0.637394 0.186992
H112  H     H_    0.777994 0.830542 0.788881 0.269865
H113  H     H_    0.846814 0.844186 0.778359 0.273560
H114  H     H_    0.862152 0.784031 0.886538 0.257318
H115  H     H_    0.694124 0.160294 0.167847 0.139678
H116  H     H_    0.763708 0.215298 0.283280 0.053008
H117  H     H_    0.636225 0.160332 0.262471 0.215308
H118  H     H_    0.278043 0.217284 0.338697 0.127525
H119  H     H_    0.699672 0.235750 0.348857 0.184110
H120  H     H_    0.656995 0.313061 0.181865 0.267435
H121  H     H_    0.589635 0.294671 0.194266 0.269393
H122  H     H_    0.591020 0.240340 0.096793 0.266762
H123  H     H_    0.291117 0.181568 0.791850 0.099988
H124  H     H_    0.282915 0.195402 0.670849 0.084383
H125  H     H_    0.383649 0.082879 0.862638 0.203825
H126  H     H_    0.376315 0.092119 0.740575 0.196166
H127  H     H_    0.410448 0.232101 0.783768 0.262521
H128  H     H_    0.475904 0.169092 0.894017 0.272800
N1    N     N_R   0.389060 0.424180 0.294540 -0.056153
N2    N     N_R   0.374530 0.423490 0.443400 -0.044852
N3    N     N_R   0.125470 0.923490 0.556600 -0.041788
N4    N     N_R   0.874530 0.923490 0.443400 -0.041781
N5    N     N_R   0.555250 0.423100 0.705420 -0.054321
N6    N     N_R   0.444750 0.423100 0.294580 -0.051662
N7    N     N_R   0.055250 0.923100 0.705420 -0.051331
N8    N     N_R   0.944750 0.923100 0.294580 -0.048584
N9    N     N_R   0.375210 0.577180 0.443400 -0.093324
N10   N     N_R   0.624790 0.577180 0.556600 -0.094270
N11   N     N_R   0.875210 0.077180 0.443400 -0.091607
N12   N     N_R   0.610940 0.424180 0.705460 -0.054697
N13   N     N_R   0.124790 0.077180 0.556600 -0.087261
N14   N     N_R   0.445430 0.577570 0.294580 -0.037389
N15   N     N_R   0.554570 0.577570 0.705420 -0.040602
N16   N     N_R   0.945430 0.077570 0.294580 -0.040987
N17   N     N_R   0.054570 0.077570 0.705420 -0.036933
N18   N     N_R   0.611620 0.576500 0.705460 -0.046876
N19   N     N_R   0.388380 0.576500 0.294540 -0.040853
N20   N     N_R   0.111620 0.076500 0.705460 -0.038684
N21   N     N_R   0.888380 0.076500 0.294540 -0.040979
N22   N     N_R   0.421010 0.576890 0.556640 -0.087836
N23   N     N_R   0.889060 0.924180 0.294540 -0.053081
N24   N     N_R   0.578990 0.576890 0.443360 -0.079028
N25   N     N_R   0.921010 0.076890 0.556640 -0.080929
N26   N     N_R   0.078990 0.076890 0.443360 -0.083317
N27   N     N_R   0.110940 0.924180 0.705460 -0.055655
N28   N     N_R   0.579670 0.423790 0.443360 -0.045331
N29   N     N_R   0.420330 0.423790 0.556640 -0.047718
N30   N     N_R   0.079670 0.923790 0.443360 -0.047592
N31   N     N_R   0.920330 0.923790 0.556640 -0.046900
N32   N     N_R   0.625470 0.423490 0.556600 -0.043193
Ni1   Ni    Ni4+2 0.383200 0.500680 0.370150 0.241761
Ni2   Ni    Ni4+2 0.616800 0.500680 0.629850 0.231437
Ni3   Ni    Ni4+2 0.883200 0.000680 0.370150 0.247007
Ni4   Ni    Ni4+2 0.116800 0.000680 0.629850 0.244878
Ni5   Ni    Ni4+2 0.512440 0.500680 0.370150 0.205165
Ni6   Ni    Ni4+2 0.487560 0.500680 0.629850 0.203890
Ni7   Ni    Ni4+2 0.012440 0.000680 0.370150 0.198816
Ni8   Ni    Ni4+2 0.987560 0.000680 0.629850 0.203363
O1    O     O_3   0.250586 0.602248 0.312399 -0.668129
O2    O     O_3   0.748312 0.601452 0.692478 -0.676253
O3    O     O_3   0.750102 0.098695 0.311798 -0.667184
O4    O     O_3   0.249616 0.086353 0.688903 -0.676284
O5    O     O_3   0.672948 0.627529 0.299131 -0.679945
O6    O     O_3   0.347684 0.709926 0.686528 -0.676961
O7    O     O_3   0.156091 0.185674 0.303858 -0.654033
O8    O     O_3   0.845927 0.197815 0.692491 -0.679412

loop_
_geom_bond_atom_site_label_1
_geom_bond_atom_site_label_2
_ccdc_geom_bond_type
C43   C73   S    
C9    H17   S    
C21   C87   A    
C26   C32   S    
C93   C94   S    
C90   H71   S    
N18   Ni2   S    
N4    N31   A    
C17   C29   S    
C64   C77   A    
C98   H89   S    
C95   C96   S    
C17   C91   A    
N24   Ni5   S    
C7    H12   S    
C90   N20   A    
C61   H42   S    
C87   N17   A    
C97   C98   S    
C49   C57   D    
C7    C8    S    
C64   N3    A    
C99   H99   S    
C9    H18   S    
C96   H86   S    
C91   H77   S    
C1    C71   A    
C29   H96   S    
C5    H7    S    
C50   C59   D    
C39   C77   S    
C16   H32   S    
N11   Ni3   S    
C27   H74   S    
C20   C51   S    
C52   C61   D    
C11   H21   S    
C60   H40   S    
C5    C6    S    
C55   C77   A    
C67   N6    A    
C106  C107  S    
C68   C74   A    
C15   C16   S    
N22   Ni6   S    
C107  H114  S    
C107  H113  S    
C100  H97   S    
C54   N29   A    
C56   C78   A    
C108  C109  S    
C42   C46   D    
C96   H84   S    
N1    Ni1   S    
N7    Ni8   S    
C111  O4    S    
C68   C97   S    
N8    Ni7   S    
C83   O4    S    
N16   Ni7   S    
C93   H82   S    
C87   H68   S    
C15   H29   S    
C109  H117  S    
C46   H45   S    
C96   H83   S    
C66   C72   A    
C111  C112  S    
C14   O8    S    
C95   H88   S    
C12   H23   S    
C89   N19   A    
N4    Ni3   S    
C18   C84   A    
N1    N6    A    
C79   C102  A    
C51   H49   S    
C2    C27   S    
C58   C102  A    
C2    C81   A    
N9    N22   A    
C91   N26   A    
C43   C48   D    
C69   H75   S    
C55   H58   S    
C92   N21   A    
C110  H121  S    
C88   N18   A    
C3    H128  S    
C41   C71   S    
N8    N23   A    
N7    N27   A    
C23   C34   S    
C37   C75   S    
C13   C80   A    
N15   Ni6   S    
C101  C103  S    
N16   N21   A    
C58   N22   A    
C58   H73   S    
C67   C95   S    
C79   N9    A    
C54   H57   S    
C53   C75   A    
C1    H1    S    
C81   N10   A    
C82   O3    S    
C46   C57   S    
C6    H8    S    
C100  H95   S    
C4    H4    S    
C63   H61   S    
C69   N24   A    
C10   H20   S    
C21   C90   A    
C68   N7    A    
C35   C76   S    
C65   N4    A    
N27   Ni4   S    
C85   N15   A    
C9    H16   S    
C42   C74   S    
C25   H41   S    
C34   C39   D    
C36   N23   A    
N28   N32   A    
C82   N11   A    
C16   H31   S    
C24   C31   S    
C104  H104  S    
C40   H51   S    
C19   C88   A    
C92   H72   S    
C11   H22   S    
C101  H101  S    
C45   H44   S    
C100  H94   S    
C32   H2    S    
C8    C9    S    
C12   H26   S    
C38   C78   S    
C50   H48   S    
N2    N29   A    
C13   C30   S    
C63   N2    A    
C48   H46   S    
N28   Ni5   S    
C80   N25   A    
C20   C86   A    
C16   H33   S    
C17   C83   A    
C35   H34   S    
N30   Ni7   S    
N6    Ni5   S    
C94   H78   S    
C26   O8    S    
C22   O5    S    
C15   H30   S    
C20   C92   A    
C98   H91   S    
C53   H56   S    
C111  H123  S    
C106  H111  S    
C34   H24   S    
C3    C112  S    
C105  H108  S    
C104  H106  S    
C57   H38   S    
C47   C74   A    
C70   C73   A    
C33   H13   S    
C105  O2    S    
C80   H76   S    
C25   C72   A    
N15   N18   A    
C32   C37   D    
C37   H35   S    
C24   C29   D    
C103  H102  S    
N10   N24   A    
N5    Ni6   S    
C108  O3    S    
C110  H120  S    
C66   C93   S    
C54   C76   A    
C1    N1    A    
C8    H14   S    
N31   Ni8   S    
N5    N12   A    
C83   N13   A    
C14   H28   S    
C112  H126  S    
C22   C27   D    
C65   H64   S    
C84   N14   A    
N13   N26   A    
N9    Ni1   S    
C4    H5    S    
C23   C28   D    
C6    H10   S    
C97   H92   S    
C64   H62   S    
C2    C69   A    
C103  H103  S    
C62   H60   S    
C70   C99   S    
C48   C59   S    
C66   N5    A    
C107  H112  S    
C47   N27   A    
C22   C33   S    
N11   N25   A    
C65   C78   A    
C40   C72   S    
C62   N32   A    
C12   H25   S    
C18   C89   A    
C55   N30   A    
C10   O7    S    
C98   H90   S    
C93   H81   S    
C81   O2    S    
C10   H19   S    
N2    Ni1   S    
C7    H11   S    
C4    C5    S    
C19   C85   A    
N13   Ni4   S    
C101  H100  S    
N17   N20   A    
C11   C12   S    
N25   Ni8   S    
C26   C30   D    
N21   Ni3   S    
C108  H115  S    
C59   H39   S    
N26   Ni7   S    
C79   O1    S    
C53   N28   A    
C108  H116  S    
C105  C106  S    
C39   H37   S    
N23   Ni3   S    
C4    O5    S    
C99   C100  S    
C101  O1    S    
C5    H6    S    
C94   H79   S    
C8    H15   S    
C10   C11   S    
C89   H70   S    
C44   H43   S    
C86   N16   A    
C85   H66   S    
N3    N30   A    
C56   H59   S    
C7    O6    S    
C3    H3    S    
C109  C110  S    
C28   H85   S    
C43   H55   S    
C109  H119  S    
C19   C50   S    
C88   H69   S    
C106  H110  S    
C31   H118  S    
N14   N19   A    
C44   C60   S    
C105  H109  S    
C13   C82   A    
C31   C35   D    
C45   C61   S    
C86   H67   S    
C25   N12   A    
C70   N8    A    
N29   Ni6   S    
N19   Ni1   S    
C67   C71   A    
N10   Ni2   S    
C84   H65   S    
C62   C75   A    
C94   H80   S    
C104  H105  S    
C24   O7    S    
C111  H124  S    
C36   C73   A    
C38   H36   S    
N20   Ni4   S    
C23   O6    S    
C28   C102  S    
C40   C44   D    
C41   H53   S    
C14   H27   S    
N17   Ni8   S    
N32   Ni2   S    
C112  H125  S    
C63   C76   A    
C52   H50   S    
C103  C104  S    
C36   H52   S    
C41   C45   D    
C14   C15   S    
C49   H47   S    
C33   C38   D    
C51   C60   D    
C6    H9    S    
C97   H93   S    
C95   H87   S    
C56   N31   A    
N12   Ni2   S    
N3    Ni4   S    
N14   Ni5   S    
C21   C52   S    
C47   H63   S    
C110  H122  S    
C18   C49   S    
C3    H127  S    
C42   H54   S    
C30   H107  S    
C99   H98   S    
