data_mof_unit_42254.cif
_audit_creation_date              2012-12-10T17:40:56-0500
_audit_creation_method            fapswitch 2.2
_symmetry_space_group_name_H-M    P1
_symmetry_Int_Tables_number       1
_space_group_crystal_system       triclinic
_cell_length_a                    14.786405
_cell_length_b                    15.330636
_cell_length_c                    9.955442
_cell_angle_alpha                 89.237902
_cell_angle_beta                  91.483705
_cell_angle_gamma                 90.358187
_cell_volume                      2255.75372382

loop_
_atom_site_label
_atom_site_type_symbol
_atom_type_description
_atom_site_fract_x
_atom_site_fract_y
_atom_site_fract_z
_atom_type_partial_charge
C1    C     C_R   0.381718 0.879138 0.499691 0.854344
C2    C     C_R   0.385277 0.123938 0.498638 0.847569
C3    C     C_R   0.880746 0.380215 0.499736 0.859203
C4    C     C_R   0.881693 0.620942 0.498497 0.833207
C5    C     C_R   0.268014 0.207198 0.387541 -0.213547
C6    C     C_R   0.234536 0.826001 0.442544 -0.209417
C7    C     C_R   0.736450 0.677373 0.432982 -0.224049
C8    C     C_R   0.838160 0.230477 0.498745 -0.191339
C9    C     C_R   0.671441 0.740478 0.437781 -0.201130
C10   C     C_R   0.773420 0.166226 0.499484 -0.204622
C11   C     C_R   0.199085 0.265488 0.393528 -0.208328
C12   C     C_R   0.169915 0.761815 0.443830 -0.200303
C13   C     C_R   0.690830 0.818368 0.503208 -0.091236
C14   C     C_R   0.682607 0.189222 0.499150 -0.073351
C15   C     C_R   0.185911 0.311281 0.511651 -0.122054
C16   C     C_R   0.191033 0.680884 0.500641 -0.090523
C17   C     C_R   0.335223 0.001305 0.133988 -0.185514
C18   C     C_R   0.834928 0.498584 0.133750 -0.165373
C19   C     C_R   0.253321 0.002032 0.061434 0.023867
C20   C     C_R   0.753108 0.497588 0.060681 0.023526
C21   C     C_R   0.253147 0.001331 0.922027 -0.223543
C22   C     C_R   0.753236 0.496563 0.921342 -0.229694
C23   C     C_R   0.334457 0.000160 0.854770 -0.120344
C24   C     C_R   0.834618 0.497040 0.854489 -0.122876
C25   C     C_R   0.418541 0.000303 0.924825 0.093526
C26   C     C_R   0.918567 0.498107 0.924790 0.099257
C27   C     C_R   0.418720 0.000571 0.069138 0.122968
C28   C     C_R   0.918648 0.498542 0.069129 0.121738
C29   C     C_R   0.577543 0.999604 0.075795 -0.086630
C30   C     C_R   0.077500 0.503286 0.075699 -0.095933
C31   C     C_R   0.619251 0.120107 0.500103 0.843649
C32   C     C_R   0.621079 0.881534 0.501385 0.842849
C33   C     C_R   0.121048 0.618240 0.500389 0.850912
C34   C     C_R   0.118963 0.378622 0.503204 0.863085
C35   C     C_R   0.578354 0.999691 0.933797 0.455963
C36   C     C_R   0.078282 0.503996 0.933690 0.432749
C37   C     C_R   0.392838 0.254989 0.711401 -0.163563
C38   C     C_R   0.431550 0.708608 0.606227 -0.175310
C39   C     C_R   0.930619 0.788307 0.612709 -0.174926
C40   C     C_R   0.693744 0.430714 0.503069 -0.209907
C41   C     C_R   0.378451 0.294556 0.833744 -0.156853
C42   C     C_R   0.452843 0.625663 0.656539 -0.150351
C43   C     C_R   0.951375 0.868973 0.669191 -0.135378
C44   C     C_R   0.602373 0.452894 0.498377 -0.120168
C45   C     C_R   0.886086 0.933894 0.670666 -0.108557
C46   C     C_R   0.536564 0.387820 0.487776 -0.112366
C47   C     C_R   0.294021 0.328291 0.859381 -0.119119
C48   C     C_R   0.387829 0.559578 0.653882 -0.118201
C49   C     C_R   0.799768 0.918158 0.616253 -0.159989
C50   C     C_R   0.562090 0.300409 0.485210 -0.188572
C51   C     C_R   0.226818 0.329197 0.758563 -0.167483
C52   C     C_R   0.301103 0.576467 0.601931 -0.146578
C53   C     C_R   0.777029 0.836364 0.560662 0.095660
C54   C     C_R   0.654087 0.276780 0.495008 0.097414
C55   C     C_R   0.243825 0.298572 0.627403 0.080577
C56   C     C_R   0.277857 0.660771 0.553446 0.096142
C57   C     C_R   0.323035 0.251108 0.610969 0.089643
C58   C     C_R   0.343686 0.726946 0.554122 0.097720
C59   C     C_R   0.843154 0.771153 0.557797 0.101540
C60   C     C_R   0.720287 0.342389 0.499552 0.095667
C61   C     C_R   0.328106 0.198202 0.496564 -0.118641
C62   C     C_R   0.319653 0.809121 0.499129 -0.088530
C63   C     C_R   0.820309 0.691533 0.495686 -0.081914
C64   C     C_R   0.811526 0.317188 0.499409 -0.081282
H1    H     H_    0.272576 0.167409 0.298790 0.170946
H2    H     H_    0.217782 0.889553 0.399974 0.150019
H3    H     H_    0.720656 0.616590 0.383014 0.148511
H4    H     H_    0.909079 0.212805 0.498385 0.142022
H5    H     H_    0.189807 0.001435 0.864699 0.148824
H6    H     H_    0.690027 0.496064 0.863632 0.152819
H7    H     H_    0.328485 0.998829 0.748059 0.209538
H8    H     H_    0.828758 0.497478 0.747789 0.206196
H9    H     H_    0.458846 0.227303 0.697015 0.166837
H10   H     H_    0.484488 0.757520 0.607350 0.150773
H11   H     H_    0.983989 0.740575 0.610331 0.154239
H12   H     H_    0.743199 0.482773 0.509382 0.109863
H13   H     H_    0.431544 0.295540 0.910661 0.151146
H14   H     H_    0.520281 0.612387 0.696260 0.140916
H15   H     H_    0.018637 0.881497 0.710308 0.143477
H16   H     H_    0.582745 0.520728 0.500233 0.141640
H17   H     H_    0.902601 0.996949 0.712731 0.146871
H18   H     H_    0.465671 0.405005 0.481116 0.142841
H19   H     H_    0.280235 0.353463 0.957835 0.163833
H20   H     H_    0.404796 0.494903 0.691190 0.150235
H21   H     H_    0.751937 0.970924 0.615536 0.126882
H22   H     H_    0.509815 0.251710 0.473991 0.119131
H23   H     H_    0.161215 0.348518 0.790379 0.188903
H24   H     H_    0.253260 0.522905 0.598199 0.128031
H25   H     H_    0.605468 0.728423 0.391279 0.158629
H26   H     H_    0.794089 0.098634 0.498871 0.136528
H27   H     H_    0.154393 0.272908 0.306111 0.175225
H28   H     H_    0.102903 0.775423 0.402086 0.157482
H29   H     H_    0.640886 0.999294 0.132781 0.176775
H30   H     H_    0.140815 0.505933 0.132599 0.172684
H31   H     H_    0.331384 0.001241 0.240708 0.200555
H32   H     H_    0.830867 0.500284 0.240447 0.198305
N1    N     N_R   0.498810 0.000000 0.142780 -0.156101
N2    N     N_R   0.998810 0.500000 0.142780 -0.153898
N3    N     N_R   0.498740 0.000000 0.857170 -0.181478
N4    N     N_R   0.998740 0.500000 0.857170 -0.177805
O1    O     O_R   0.408390 0.908380 0.614690 -0.632624
O2    O     O_R   0.408390 0.091620 0.614690 -0.641155
O3    O     O_R   0.908390 0.408380 0.614690 -0.633258
O4    O     O_R   0.908390 0.591620 0.614690 -0.634817
O5    O     O_R   0.408370 0.908380 0.385360 -0.623198
O6    O     O_R   0.408370 0.091620 0.385360 -0.638683
O7    O     O_R   0.908370 0.408380 0.385360 -0.628353
O8    O     O_R   0.908370 0.591620 0.385360 -0.625793
O9    O     O_R   0.591620 0.091610 0.614640 -0.642694
O10   O     O_R   0.591620 0.908390 0.614640 -0.636322
O11   O     O_R   0.091620 0.591610 0.614640 -0.629032
O12   O     O_R   0.091620 0.408390 0.614640 -0.663869
O13   O     O_R   0.591610 0.091610 0.385310 -0.606770
O14   O     O_R   0.591610 0.908390 0.385310 -0.603711
O15   O     O_R   0.091610 0.591610 0.385310 -0.603355
O16   O     O_R   0.091610 0.408390 0.385310 -0.613187
Zn1   Zn    Zn3+2 0.500010 0.000000 0.653130 0.928195
Zn2   Zn    Zn3+2 0.000010 0.500000 0.653130 0.925673
Zn3   Zn    Zn3+2 0.499980 0.000000 0.346870 0.941370
Zn4   Zn    Zn3+2 0.999980 0.500000 0.346870 0.941419
O17   O     O_3   0.661931 0.999395 0.877032 -0.774047
H33   H     H_    0.652871 0.000077 0.779457 0.382834
O18   O     O_3   0.161670 0.510370 0.876810 -0.790080
H34   H     H_    0.153524 0.502665 0.779849 0.379753
C65   C     C_1   0.169049 0.003177 0.130854 0.130314
N5    N     N_1   0.101429 0.004107 0.186789 -0.206897
C66   C     C_1   0.668381 0.498650 0.128811 0.153779
N6    N     N_1   0.600094 0.499649 0.182930 -0.202170

loop_
_geom_bond_atom_site_label_1
_geom_bond_atom_site_label_2
_ccdc_geom_bond_type
C58   C62   A    
C29   H29   S    
C40   C60   A    
O6    Zn3   S    
C34   O12   A    
O8    Zn4   S    
C13   C32   S    
C14   C31   S    
C1    C62   S    
C53   C59   A    
O9    Zn1   S    
O18   H34   S    
C54   C60   A    
C3    C64   S    
C3    O3    A    
C4    O8    A    
C4    C63   S    
C50   C54   A    
C6    H2    S    
C32   O10   A    
O11   Zn2   S    
C19   C21   A    
C24   C26   A    
C5    C11   A    
C6    C12   A    
C41   H13   S    
C2    O2    A    
C34   O16   A    
C18   H32   S    
C18   C20   A    
C9    C13   A    
O13   Zn3   S    
C11   C15   A    
C25   N3    A    
C12   C16   A    
C40   H12   S    
C40   C44   A    
C17   H31   S    
C47   H19   S    
C15   C34   S    
O4    Zn2   S    
O14   Zn3   S    
C2    C61   S    
C46   H18   S    
C35   N3    A    
O10   Zn1   S    
C44   C46   A    
C46   C50   A    
C13   C53   A    
C56   C58   A    
C41   C47   A    
C33   O15   A    
C17   C27   A    
C23   H7    S    
C44   H16   S    
C36   O18   S    
C18   C28   A    
C20   C66   S    
C5    H1    S    
C10   C14   A    
C9    H25   S    
C39   C43   A    
C3    O7    A    
C19   C65   S    
O16   Zn4   S    
C21   H5    S    
C15   C55   A    
N1    Zn3   S    
C16   C56   A    
C11   H27   S    
C16   C33   S    
N3    Zn1   S    
C35   O17   S    
C39   C59   A    
C45   C49   A    
C31   O9    A    
C5    C61   A    
C36   N4    A    
C42   C48   A    
C57   C61   A    
C43   C45   A    
C7    C63   A    
O17   H33   S    
O2    Zn1   S    
C8    C64   A    
C33   O11   A    
C14   C54   A    
C20   C22   A    
C8    H4    S    
C39   H11   S    
C21   C23   A    
C65   N5    T    
C22   C24   A    
O3    Zn2   S    
N4    Zn2   S    
C51   H23   S    
C66   N6    T    
C1    O1    A    
O7    Zn4   S    
C24   H8    S    
C42   H14   S    
C38   H10   S    
C28   N2    A    
C7    C9    A    
C37   H9    S    
C27   N1    A    
C59   C63   A    
C12   H28   S    
C45   H17   S    
C47   C51   A    
N2    Zn4   S    
C30   C36   A    
C25   C27   A    
C29   C35   A    
C30   N2    A    
C26   C28   A    
C29   N1    A    
C60   C64   A    
O1    Zn1   S    
C6    C62   A    
C55   C57   A    
C30   H30   S    
O12   Zn2   S    
C49   C53   A    
C4    O4    A    
C17   C19   A    
C2    O6    A    
C51   C55   A    
C23   C25   A    
C37   C41   A    
C52   H24   S    
C50   H22   S    
C7    H3    S    
C38   C42   A    
C48   H20   S    
C31   O13   A    
C48   C52   A    
C10   H26   S    
C8    C10   A    
O15   Zn4   S    
C26   N4    A    
O5    Zn3   S    
C49   H21   S    
C32   O14   A    
C43   H15   S    
C38   C58   A    
C22   H6    S    
C37   C57   A    
C52   C56   A    
C1    O5    A    
