data_mof_unit_35560.cif
_audit_creation_date              2012-12-11T17:41:43-0500
_audit_creation_method            fapswitch 2.2
_symmetry_space_group_name_H-M    P1
_symmetry_Int_Tables_number       1
_space_group_crystal_system       triclinic
_cell_length_a                    15.549818
_cell_length_b                    14.819236
_cell_length_c                    14.95295
_cell_angle_alpha                 109.628018
_cell_angle_beta                  121.396926
_cell_angle_gamma                 59.229335
_cell_volume                      2515.79162989

loop_
_atom_site_label
_atom_site_type_symbol
_atom_type_description
_atom_site_fract_x
_atom_site_fract_y
_atom_site_fract_z
_atom_type_partial_charge
C1    C     C_R   0.804827 0.933919 0.771404 -0.143553
C2    C     C_R   0.240186 0.408076 0.169726 0.613131
C3    C     C_R   0.737550 0.846399 0.983300 -0.255422
C4    C     C_R   0.330200 0.328732 0.149320 -0.247888
C5    C     C_R   0.720883 0.950947 0.027024 0.025545
C6    C     C_R   0.315374 0.253397 0.062065 0.048980
C7    C     C_R   0.810770 0.978488 0.080417 -0.159458
C8    C     C_R   0.208607 0.257728 0.994571 -0.190668
C9    C     C_R   0.915495 0.903417 0.088891 -0.140251
C10   C     C_R   0.119056 0.333670 0.017185 -0.146527
C11   C     C_R   0.931275 0.800777 0.041600 -0.351398
C12   C     C_R   0.249984 0.002891 0.208436 -0.114516
C13   C     C_R   0.134368 0.407543 0.104726 -0.318893
C14   C     C_R   0.608874 0.053769 0.121047 -0.240364
C15   C     C_R   0.415944 0.150498 0.948974 -0.251978
C16   C     C_R   0.198393 0.273919 0.438858 -0.141547
C17   C     C_R   0.755968 0.708985 0.508770 -0.118357
C18   C     C_R   0.508010 0.107749 0.127465 0.042540
C19   C     C_R   0.512346 0.075240 0.935778 0.060978
C20   C     C_R   0.413284 0.168342 0.045555 0.068179
C21   C     C_R   0.612147 0.030546 0.025624 0.068057
C22   C     C_2   0.021473 0.345130 0.459733 -0.224134
C23   C     C_R   0.136432 0.272996 0.479212 0.155664
C24   C     C_2   0.848140 0.601829 0.384522 -0.213675
C25   C     C_2   0.960018 0.415309 0.388939 -0.110799
C26   C     C_2   0.865119 0.508759 0.398708 -0.105520
C27   C     C_2   0.987955 0.943496 0.837712 -0.222136
C28   C     C_2   0.170371 0.867050 0.099307 -0.234207
C29   C     C_R   0.222736 0.895252 0.675669 -0.124096
C30   C     C_R   0.910747 0.255151 0.774073 -0.149739
C31   C     C_R   0.315634 0.803983 0.671791 -0.135227
C32   C     C_R   0.809054 0.329162 0.711487 -0.176988
C33   C     C_R   0.302975 0.717669 0.597311 0.104936
C34   C     C_R   0.787323 0.699724 0.433136 0.150180
C35   C     C_R   0.713704 0.362201 0.724853 0.118530
C36   C     C_R   0.195005 0.724305 0.528608 -0.170727
C37   C     C_R   0.721761 0.319609 0.801314 -0.139553
C38   C     C_R   0.102383 0.815720 0.533001 -0.094940
C39   C     C_R   0.823943 0.246470 0.864493 -0.082363
C40   C     C_R   0.594320 0.231084 0.555596 -0.140784
C41   C     C_R   0.407867 0.783022 0.513733 -0.143411
C42   C     C_R   0.116206 0.901117 0.606361 -0.094490
C43   C     C_R   0.918408 0.214925 0.851368 -0.122608
C44   C     C_R   0.405694 0.521012 0.584985 -0.190712
C45   C     C_R   0.503714 0.326393 0.553631 0.055972
C46   C     C_R   0.602497 0.538255 0.660234 -0.214394
C47   C     C_R   0.506052 0.430085 0.605053 0.054752
C48   C     C_R   0.500787 0.622601 0.614240 0.054957
C49   C     C_R   0.606152 0.442960 0.661281 0.020105
C50   C     C_R   0.403015 0.620024 0.595917 0.015885
C51   C     C_2   0.045980 0.879453 0.913956 -0.107523
C52   C     C_2   0.142781 0.890850 0.006363 -0.096377
C53   C     C_R   0.409820 0.049175 0.734283 -0.130309
C54   C     C_R   0.592629 0.018951 0.288848 -0.129023
C55   C     C_R   0.409647 0.306608 0.484335 -0.081822
C56   C     C_R   0.499144 0.701537 0.573053 0.062773
C57   C     C_R   0.590997 0.711208 0.590763 -0.126201
C58   C     C_R   0.593944 0.984016 0.804591 -0.133509
C59   C     C_R   0.409302 0.090558 0.211188 -0.144966
C60   C     C_R   0.198723 0.183470 0.531518 -0.156743
C61   C     C_R   0.756732 0.800715 0.416646 -0.152731
C62   C     C_R   0.805409 0.026103 0.682042 -0.135379
C63   C     C_R   0.249566 0.909659 0.298713 -0.159888
C64   C     C_R   0.869758 0.969816 0.769072 0.155346
C65   C     C_R   0.223064 0.922916 0.198170 0.146074
C66   C     C_3   0.936890 0.616030 0.903845 0.268165
C67   C     C_R   0.504897 0.041032 0.829022 0.052170
C68   C     C_3   0.921122 0.522810 0.824967 -0.909664
C69   C     C_3   0.175550 0.582693 0.239877 0.275677
C70   C     C_3   0.225779 0.662308 0.297097 -0.935375
C71   C     C_R   0.502003 0.075996 0.206092 0.075623
C72   C     C_R   0.841066 0.771525 0.985078 0.614412
H1    H     H_    0.832698 0.874851 0.818894 0.093274
H2    H     H_    0.195535 0.199988 0.927241 0.113985
H3    H     H_    0.984426 0.925401 0.132853 0.140966
H4    H     H_    0.037532 0.335051 0.967597 0.157054
H5    H     H_    0.685067 0.015140 0.186651 0.128583
H6    H     H_    0.342164 0.193300 0.883849 0.128432
H7    H     H_    0.824019 0.503959 0.436358 0.127558
H8    H     H_    0.989842 0.414407 0.337100 0.127522
H9    H     H_    0.890655 0.605692 0.347683 0.128326
H10   H     H_    0.990812 0.347577 0.511735 0.129256
H11   H     H_    0.044372 0.971694 0.609745 0.094194
H12   H     H_    0.240570 0.034560 0.147084 0.089160
H13   H     H_    0.997922 0.160296 0.902007 0.100619
H14   H     H_    0.170198 0.324429 0.382455 0.089504
H15   H     H_    0.768404 0.646660 0.542141 0.088891
H16   H     H_    0.233421 0.961304 0.732792 0.102513
H17   H     H_    0.984048 0.230316 0.763899 0.110182
H18   H     H_    0.397515 0.800667 0.727047 0.119178
H19   H     H_    0.804537 0.360390 0.652517 0.116520
H20   H     H_    0.181896 0.659478 0.470846 0.118069
H21   H     H_    0.649274 0.344089 0.812801 0.114556
H22   H     H_    0.019751 0.820261 0.479514 0.102214
H23   H     H_    0.140514 0.816799 0.102534 0.132101
H24   H     H_    0.830058 0.214661 0.924026 0.114519
H25   H     H_    0.330000 0.514630 0.560195 0.117250
H26   H     H_    0.679684 0.544580 0.692746 0.135437
H27   H     H_    0.680892 0.214190 0.595531 0.123080
H28   H     H_    0.321993 0.807248 0.492987 0.118490
H29   H     H_    0.324560 0.088823 0.722834 0.091280
H30   H     H_    0.677812 0.005980 0.320023 0.083199
H31   H     H_    0.324174 0.362762 0.461371 0.101530
H32   H     H_    0.675700 0.670806 0.645294 0.095025
H33   H     H_    0.678405 0.972201 0.853778 0.126552
H34   H     H_    0.024462 0.986579 0.832999 0.128762
H35   H     H_    0.323860 0.139751 0.165660 0.116184
H36   H     H_    0.169086 0.151032 0.559049 0.093414
H37   H     H_    0.769045 0.822208 0.363238 0.100405
H38   H     H_    0.835821 0.051427 0.648532 0.096974
H39   H     H_    0.239534 0.853730 0.319247 0.114080
H40   H     H_    0.174943 0.938523 0.002180 0.124149
H41   H     H_    0.011590 0.834221 0.918511 0.129077
H42   H     H_    0.016971 0.584114 0.973194 0.098961
H43   H     H_    0.939888 0.666966 0.865965 0.077330
H44   H     H_    0.851918 0.550767 0.748077 0.226594
H45   H     H_    0.013930 0.745213 0.050064 0.104382
H46   H     H_    0.997840 0.469529 0.813554 0.215662
H47   H     H_    0.902533 0.478152 0.854039 0.274594
H48   H     H_    0.118661 0.595775 0.271221 0.096190
H49   H     H_    0.126958 0.598122 0.155541 0.072401
H50   H     H_    0.269874 0.660269 0.256709 0.251765
H51   H     H_    0.158998 0.742637 0.297626 0.210908
H52   H     H_    0.286027 0.643283 0.379078 0.273994
H53   H     H_    0.063729 0.464154 0.121220 0.128463
H54   H     H_    0.668597 0.824367 0.943998 0.147497
H55   H     H_    0.412319 0.326321 0.201530 0.145987
H56   H     H_    0.799864 0.057934 0.117001 0.126059
N1    N     N_R   0.705410 0.966550 0.689210 -0.046436
N2    N     N_R   0.556610 0.796750 0.548620 -0.039902
N3    N     N_R   0.556610 0.951620 0.703500 -0.041448
N4    N     N_R   0.443390 0.048380 0.296500 -0.041173
N5    N     N_R   0.294590 0.131500 0.522480 -0.039272
N6    N     N_R   0.705410 0.868500 0.477520 -0.042373
N7    N     N_R   0.705410 0.023370 0.632390 -0.043947
N8    N     N_R   0.294590 0.976630 0.367610 -0.040524
N9    N     N_R   0.294590 0.033450 0.310790 -0.045152
N10   N     N_R   0.294590 0.188320 0.465660 -0.045492
N11   N     N_R   0.705410 0.811680 0.534340 -0.044582
N12   N     N_R   0.556610 0.157790 0.497330 -0.044209
N13   N     N_R   0.443390 0.842210 0.502670 -0.038137
N14   N     N_R   0.443390 0.997080 0.657540 -0.038159
N15   N     N_R   0.556610 0.002920 0.342460 -0.038287
N16   N     N_R   0.443390 0.203250 0.451380 -0.044189
Ni1   Ni    Ni4+2 0.629830 0.882720 0.617850 0.215146
Ni2   Ni    Ni4+2 0.370170 0.117280 0.382150 0.216756
Ni3   Ni    Ni4+2 0.629830 0.013030 0.487540 0.206595
Ni4   Ni    Ni4+2 0.370170 0.986970 0.512460 0.215363
O1    O     O_3   0.848919 0.671398 0.934296 -0.645908
O2    O     O_3   0.261620 0.479767 0.257399 -0.645316

loop_
_geom_bond_atom_site_label_1
_geom_bond_atom_site_label_2
_ccdc_geom_bond_type
C2    O2    S    
C66   C68   S    
C63   C65   A    
C29   C42   A    
C25   H8    S    
C14   C18   A    
C61   H37   S    
C40   H27   S    
C3    H54   S    
C47   C49   A    
C15   C19   A    
N6    Ni3   S    
C46   C49   A    
C51   H41   S    
C28   H23   S    
C69   O2    S    
C22   H10   S    
C14   C21   A    
C35   C37   A    
C24   C26   D    
C38   C42   A    
C1    N1    A    
C68   H47   S    
C15   H6    S    
C52   H40   S    
C55   H31   S    
C33   C36   A    
C56   C57   A    
C12   H12   S    
C7    C9    A    
C53   N14   A    
C14   H5    S    
N2    N13   A    
C2    C13   A    
C70   H50   S    
C29   H16   S    
C62   C64   A    
N13   Ni4   S    
C68   H46   S    
N1    N7    A    
C10   H4    S    
C70   H51   S    
C54   C71   A    
C53   H29   S    
C22   C25   D    
C35   C49   S    
C31   C33   A    
C19   C67   S    
C7    H56   S    
N1    Ni1   S    
C60   H36   S    
C44   C47   A    
C13   H53   S    
C36   H20   S    
N4    N15   A    
C48   C50   A    
C54   N15   A    
C46   H26   S    
N5    N10   A    
N2    Ni1   S    
C16   H14   S    
C23   C60   A    
C15   C20   A    
C30   H17   S    
N12   Ni3   S    
C22   C23   S    
C27   C51   D    
C61   N6    A    
C45   C47   S    
C40   C45   A    
C46   C48   A    
C59   N4    A    
C66   H43   S    
C51   C52   S    
C43   H13   S    
C32   C35   A    
N14   Ni4   S    
N9    Ni2   S    
C66   O1    S    
N16   Ni2   S    
N6    N11   A    
C5    C7    A    
C11   C72   A    
C39   C43   A    
C27   H34   S    
C25   C26   S    
C34   C61   A    
C24   C34   S    
C62   N7    A    
N3    Ni1   S    
C2    C4    A    
C24   H9    S    
C41   C56   A    
C41   N13   A    
C44   H25   S    
C57   N2    A    
C62   H38   S    
C69   H49   S    
C58   N3    A    
C31   H18   S    
C38   H22   S    
C8    H2    S    
C41   H28   S    
C37   H21   S    
C17   N11   A    
N5    Ni4   S    
C9    C11   A    
N8    Ni4   S    
N3    N14   A    
C68   H44   S    
C4    C6    A    
N15   Ni3   S    
C16   C23   A    
N7    Ni3   S    
C30   C43   A    
C17   C34   A    
C11   H45   S    
C1    C64   A    
C44   C50   A    
C18   C71   S    
C48   C56   S    
C57   H32   S    
N11   Ni1   S    
C55   N16   A    
C66   H42   S    
C4    H55   S    
C19   C21   A    
C17   H15   S    
C54   H30   S    
C8    C10   A    
C16   N10   A    
C42   H11   S    
N12   N16   A    
N8    N9    A    
C3    C5    A    
C10   C13   A    
C6    C8    A    
C6    C20   S    
C12   C65   A    
C69   H48   S    
C26   H7    S    
C58   H33   S    
C1    H1    S    
C63   N8    A    
C36   C38   A    
C28   C65   S    
C33   C50   S    
N4    Ni2   S    
C29   C31   A    
C30   C32   A    
C28   C52   D    
N10   Ni2   S    
C40   N12   A    
C3    C72   A    
C18   C20   A    
C63   H39   S    
C69   C70   S    
C53   C67   A    
C59   H35   S    
C39   H24   S    
C27   C64   S    
C32   H19   S    
C70   H52   S    
C58   C67   A    
C5    C21   S    
C45   C55   A    
C37   C39   A    
C72   O1    S    
C12   N9    A    
C9    H3    S    
C60   N5    A    
C59   C71   A    
