data_mof_unit_18261.cif
_audit_creation_date              2012-12-10T16:45:20-0500
_audit_creation_method            fapswitch 2.2
_symmetry_space_group_name_H-M    P1
_symmetry_Int_Tables_number       1
_space_group_crystal_system       triclinic
_cell_length_a                    7.544462
_cell_length_b                    8.705753
_cell_length_c                    15.805671
_cell_angle_alpha                 95.900135
_cell_angle_beta                  75.077352
_cell_angle_gamma                 103.705237
_cell_volume                      973.581926607

loop_
_atom_site_label
_atom_site_type_symbol
_atom_type_description
_atom_site_fract_x
_atom_site_fract_y
_atom_site_fract_z
_atom_type_partial_charge
C1    C     C_R   0.545350 0.799999 0.502700 0.871875
C2    C     C_R   0.454640 0.200001 0.497313 0.872170
C3    C     C_R   0.287180 0.377166 0.074521 -0.230359
C4    C     C_R   0.722837 0.579903 0.919391 -0.229303
C5    C     C_R   0.160145 0.338950 0.021951 -0.224072
C6    C     C_R   0.850624 0.616002 0.971579 -0.224788
C7    C     C_2   0.570078 0.968603 0.503818 -0.374271
C8    C     C_2   0.429896 0.031400 0.496217 -0.374053
C9    C     C_R   0.384948 0.487953 0.665844 0.782668
C10   C     C_R   0.614950 0.511126 0.334043 0.782904
C11   C     C_R   0.315860 0.466341 0.760398 -0.051237
C12   C     C_R   0.683709 0.524567 0.238729 -0.050608
C13   C     C_R   0.081556 0.343681 0.883796 -0.186806
C14   C     C_R   0.926091 0.621029 0.111248 -0.185360
C15   C     C_R   0.133062 0.383582 0.796384 -0.209881
C16   C     C_R   0.871104 0.593041 0.200387 -0.207738
C17   C     C_R   0.443763 0.514218 0.813260 -0.249648
C18   C     C_R   0.554164 0.478211 0.186483 -0.251632
C19   C     C_R   0.398386 0.469791 0.900593 0.084072
C20   C     C_R   0.605746 0.504319 0.096249 0.084793
C21   C     C_R   0.212804 0.384580 0.935737 0.150153
C22   C     C_R   0.794645 0.580030 0.059443 0.152332
C23   C     C_R   0.532182 0.505478 0.953292 0.063140
C24   C     C_R   0.474133 0.462273 0.042465 0.061244
Cu1   Cu    Cu3+1 0.322120 0.483240 0.490330 0.936891
Cu2   Cu    Cu3+1 0.677880 0.516760 0.509670 0.937659
H1    H     H_    0.018829 0.273078 0.049272 0.152139
H2    H     H_    0.995065 0.673029 0.942709 0.154714
H3    H     H_    0.411726 0.426887 0.218920 0.141563
H4    H     H_    0.579201 0.584575 0.783571 0.138054
H5    H     H_    0.973245 0.630552 0.239652 0.148513
H6    H     H_    0.032343 0.344983 0.756407 0.150424
H7    H     H_    0.939796 0.278155 0.910469 0.145807
H8    H     H_    0.070982 0.677552 0.083012 0.145502
H9    H     H_    0.233888 0.334368 0.139709 0.139017
H10   H     H_    0.780653 0.609894 0.852003 0.139326
H11   H     H_    0.704607 0.041321 0.510832 0.180207
H12   H     H_    0.295365 0.958683 0.489206 0.180190
N1    N     N_2   0.945180 0.542040 0.524240 -0.049892
N2    N     N_2   0.054820 0.457960 0.475760 -0.050056
O1    O     O_R   0.384450 0.714270 0.493720 -0.583161
O2    O     O_R   0.615550 0.285730 0.506280 -0.583298
O3    O     O_R   0.684880 0.742590 0.510050 -0.582665
O4    O     O_R   0.315120 0.257410 0.489950 -0.582826
O5    O     O_R   0.265540 0.477900 0.617090 -0.603322
O6    O     O_R   0.734460 0.522100 0.382910 -0.602392
O7    O     O_R   0.565970 0.506210 0.633420 -0.588544
O8    O     O_R   0.434030 0.493790 0.366580 -0.590130
C25   C     C_3   0.973317 0.602959 0.609313 -0.366822
H13   H     H_    0.873867 0.680640 0.637871 0.151215
H14   H     H_    0.941318 0.504594 0.654078 0.165161
H15   H     H_    0.112791 0.680843 0.605493 0.186031
C26   C     C_3   0.026614 0.396689 0.390769 -0.366526
H16   H     H_    0.125810 0.318706 0.362401 0.151095
H17   H     H_    0.887001 0.319087 0.394591 0.186406
H18   H     H_    0.059114 0.494869 0.345908 0.164129

loop_
_geom_bond_atom_site_label_1
_geom_bond_atom_site_label_2
_ccdc_geom_bond_type
C14   H8    S    
C19   C23   A    
C23   C24   A    
C4    H10   S    
C13   H7    S    
C3    H9    S    
C25   H15   S    
C14   C22   A    
C25   H14   S    
C13   C15   A    
C7    H11   S    
C13   C21   A    
C15   H6    S    
C18   H3    S    
C1    C7    S    
C26   H16   S    
C16   H5    S    
C9    O5    A    
C17   H4    S    
C9    C11   S    
Cu1   O8    S    
C3    C24   A    
C8    H12   S    
Cu2   O7    S    
C2    O2    A    
C10   C12   S    
Cu1   O4    S    
C1    O1    A    
C19   C21   A    
C20   C22   A    
Cu2   O3    S    
C9    O7    A    
C18   C20   A    
C26   H17   S    
Cu1   N2    S    
C10   O8    A    
C14   C16   A    
Cu2   N1    S    
Cu2   O6    S    
Cu1   O1    S    
C6    C22   A    
N1    C25   S    
Cu1   O5    S    
C10   O6    A    
C7    C8    D    
C5    C21   A    
Cu2   O2    S    
C4    C6    A    
N2    C26   S    
C26   H18   S    
C12   C18   A    
N1    N2    D    
C25   H13   S    
C4    C23   A    
C20   C24   A    
C11   C17   A    
C2    C8    S    
C17   C19   A    
Cu1   Cu2   S    
C5    H1    S    
C11   C15   A    
C1    O3    A    
C6    H2    S    
C12   C16   A    
C2    O4    A    
C3    C5    A    
