data_mof_unit_14077.cif
_audit_creation_date              2012-12-11T15:48:56-0500
_audit_creation_method            fapswitch 2.2
_symmetry_space_group_name_H-M    P1
_symmetry_Int_Tables_number       1
_space_group_crystal_system       triclinic
_cell_length_a                    10.956793
_cell_length_b                    11.000408
_cell_length_c                    18.831225
_cell_angle_alpha                 89.945988
_cell_angle_beta                  90.021678
_cell_angle_gamma                 60.151271
_cell_volume                      1968.61611496

loop_
_atom_site_label
_atom_site_type_symbol
_atom_type_description
_atom_site_fract_x
_atom_site_fract_y
_atom_site_fract_z
_atom_type_partial_charge
Br1   Br    Br    0.699965 0.413513 0.131656 -0.443905
Br2   Br    Br    0.402318 0.923038 0.677581 -0.498098
Br3   Br    Br    0.071141 0.464948 0.359187 -0.518108
Br4   Br    Br    0.379583 0.732836 0.155545 -0.427368
Br5   Br    Br    0.171559 0.029486 0.336670 -0.479661
C1    C     C_R   0.234463 0.647227 0.608788 0.567318
C2    C     C_R   0.590113 0.119444 0.705562 -0.085963
C3    C     C_R   0.587823 0.126684 0.778848 -0.128116
C4    C     C_R   0.653625 0.622018 0.600997 0.550796
C5    C     C_3   0.879626 0.204532 0.781230 0.245957
C6    C     C_3   0.884403 0.200933 0.700788 -0.203967
C7    C     C_R   0.685890 0.141932 0.667409 0.010831
C8    C     C_R   0.152157 0.688344 0.829308 -0.014771
C9    C     C_R   0.164238 0.572125 0.793673 -0.099193
C10   C     C_R   0.177307 0.562976 0.720118 0.067536
C11   C     C_R   0.141426 0.796544 0.714971 -0.150306
C12   C     C_3   0.597083 0.617484 0.801787 -0.245296
C13   C     C_R   0.136254 0.802530 0.788719 -0.132895
C14   C     C_3   0.273340 0.423266 0.804931 -0.177868
C15   C     C_3   0.292929 0.415617 0.725401 0.698812
C16   C     C_R   0.632149 0.222510 0.601072 0.585228
C17   C     C_R   0.172283 0.672073 0.679704 -0.010390
C18   C     C_R   0.705964 0.704407 0.179982 0.051636
C19   C     C_R   0.792377 0.577302 0.213660 0.020367
C20   C     C_R   0.773964 0.558153 0.283144 0.045411
C21   C     C_R   0.590195 0.798417 0.293790 -0.149600
C22   C     C_R   0.608110 0.818108 0.221307 -0.125354
C23   C     C_3   0.698571 0.674479 0.812163 0.012378
C24   C     C_3   0.832111 0.429455 0.194739 0.056904
C25   C     C_3   0.808303 0.409903 0.272060 -0.206373
C26   C     C_R   0.670257 0.664366 0.324157 0.029726
C27   C     C_R   0.666903 0.131661 0.180464 0.046099
C28   C     C_R   0.218804 0.651440 0.402769 0.555425
C29   C     C_R   0.551804 0.143812 0.216582 -0.011591
C30   C     C_R   0.544184 0.155541 0.288807 0.011665
C31   C     C_R   0.778433 0.122851 0.293823 -0.164098
C32   C     C_R   0.786092 0.109407 0.220079 -0.124893
C33   C     C_3   0.399535 0.242762 0.205118 -0.265936
C34   C     C_3   0.668086 0.648889 0.676426 0.045900
C35   C     C_3   0.389467 0.257643 0.284990 -0.221101
C36   C     C_R   0.651587 0.158735 0.327816 0.017770
C37   C     C_R   0.108725 0.694312 0.190336 -0.034365
C38   C     C_R   0.120213 0.799033 0.225693 0.025243
C39   C     C_R   0.137529 0.794967 0.297079 -0.043448
C40   C     C_R   0.643436 0.624022 0.393161 0.547294
C41   C     C_R   0.100307 0.595960 0.304629 0.106252
C42   C     C_R   0.086686 0.598789 0.230354 -0.160449
C43   C     C_3   0.215563 0.856754 0.211384 0.510726
C44   C     C_3   0.240003 0.848620 0.290736 0.092918
C45   C     C_3   0.826796 0.573310 0.696561 -0.265585
C46   C     C_R   0.142256 0.685146 0.336842 0.013661
C47   C     C_R   0.704572 0.095868 0.893800 0.543479
C48   C     C_R   0.722589 0.687882 0.888417 0.559674
C49   C     C_R   0.111878 0.710688 0.903849 0.554614
C50   C     C_R   0.678399 0.100405 0.105746 0.571897
C51   C     C_R   0.731105 0.716129 0.105321 0.574296
C52   C     C_R   0.617443 0.227391 0.395913 0.530972
C53   C     C_R   0.083289 0.714471 0.115171 0.568277
C54   C     C_3   0.636440 0.818650 0.773837 -0.200666
C55   C     C_3   0.605695 0.806868 0.694638 0.016955
C56   C     C_3   0.588988 0.590537 0.722177 -0.195347
C57   C     C_3   0.842292 0.575434 0.776598 -0.241005
C58   C     C_R   0.697125 0.128728 0.817517 -0.026087
C59   C     C_R   0.812624 0.114772 0.778622 0.048897
C60   C     C_R   0.806835 0.122268 0.704154 -0.069243
Cr1   Cr    Cr6+3 0.392960 0.397920 0.502240 1.140125
Cr2   Cr    Cr6+3 0.398340 0.708480 0.501250 1.101865
Cr3   Cr    Cr6+3 0.708670 0.393570 0.496460 1.067266
Cr4   Cr    Cr6+3 0.937650 0.938540 0.007610 1.129968
Cr5   Cr    Cr6+3 0.625330 0.937370 0.994520 1.063313
Cr6   Cr    Cr6+3 0.937940 0.625230 0.001190 1.051993
F1    F     F_    0.011901 0.138750 0.811535 -0.627440
F2    F     F_    0.419675 0.403954 0.705651 -0.660532
F3    F     F_    0.260720 0.322997 0.692134 -0.601227
F4    F     F_    0.144117 0.991959 0.184707 -0.591567
H1    H     H_    0.714913 0.854369 0.777416 0.101545
H2    H     H_    0.134663 0.884977 0.686355 0.192936
H3    H     H_    0.538719 0.897120 0.800951 0.185383
H4    H     H_    0.121199 0.896416 0.814152 0.244092
H5    H     H_    0.227271 0.359836 0.825083 0.154339
H6    H     H_    0.365935 0.411364 0.835171 0.127707
H7    H     H_    0.509485 0.884130 0.324254 0.166147
H8    H     H_    0.539767 0.917789 0.196529 0.166532
H9    H     H_    0.944156 0.365915 0.178444 0.169400
H10   H     H_    0.715338 0.397006 0.281718 0.165037
H11   H     H_    0.906080 0.333305 0.299914 0.202406
H12   H     H_    0.632690 0.477155 0.713507 0.137196
H13   H     H_    0.865639 0.118613 0.322858 0.184610
H14   H     H_    0.882708 0.087826 0.194100 0.227863
H15   H     H_    0.343692 0.189822 0.183400 0.185072
H16   H     H_    0.379089 0.340169 0.177048 0.171264
H17   H     H_    0.363529 0.363999 0.302833 0.182360
H18   H     H_    0.326915 0.214242 0.309381 0.221340
H19   H     H_    0.063540 0.524983 0.204335 0.151949
H20   H     H_    0.657809 0.850836 0.660961 0.115524
H21   H     H_    0.348898 0.768893 0.306009 0.127605
H22   H     H_    0.916199 0.613559 0.788517 0.144961
H23   H     H_    0.888600 0.467290 0.798054 0.177361
H24   H     H_    0.878082 0.627345 0.670559 0.125865
H25   H     H_    0.631614 0.520060 0.832937 0.120690
H26   H     H_    0.490572 0.695355 0.821529 0.161905
H27   H     H_    0.476589 0.639841 0.706214 0.198653
H28   H     H_    0.886389 0.462947 0.678825 0.176806
H29   H     H_    0.501803 0.120632 0.679494 0.243395
H30   H     H_    0.499215 0.127824 0.804871 0.169758
H31   H     H_    0.809191 0.308843 0.804198 0.110083
H32   H     H_    0.823724 0.303479 0.675045 0.127141
H33   H     H_    0.992119 0.135982 0.678975 0.193207
O1    O     O_R   0.507380 0.255700 0.581440 -0.436997
O2    O     O_R   0.837170 0.593410 0.915250 -0.501371
O3    O     O_R   0.065200 0.635530 0.931570 -0.501308
O4    O     O_R   0.280320 0.527350 0.578930 -0.432911
O5    O     O_R   0.068260 0.828890 0.091840 -0.444981
O6    O     O_R   0.798870 0.057410 0.079340 -0.488772
O7    O     O_R   0.584930 0.080350 0.076780 -0.522643
O8    O     O_R   0.626960 0.809650 0.067060 -0.456926
O9    O     O_R   0.816040 0.596610 0.076510 -0.470721
O10   O     O_R   0.045610 0.638500 0.081060 -0.536170
O11   O     O_3   0.833640 0.833710 0.001100 -0.322497
O12   O     O_R   0.524480 0.695810 0.424040 -0.506248
O13   O     O_R   0.260510 0.739590 0.584590 -0.502472
O14   O     O_R   0.532300 0.695080 0.573820 -0.453657
O15   O     O_R   0.744840 0.503500 0.576370 -0.526619
O16   O     O_R   0.699120 0.276560 0.571960 -0.515520
O17   O     O_R   0.498940 0.256500 0.419860 -0.509016
O18   O     O_R   0.272500 0.528080 0.429150 -0.473616
O19   O     O_R   0.252060 0.740380 0.423010 -0.500969
O20   O     O_R   0.736390 0.504290 0.414790 -0.482117
O21   O     O_R   0.691300 0.277290 0.422170 -0.511589
O22   O     O_3   0.499990 0.499990 0.499980 -0.288110
O23   O     O_R   0.089400 0.825690 0.930570 -0.488253
O24   O     O_R   0.818460 0.054440 0.929850 -0.459914
O25   O     O_R   0.606060 0.077150 0.915510 -0.533334
O26   O     O_R   0.646550 0.806680 0.917570 -0.501034

loop_
_geom_bond_atom_site_label_1
_geom_bond_atom_site_label_2
_ccdc_geom_bond_type
C48   O2    A    
C20   C26   A    
C54   C55   S    
C51   O9    A    
C14   C15   S    
C4    C34   S    
C35   H18   S    
C3    H30   S    
Cr3   O16   S    
C2    C3    A    
C31   H13   S    
Cr2   O12   S    
C49   O23   A    
Cr4   O5    S    
C45   H24   S    
C8    C13   A    
C41   C46   A    
C52   O21   A    
C31   C32   A    
C11   H2    S    
C52   O17   A    
Br2   C55   S    
C40   O20   A    
C1    C17   S    
Cr6   O2    S    
C53   O10   A    
C54   H3    S    
C29   C30   A    
C12   H26   S    
C19   C24   S    
C37   C53   S    
C56   H12   S    
C12   C56   S    
C57   H23   S    
Cr3   O21   S    
C10   C17   A    
C13   H4    S    
Cr6   O3    S    
C49   O3    A    
Cr5   O25   S    
C18   C19   A    
C18   C22   A    
C25   H11   S    
C38   C43   S    
Cr3   O20   S    
C27   C50   S    
C45   H28   S    
C21   H7    S    
C8    C9    A    
C47   O25   A    
C43   F4    S    
Br5   C44   S    
C31   C36   A    
C2    C7    A    
Cr2   O13   S    
Cr3   O15   S    
C10   C15   S    
C34   C56   S    
Cr4   O6    S    
Cr6   O9    S    
C47   O24   A    
C18   C51   S    
C19   C20   A    
C24   H9    S    
Cr5   O8    S    
C7    C16   S    
Cr4   O11   S    
C39   C44   S    
Cr1   O18   S    
C27   C29   A    
C21   C22   A    
Cr1   O1    S    
C38   C39   A    
C24   C25   S    
Cr2   O19   S    
C53   O5    A    
C57   H22   S    
Cr5   O11   S    
Cr4   O23   S    
Br1   C24   S    
C4    O14   A    
C51   O8    A    
C15   F3    S    
C27   C32   A    
C35   H17   S    
C25   H10   S    
Cr3   O22   S    
C39   C46   A    
C43   C44   S    
C2    H29   S    
C6    H32   S    
C45   C57   S    
C5    H31   S    
Cr2   O22   S    
C37   C38   A    
Cr2   O14   S    
C40   O12   A    
C8    C49   S    
Br4   C43   S    
C23   C54   S    
C20   C25   S    
C41   C42   A    
C11   C17   A    
Cr6   O10   S    
C29   C33   S    
C12   C23   S    
C1    O4    A    
C9    C14   S    
C5    C59   S    
C48   O26   A    
C47   C58   S    
C16   O1    A    
C23   C48   S    
C28   O19   A    
C50   O6    A    
Cr6   O11   S    
Cr5   O7    S    
C28   C46   S    
C7    C60   A    
C33   H15   S    
Br3   C41   S    
Cr1   O17   S    
C32   H14   S    
C59   C60   A    
C16   O16   A    
C22   H8    S    
C56   H27   S    
C36   C52   S    
C33   C35   S    
C50   O7    A    
Cr4   O24   S    
C34   C55   S    
C33   H16   S    
C28   O18   A    
C4    O15   A    
C42   H19   S    
C15   F2    S    
C30   C35   S    
C37   C42   A    
C44   H21   S    
C14   H5    S    
C30   C36   A    
C12   H25   S    
C5    C6    S    
C3    C58   A    
C58   C59   A    
C55   H20   S    
C21   C26   A    
C34   C45   S    
C11   C13   A    
C26   C40   S    
C6    H33   S    
Cr5   O26   S    
C9    C10   A    
C1    O13   A    
Cr1   O4    S    
C14   H6    S    
C54   H1    S    
C6    C60   S    
C5    F1    S    
Cr1   O22   S    
C23   C57   S    
