data_mof_unit_48757.cif
_audit_creation_date              2012-12-11T16:26:18-0500
_audit_creation_method            fapswitch 2.2
_symmetry_space_group_name_H-M    P1
_symmetry_Int_Tables_number       1
_space_group_crystal_system       triclinic
_cell_length_a                    13.997972
_cell_length_b                    13.997934
_cell_length_c                    32.019313
_cell_angle_alpha                 90.000057
_cell_angle_beta                  89.999959
_cell_angle_gamma                 120.001343
_cell_volume                      5433.32677854

loop_
_atom_site_label
_atom_site_type_symbol
_atom_type_description
_atom_site_fract_x
_atom_site_fract_y
_atom_site_fract_z
_atom_type_partial_charge
C1    C     C_R   0.567676 0.443926 0.810619 0.533135
C2    C     C_R   0.876268 0.432335 0.689385 0.533105
C3    C     C_R   0.556073 0.123761 0.810623 0.533144
C4    C     C_R   0.567676 0.443926 0.689381 0.533135
C5    C     C_R   0.876268 0.432335 0.810615 0.533105
C6    C     C_R   0.556074 0.123761 0.689377 0.533143
C7    C     C_R   0.443925 0.567679 0.310621 0.533140
C8    C     C_R   0.432331 0.876262 0.189383 0.533105
C9    C     C_R   0.123762 0.556073 0.310623 0.533159
C10   C     C_R   0.443925 0.567679 0.189379 0.533139
C11   C     C_R   0.432333 0.876265 0.310616 0.533106
C12   C     C_R   0.123765 0.556074 0.189376 0.533158
C13   C     C_1   0.004549 0.521673 0.018605 -0.022453
C14   C     C_1   0.517459 0.996270 0.481303 -0.022455
C15   C     C_1   0.478611 0.482795 0.018646 -0.022478
C16   C     C_1   0.004537 0.521655 0.481393 -0.022452
C17   C     C_1   0.517451 0.996235 0.018693 -0.022455
C18   C     C_1   0.478619 0.482797 0.481353 -0.022476
C19   C     C_1   0.521550 0.004466 0.518615 -0.022454
C20   C     C_1   0.996338 0.517571 0.981293 -0.022458
C21   C     C_1   0.482728 0.478689 0.518663 -0.022475
C22   C     C_1   0.521544 0.004436 0.981381 -0.022454
C23   C     C_1   0.996333 0.517557 0.518705 -0.022457
C24   C     C_1   0.482722 0.478685 0.981336 -0.022477
C25   C     C_R   0.930346 0.469370 0.851922 0.003517
C26   C     C_R   0.539076 0.069860 0.648035 0.003532
C27   C     C_R   0.530712 0.460941 0.851944 0.003532
C28   C     C_R   0.930349 0.469373 0.648078 0.003513
C29   C     C_R   0.539074 0.069859 0.851964 0.003536
C30   C     C_R   0.530709 0.460942 0.648056 0.003529
C31   C     C_R   0.469359 0.930333 0.351926 0.003518
C32   C     C_R   0.069906 0.539088 0.148027 0.003556
C33   C     C_R   0.460927 0.530734 0.351952 0.003537
C34   C     C_R   0.469348 0.930316 0.148071 0.003524
C35   C     C_R   0.069889 0.539082 0.351970 0.003548
C36   C     C_R   0.460926 0.530738 0.148047 0.003541
C37   C     C_R   0.949197 0.568985 0.871053 -0.022838
C38   C     C_R   0.619792 0.050946 0.628902 -0.022843
C39   C     C_R   0.431121 0.380175 0.871089 -0.022848
C40   C     C_R   0.949179 0.568977 0.628944 -0.022835
C41   C     C_R   0.619775 0.050915 0.871093 -0.022846
C42   C     C_R   0.431126 0.380168 0.628909 -0.022846
C43   C     C_R   0.568933 0.949111 0.371071 -0.022841
C44   C     C_R   0.050807 0.619714 0.128923 -0.022853
C45   C     C_R   0.380161 0.431145 0.371097 -0.022858
C46   C     C_R   0.568933 0.949115 0.128929 -0.022844
C47   C     C_R   0.050830 0.619727 0.371080 -0.022849
C48   C     C_R   0.380169 0.431140 0.128905 -0.022862
C49   C     C_R   0.975384 0.586522 0.913584 -0.115122
C50   C     C_R   0.611244 0.024993 0.586349 -0.115125
C51   C     C_R   0.413673 0.388793 0.913632 -0.115151
C52   C     C_R   0.975363 0.586509 0.586412 -0.115122
C53   C     C_R   0.611225 0.024951 0.913645 -0.115124
C54   C     C_R   0.413680 0.388788 0.586366 -0.115150
C55   C     C_R   0.586438 0.975280 0.413605 -0.115120
C56   C     C_R   0.024870 0.611205 0.086368 -0.115117
C57   C     C_R   0.388759 0.413719 0.413644 -0.115163
C58   C     C_R   0.586437 0.975275 0.086395 -0.115120
C59   C     C_R   0.024896 0.611215 0.413635 -0.115117
C60   C     C_R   0.388763 0.413712 0.086358 -0.115165
C61   C     C_R   0.984416 0.507275 0.936967 0.025603
C62   C     C_R   0.523118 0.016268 0.562947 0.025605
C63   C     C_R   0.492975 0.477052 0.937008 0.025609
C64   C     C_R   0.984417 0.507270 0.563033 0.025602
C65   C     C_R   0.523112 0.016248 0.937051 0.025606
C66   C     C_R   0.492976 0.477055 0.562992 0.025608
C67   C     C_R   0.507203 0.984370 0.436974 0.025606
C68   C     C_R   0.016363 0.523210 0.062936 0.025612
C69   C     C_R   0.476995 0.493041 0.437023 0.025611
C70   C     C_R   0.507189 0.984333 0.063022 0.025609
C71   C     C_R   0.016342 0.523194 0.437061 0.025608
C72   C     C_R   0.476988 0.493043 0.062976 0.025611
C73   C     C_R   0.974818 0.413623 0.917692 -0.116407
C74   C     C_R   0.439109 0.025945 0.582215 -0.116444
C75   C     C_R   0.586605 0.561106 0.917724 -0.116418
C76   C     C_R   0.974843 0.413633 0.582311 -0.116407
C77   C     C_R   0.439119 0.025961 0.917786 -0.116445
C78   C     C_R   0.586596 0.561117 0.582278 -0.116417
C79   C     C_R   0.413602 0.974850 0.417685 -0.116398
C80   C     C_R   0.026255 0.439292 0.082175 -0.116450
C81   C     C_R   0.561049 0.586673 0.417740 -0.116425
C82   C     C_R   0.413571 0.974786 0.082307 -0.116398
C83   C     C_R   0.026179 0.439251 0.417816 -0.116449
C84   C     C_R   0.561032 0.586687 0.082256 -0.116426
C85   C     C_R   0.948596 0.394988 0.875503 -0.130899
C86   C     C_R   0.446594 0.051933 0.624424 -0.130900
C87   C     C_R   0.605164 0.553542 0.875526 -0.130894
C88   C     C_R   0.948623 0.395001 0.624501 -0.130900
C89   C     C_R   0.446605 0.051958 0.875578 -0.130899
C90   C     C_R   0.605153 0.553552 0.624476 -0.130895
C91   C     C_R   0.394996 0.948643 0.375494 -0.130887
C92   C     C_R   0.052215 0.446734 0.124384 -0.130898
C93   C     C_R   0.553505 0.605210 0.375539 -0.130890
C94   C     C_R   0.394967 0.948588 0.124498 -0.130884
C95   C     C_R   0.052142 0.446699 0.375606 -0.130899
C96   C     C_R   0.553491 0.605225 0.124457 -0.130889
Cr1   Cr    Cr6+3 0.504240 0.249200 0.750000 1.081878
Cr2   Cr    Cr6+3 0.744960 0.495760 0.750000 1.081904
Cr3   Cr    Cr6+3 0.750800 0.255040 0.750000 1.081867
Cr4   Cr    Cr6+3 0.249200 0.504240 0.250000 1.081882
Cr5   Cr    Cr6+3 0.495760 0.744960 0.250000 1.081926
Cr6   Cr    Cr6+3 0.255040 0.750800 0.250000 1.081851
H1    H     H_    0.014900 0.674968 0.071172 0.113611
H2    H     H_    0.660017 0.984963 0.428838 0.113601
H3    H     H_    0.324896 0.340105 0.071128 0.113555
H4    H     H_    0.014966 0.674996 0.428835 0.113610
H5    H     H_    0.660028 0.984978 0.071164 0.113603
H6    H     H_    0.324883 0.340120 0.428875 0.113554
H7    H     H_    0.675079 0.015187 0.571130 0.113598
H8    H     H_    0.985127 0.660137 0.928806 0.113606
H9    H     H_    0.340090 0.324904 0.571133 0.113561
H10   H     H_    0.675048 0.015120 0.928861 0.113600
H11   H     H_    0.985088 0.660114 0.571189 0.113604
H12   H     H_    0.340076 0.324916 0.928864 0.113562
H13   H     H_    0.064946 0.382915 0.137774 0.159379
H14   H     H_    0.318601 0.936232 0.362064 0.159256
H15   H     H_    0.617432 0.681656 0.137880 0.159437
H16   H     H_    0.064830 0.382859 0.362210 0.159385
H17   H     H_    0.318560 0.936152 0.137925 0.159244
H18   H     H_    0.617455 0.681633 0.362113 0.159445
H19   H     H_    0.382691 0.064493 0.637840 0.159401
H20   H     H_    0.936124 0.318558 0.862084 0.159309
H21   H     H_    0.681568 0.617512 0.637904 0.159413
H22   H     H_    0.382716 0.064545 0.862167 0.159396
H23   H     H_    0.936171 0.318582 0.637922 0.159317
H24   H     H_    0.681586 0.617495 0.862101 0.159406
H25   H     H_    0.018657 0.370308 0.064129 0.118404
H26   H     H_    0.352418 0.982909 0.435681 0.118428
H27   H     H_    0.630203 0.647948 0.064248 0.118428
H28   H     H_    0.018537 0.370243 0.435856 0.118409
H29   H     H_    0.352376 0.982818 0.064307 0.118424
H30   H     H_    0.630231 0.647928 0.435745 0.118431
H31   H     H_    0.370018 0.018164 0.564194 0.118420
H32   H     H_    0.982826 0.352426 0.935699 0.118426
H33   H     H_    0.647832 0.630323 0.564278 0.118433
H34   H     H_    0.370040 0.018200 0.935811 0.118417
H35   H     H_    0.982869 0.352443 0.564306 0.118429
H36   H     H_    0.647845 0.630304 0.935726 0.118431
O1    O     O_R   0.480350 0.140770 0.796330 -0.501725
O2    O     O_R   0.660420 0.519650 0.703670 -0.501696
O3    O     O_R   0.859230 0.339580 0.796330 -0.501760
O4    O     O_R   0.480350 0.140770 0.703670 -0.501720
O5    O     O_R   0.660420 0.519650 0.796330 -0.501701
O6    O     O_R   0.859230 0.339580 0.703670 -0.501753
O7    O     O_R   0.140770 0.480350 0.296330 -0.501724
O8    O     O_R   0.519650 0.660420 0.203670 -0.501679
O9    O     O_R   0.339580 0.859230 0.296330 -0.501796
O10   O     O_R   0.140770 0.480350 0.203670 -0.501731
O11   O     O_R   0.519650 0.660420 0.296330 -0.501672
O12   O     O_R   0.339580 0.859230 0.203670 -0.501805
O13   O     O_R   0.514930 0.348530 0.793250 -0.484404
O14   O     O_R   0.833600 0.485070 0.706750 -0.484387
O15   O     O_R   0.651470 0.166400 0.793250 -0.484362
O16   O     O_R   0.514930 0.348530 0.706750 -0.484402
O17   O     O_R   0.833600 0.485070 0.793250 -0.484389
O18   O     O_R   0.651470 0.166400 0.706750 -0.484359
O19   O     O_R   0.348530 0.514930 0.293250 -0.484406
O20   O     O_R   0.485070 0.833600 0.206750 -0.484388
O21   O     O_R   0.166400 0.651470 0.293250 -0.484353
O22   O     O_R   0.348530 0.514930 0.206750 -0.484410
O23   O     O_R   0.485070 0.833600 0.293250 -0.484385
O24   O     O_R   0.166400 0.651470 0.206750 -0.484357
O25   O     O_3   0.666667 0.333333 0.750000 -0.260664
O26   O     O_3   0.333333 0.666667 0.250000 -0.260674
C97   C     C_1   0.939478 0.653254 0.848625 0.211454
N1    N     N_1   0.931748 0.720927 0.830737 -0.268675
C98   C     C_1   0.713626 0.060364 0.651353 0.211452
N2    N     N_1   0.788905 0.067850 0.669259 -0.268664
C99   C     C_1   0.346776 0.286228 0.848663 0.211353
N3    N     N_1   0.279030 0.210859 0.830780 -0.268753
C100  C     C_1   0.939441 0.653239 0.651368 0.211459
N4    N     N_1   0.931697 0.720907 0.669254 -0.268680
C101  C     C_1   0.713596 0.060315 0.848638 0.211444
N5    N     N_1   0.788866 0.067786 0.830730 -0.268658
C102  C     C_1   0.346786 0.286212 0.651333 0.211361
N6    N     N_1   0.279044 0.210835 0.669214 -0.268756
C103  C     C_1   0.653189 0.939335 0.348658 0.211448
N7    N     N_1   0.720852 0.931563 0.330780 -0.268678
C104  C     C_1   0.060015 0.713415 0.151409 0.211448
N8    N     N_1   0.067335 0.788587 0.169343 -0.268573
C105  C     C_1   0.286239 0.346779 0.348667 0.211308
N9    N     N_1   0.210890 0.279018 0.330780 -0.268750
C106  C     C_1   0.653202 0.939372 0.151347 0.211441
N10   N     N_1   0.720875 0.931625 0.169229 -0.268669
C107  C     C_1   0.060074 0.713450 0.348600 0.211463
N11   N     N_1   0.067420 0.788639 0.330670 -0.268581
C108  C     C_1   0.286260 0.346766 0.151339 0.211292
N12   N     N_1   0.210923 0.278998 0.169229 -0.268746

loop_
_geom_bond_atom_site_label_1
_geom_bond_atom_site_label_2
_ccdc_geom_bond_type
C68   C80   A    
C4    O16   A    
C79   H26   S    
C97   N1    T    
C82   C94   A    
C5    O17   A    
Cr2   O5    S    
C18   C21   T    
C33   C45   A    
C90   H21   S    
C39   C51   A    
C3    O15   A    
C30   C90   A    
C8    O20   A    
C29   C89   A    
Cr2   O25   S    
C45   C105  S    
Cr2   O14   S    
C76   H35   S    
C78   C90   A    
C15   C72   S    
C45   C57   A    
C31   C43   A    
C9    O21   A    
C42   C102  S    
C84   C96   A    
C21   C66   S    
C28   C40   A    
C19   C62   S    
C74   H31   S    
C105  N9    T    
C84   H27   S    
C11   O23   A    
C2    O6    A    
C91   H14   S    
C58   H5    S    
C99   N3    T    
Cr5   O11   S    
C20   C61   S    
C3    C29   S    
C44   C56   A    
C25   C37   A    
C7    O11   A    
Cr4   O19   S    
C27   C39   A    
Cr1   O25   S    
C28   C88   A    
C62   C74   A    
C14   C67   S    
C1    O13   A    
C34   C46   A    
C93   H18   S    
C47   C107  S    
C53   C65   A    
C78   H33   S    
C76   C88   A    
C79   C91   A    
Cr6   O24   S    
C18   C69   S    
C11   C31   S    
C17   C70   S    
C12   C32   S    
C7    C33   S    
C16   C71   S    
C44   C104  S    
C48   C60   A    
C71   C83   A    
C95   H16   S    
C2    O14   A    
C38   C98   S    
C66   C78   A    
Cr5   O8    S    
C59   H4    S    
C49   C61   A    
C38   C50   A    
C51   H12   S    
C23   C64   S    
C96   H15   S    
C67   C79   A    
C48   C108  S    
C52   C64   A    
C98   N2    T    
C26   C38   A    
C81   H30   S    
C37   C97   S    
C61   C73   A    
C101  N5    T    
C47   C59   A    
C55   H2    S    
Cr6   O12   S    
C50   H7    S    
C4    C30   S    
Cr2   O2    S    
Cr3   O6    S    
C46   C106  S    
C80   C92   A    
C8    O12   A    
C106  N10   T    
C22   C65   S    
C88   H23   S    
C1    O5    A    
Cr6   O9    S    
C4    O2    A    
C65   C77   A    
C81   C93   A    
C94   H17   S    
C36   C96   A    
C5    O3    A    
C102  N6    T    
Cr1   O13   S    
Cr4   O7    S    
C26   C86   A    
C83   C95   A    
Cr3   O18   S    
C86   H19   S    
C25   C85   A    
C64   C76   A    
C51   C63   A    
C85   H20   S    
Cr4   O26   S    
C8    C34   S    
Cr1   O16   S    
C74   C86   A    
C27   C87   A    
C100  N4    T    
C41   C53   A    
C37   C49   A    
C72   C84   A    
C83   H28   S    
C5    C25   S    
C53   H10   S    
C75   C87   A    
C15   C24   T    
C77   H34   S    
C10   O8    A    
Cr5   O20   S    
C103  N7    T    
C24   C63   S    
C31   C91   A    
C50   C62   A    
Cr3   O25   S    
C6    O4    A    
C10   O22   A    
C1    C27   S    
C73   C85   A    
C43   C55   A    
C41   C101  S    
Cr2   O17   S    
C43   C103  S    
C13   C20   T    
C29   C41   A    
C77   C89   A    
C14   C19   T    
Cr3   O3    S    
Cr5   O26   S    
C58   C70   A    
C34   C94   A    
C56   H1    S    
Cr4   O22   S    
C75   H36   S    
C33   C93   A    
Cr6   O21   S    
C55   C67   A    
C54   C66   A    
C80   H25   S    
C35   C95   A    
C16   C23   T    
C17   C22   T    
C56   C68   A    
C89   H22   S    
Cr5   O23   S    
C82   H29   S    
C108  N12   T    
C39   C99   S    
C40   C52   A    
C42   C54   A    
C12   O10   A    
C107  N11   T    
C6    C26   S    
C63   C75   A    
Cr4   O10   S    
C52   H11   S    
Cr3   O15   S    
C9    O7    A    
C10   C36   S    
C54   H9    S    
C36   C48   A    
C87   H24   S    
C70   C82   A    
C92   H13   S    
C6    O18   A    
Cr1   O4    S    
C69   C81   A    
C32   C92   A    
C12   O24   A    
C104  N8    T    
C57   H6    S    
C3    O1    A    
C73   H32   S    
C32   C44   A    
Cr6   O26   S    
C7    O19   A    
C9    C35   S    
C60   C72   A    
C30   C42   A    
C2    C28   S    
C11   O9    A    
C57   C69   A    
C35   C47   A    
Cr1   O1    S    
C40   C100  S    
C46   C58   A    
C60   H3    S    
C59   C71   A    
C49   H8    S    
C13   C68   S    
