data_mof_unit_66625.cif
_audit_creation_date              2012-12-11T18:22:17-0500
_audit_creation_method            fapswitch 2.2
_symmetry_space_group_name_H-M    P1
_symmetry_Int_Tables_number       1
_space_group_crystal_system       triclinic
_cell_length_a                    8.304161
_cell_length_b                    14.767995
_cell_length_c                    14.899502
_cell_angle_alpha                 95.174741
_cell_angle_beta                  97.100119
_cell_angle_gamma                 92.591947
_cell_volume                      1802.87074228

loop_
_atom_site_label
_atom_site_type_symbol
_atom_type_description
_atom_site_fract_x
_atom_site_fract_y
_atom_site_fract_z
_atom_type_partial_charge
Ba1   Ba    Ba6+2 0.833400 0.543310 0.453520 1.670805
Ba2   Ba    Ba6+2 0.356420 0.456770 0.546480 1.656854
C1    C     C_3   0.482016 0.855686 0.162038 -0.332663
C2    C     C_R   0.896771 0.462657 0.928191 -0.044543
C3    C     C_R   0.045537 0.463120 0.112122 -0.028620
C4    C     C_3   0.945933 0.828400 0.211555 0.259790
C5    C     C_R   0.893611 0.418370 0.082050 0.020937
C6    C     C_R   0.817671 0.422901 0.994071 -0.080013
C7    C     C_R   0.112049 0.472971 0.205871 0.086384
C8    C     C_R   0.259894 0.522058 0.231701 -0.272305
C9    C     C_R   0.073455 0.532039 0.795614 0.047317
C10   C     C_R   0.141272 0.541782 0.889004 -0.029949
C11   C     C_R   0.055615 0.502997 0.954576 0.016007
C12   C     C_3   0.517313 0.776519 0.219293 0.301490
C13   C     C_R   0.292260 0.588353 0.919226 -0.032157
C14   C     C_R   0.362833 0.590795 0.009362 -0.075518
C15   C     C_R   0.282312 0.550593 0.074747 0.005388
C16   C     C_3   0.023637 0.915411 0.181329 -0.274944
C17   C     C_R   0.128138 0.505356 0.047112 0.010074
C18   C     C_R   0.348618 0.556561 0.167535 0.000050
C19   C     C_R   0.919376 0.488600 0.770953 -0.291859
C20   C     C_R   0.721956 0.933938 0.516647 -0.020258
C21   C     C_R   0.524103 0.795710 0.489135 0.046387
C22   C     C_R   0.373969 0.758494 0.446704 -0.243815
C23   C     C_3   0.450618 0.335389 0.275610 0.280881
C24   C     C_R   0.273168 0.808885 0.393374 -0.008805
C25   C     C_R   0.324144 0.893086 0.375231 -0.174464
C26   C     C_R   0.467720 0.938946 0.420589 0.007254
C27   C     C_R   0.574294 0.888818 0.476402 -0.054411
C28   C     C_3   0.211267 0.743495 0.649160 0.300369
C29   C     C_R   0.641408 0.082579 0.463405 -0.013926
C30   C     C_R   0.759907 0.027112 0.506729 0.001812
C31   C     C_R   0.680132 0.180873 0.473805 0.013898
C32   C     C_R   0.829688 0.216061 0.520570 -0.270710
C33   C     C_R   0.949179 0.160741 0.552871 -0.009883
C34   C     C_3   0.441198 0.321455 0.172669 -0.358722
C35   C     C_R   0.913871 0.066421 0.546427 -0.140189
C36   C     C_R   0.494494 0.035084 0.416030 0.076504
C37   C     C_3   0.241744 0.846201 0.677536 -0.165542
C38   C     C_3   0.924709 0.254809 0.326581 0.247667
C39   C     C_3   0.891217 0.155334 0.287382 -0.307947
C40   C     C_3   0.746502 0.677161 0.721751 0.335251
C41   C     C_3   0.773072 0.704992 0.823716 -0.341331
C42   C     C_2   0.412148 0.866008 0.727331 0.932943
C43   C     C_3   0.112819 0.880579 0.737208 -0.261612
C44   C     C_3   0.154820 0.976333 0.782975 -0.371267
C45   C     C_3   0.975308 0.216976 0.762100 0.347978
C46   C     C_2   0.752540 0.142295 0.211176 0.925119
C47   C     C_3   0.856184 0.131534 0.758249 -0.218774
C48   C     C_3   0.683515 0.142019 0.711377 -0.323497
C49   C     C_2   0.091714 0.215104 0.930994 0.823624
C50   C     C_2   0.014359 0.741820 0.175956 0.758529
C51   C     C_3   0.353176 0.079929 0.364834 -0.172650
C52   C     C_3   0.203341 0.079120 0.415555 -0.385906
C53   C     C_3   0.961493 0.928562 0.082080 -0.256050
C54   C     C_3   0.045582 0.011734 0.051430 -0.340554
C55   C     C_3   0.007241 0.266373 0.858390 -0.139525
C56   C     C_3   0.473448 0.282397 0.879149 0.275166
C57   C     C_3   0.508286 0.205389 0.938897 -0.338240
C58   C     C_R   0.827023 0.457582 0.835544 0.000943
H1    H     H_    0.597740 0.801982 0.282517 0.077138
H2    H     H_    0.847917 0.655912 0.859561 0.035205
H3    H     H_    0.654457 0.706405 0.850782 0.151303
H4    H     H_    0.836545 0.773537 0.838002 0.130188
H5    H     H_    0.399695 0.750456 0.238044 0.005815
H6    H     H_    0.435293 0.912157 0.203656 0.094521
H7    H     H_    0.326832 0.339681 0.295030 0.033537
H8    H     H_    0.524455 0.399463 0.299855 0.064753
H9    H     H_    0.397629 0.250333 0.148807 0.156110
H10   H     H_    0.357272 0.367936 0.139521 0.062098
H11   H     H_    0.563435 0.333500 0.151955 0.126154
H12   H     H_    0.229317 0.882116 0.614818 0.003140
H13   H     H_    0.390905 0.833307 0.102338 0.160921
H14   H     H_    0.157178 0.912717 0.187834 0.111372
H15   H     H_    0.917958 0.268351 0.719885 -0.033350
H16   H     H_    0.889364 0.282820 0.880216 0.057635
H17   H     H_    0.081253 0.330354 0.856074 0.013651
H18   H     H_    0.361182 0.265106 0.831799 0.122909
H19   H     H_    0.453873 0.343638 0.924499 0.034794
H20   H     H_    0.486354 0.138369 0.898027 0.143689
H21   H     H_    0.429807 0.207758 0.993812 0.130922
H22   H     H_    0.822063 0.822997 0.175451 0.077263
H23   H     H_    0.809950 0.287181 0.333227 0.048569
H24   H     H_    0.636868 0.212488 0.970574 0.164470
H25   H     H_    0.828093 0.381607 0.126499 0.100437
H26   H     H_    0.697596 0.392380 0.978370 0.071012
H27   H     H_    0.481104 0.625498 0.026572 0.108139
H28   H     H_    0.359274 0.623437 0.873972 0.123072
H29   H     H_    0.311854 0.528557 0.302412 0.051443
H30   H     H_    0.867711 0.481683 0.700200 0.064867
H31   H     H_    0.329630 0.691396 0.459432 0.057096
H32   H     H_    0.236969 0.923777 0.331587 0.067690
H33   H     H_    0.003827 0.024013 0.577495 0.068655
H34   H     H_    0.998866 0.258515 0.393889 0.000348
H35   H     H_    0.856110 0.289037 0.530854 0.047534
H36   H     H_    0.806969 0.897992 0.559037 0.119431
H37   H     H_    0.992624 0.974845 0.225350 0.123092
H38   H     H_    0.313388 0.717220 0.615397 -0.050408
H39   H     H_    0.096848 0.731041 0.602240 0.085334
H40   H     H_    0.473744 0.955791 0.641449 0.246334
H41   H     H_    0.265832 0.978703 0.833160 0.173294
H42   H     H_    0.173947 0.023935 0.731404 0.168192
H43   H     H_    0.053838 0.996273 0.821093 0.160351
H44   H     H_    0.993098 0.879233 0.694422 0.129175
H45   H     H_    0.863402 0.113571 0.342205 0.044730
H46   H     H_    0.098866 0.836201 0.792413 0.165437
H47   H     H_    0.869261 0.213309 0.126600 0.300161
H48   H     H_    0.669202 0.207320 0.680923 0.146492
H49   H     H_    0.649724 0.086830 0.656485 0.129870
H50   H     H_    0.593816 0.134439 0.759608 0.173290
H51   H     H_    0.904603 0.073314 0.720706 0.117650
H52   H     H_    0.847003 0.110420 0.827263 0.111815
H53   H     H_    0.154464 0.210374 0.065169 0.295059
H54   H     H_    0.936066 0.617789 0.123589 0.301432
H55   H     H_    0.099456 0.039285 0.374713 0.105003
H56   H     H_    0.002162 0.130407 0.261206 0.060248
H57   H     H_    0.226477 0.047758 0.480494 0.147899
H58   H     H_    0.166325 0.149054 0.429702 0.136362
H59   H     H_    0.373249 0.146305 0.346588 0.167939
H60   H     H_    0.324829 0.046272 0.294645 0.096451
H61   H     H_    0.177293 0.001890 0.050746 0.155959
H62   H     H_    0.989498 0.022095 0.981901 0.160944
H63   H     H_    0.029839 0.072904 0.097661 0.132385
H64   H     H_    0.983368 0.867699 0.036581 0.147740
H65   H     H_    0.828701 0.937986 0.074991 0.138620
H66   H     H_    0.866050 0.667130 0.697880 -0.011551
H67   H     H_    0.669652 0.612557 0.709152 0.037771
H68   H     H_    0.592408 0.882779 0.136917 0.120304
O1    O     O_2   0.841230 0.444160 0.280430 -0.474703
O2    O     O_2   0.296788 0.173472 0.602110 -0.483667
O3    O     O_3   0.126297 0.192321 0.734731 -0.595707
O4    O     O_3   0.112860 0.447350 0.393710 -0.494543
O5    O     O_3   0.560610 0.613730 0.540770 -0.493038
O6    O     O_2   0.387460 0.270290 0.467210 -0.475769
O7    O     O_3   0.521361 0.259603 0.309894 -0.647255
O8    O     O_2   0.483886 0.455875 0.824059 -0.512809
O9    O     O_3   0.604795 0.292901 0.829073 -0.634036
O10   O     O_3   0.597940 0.615700 0.327690 -0.476472
O11   O     O_2   0.678627 0.540508 0.172072 -0.465201
O12   O     O_3   0.670192 0.746855 0.678213 -0.597722
O13   O     O_3   0.013366 0.299192 0.269215 -0.660285
O14   O     O_3   0.595771 0.709654 0.170141 -0.582369
O15   O     O_2   0.802240 0.729740 0.532850 -0.472334
O16   O     O_3   0.017180 0.664790 0.371080 -0.436276
O17   O     O_2   0.011572 0.816818 0.472296 -0.501064
O18   O     O_2   0.452864 0.831166 0.797306 -0.564501
O19   O     O_R   0.522351 0.926534 0.696641 -0.750074
O20   O     O_2   0.631478 0.095582 0.219953 -0.594346
O21   O     O_R   0.761008 0.180208 0.129318 -0.761322
O22   O     O_2   0.151369 0.142957 0.912306 -0.645638
O23   O     O_3   0.922326 0.837775 0.304834 -0.604887
O24   O     O_R   0.101833 0.251915 0.021216 -0.789303
O25   O     O_2   0.134685 0.742797 0.136440 -0.689510
O26   O     O_R   0.925490 0.660830 0.178521 -0.686331
O27   O     O_2   0.348480 0.555870 0.719620 -0.450918
O28   O     O_3   0.076830 0.552730 0.606300 -0.509252
O29   O     O_3   0.591760 0.384380 0.672320 -0.451444
O30   O     O_3   0.198130 0.700580 0.727513 -0.639162
O31   O     O_3   0.629090 0.386350 0.459240 -0.479455
O32   O     O_3   0.172520 0.335290 0.628920 -0.455033
P1    P     P_3+3 0.018600 0.416790 0.295970 0.977507
P2    P     P_3+3 0.635660 0.716530 0.560900 0.981616
P3    P     P_3+3 0.056963 0.781507 0.378899 0.978302
P4    P     P_3+3 0.171090 0.583290 0.704030 0.978222
P5    P     P_3+3 0.136353 0.216029 0.622302 0.957552
P6    P     P_3+3 0.555051 0.604019 0.209523 0.994835
P7    P     P_3+3 0.555960 0.272901 0.428923 0.924083
P8    P     P_3+3 0.623851 0.401483 0.791591 0.943633

loop_
_geom_bond_atom_site_label_1
_geom_bond_atom_site_label_2
_ccdc_geom_bond_type
C53   C54   S    
C12   O14   S    
O13   P1    S    
Ba2   O27   S    
C4    H22   S    
C20   C27   A    
O11   P6    D    
C23   H7    S    
C2    C6    A    
Ba1   O4    S    
O5    P2    S    
C15   C18   A    
C51   H60   S    
C41   H3    S    
C5    C6    A    
C45   C47   S    
C51   C52   S    
C43   H46   S    
C44   H42   S    
C24   C25   A    
Ba2   O6    S    
C20   C30   A    
C21   C27   A    
C55   H16   S    
C26   C27   A    
C33   C35   A    
C22   C24   A    
C32   C33   A    
Ba1   O1    S    
C45   C55   S    
H40   O19   S    
C50   O26   S    
C13   C14   A    
C24   P3    S    
C48   H50   S    
C42   O19   S    
Ba1   Ba2   S    
C2    C11   A    
O4    P1    S    
C15   C17   A    
C12   H5    S    
C53   H65   S    
C8    H29   S    
C8    C18   A    
C14   C15   A    
C14   H27   S    
Ba2   O4    S    
C21   C22   A    
C29   C31   A    
C49   C55   S    
C16   H37   S    
C7    C8    A    
O15   P2    D    
C34   H11   S    
O30   P4    S    
C37   C43   S    
C21   P2    S    
Ba1   P1    S    
C16   H14   S    
C46   O21   S    
C48   H48   S    
H53   O24   S    
C38   H23   S    
C31   P7    S    
C23   H8    S    
Ba1   O5    S    
C35   H33   S    
O29   P8    S    
C34   H10   S    
C41   H4    S    
C19   H30   S    
C4    C16   S    
C44   H41   S    
Ba2   O5    S    
C11   C17   A    
C40   O12   S    
C54   H63   S    
C55   H17   S    
Ba1   O31   S    
C32   H35   S    
C49   O22   D    
C19   C58   A    
Ba2   P4    S    
C3    C5    A    
C56   H18   S    
C1    H68   S    
Ba2   O31   S    
O17   P3    D    
C56   C57   S    
C43   C44   S    
C12   H1    S    
C28   H39   S    
C9    C19   A    
C48   H49   S    
C45   O3    S    
C54   H62   S    
Ba1   O28   S    
C3    C7    A    
Ba1   O15   S    
C43   H44   S    
O14   P6    S    
C42   O18   D    
C29   C30   A    
C10   C13   A    
C26   C36   A    
C37   H12   S    
C52   H55   S    
C2    C58   A    
C31   C32   A    
O1    P1    D    
C25   H32   S    
C58   P8    S    
C30   C35   A    
C57   H24   S    
C7    P1    S    
O3    P5    S    
C1    C12   S    
C39   H45   S    
C40   H67   S    
C47   H52   S    
C4    O23   S    
C56   H19   S    
C56   O9    S    
C38   C39   S    
C49   O24   S    
O23   P3    S    
C52   H58   S    
O16   P3    S    
C52   H57   S    
C1    H6    S    
C40   C41   S    
C39   H56   S    
C22   H31   S    
C18   P6    S    
C34   H9    S    
C28   O30   S    
C53   H64   S    
Ba2   O28   S    
C20   H36   S    
C57   H21   S    
C38   H34   S    
C57   H20   S    
Ba1   P2    S    
C9    C10   A    
C51   H59   S    
C37   C42   S    
C3    C17   A    
O27   P4    D    
O8    P8    D    
C44   H43   S    
C28   H38   S    
C29   C36   A    
C47   H51   S    
O10   P6    S    
C54   H61   S    
O32   P5    S    
C50   O25   D    
C45   H15   S    
Ba1   O16   S    
O2    P5    D    
C5    H25   S    
C36   C51   S    
Ba2   O29   S    
C16   C53   S    
C46   O20   D    
C9    P4    S    
C33   P5    S    
C39   C46   S    
O31   P7    S    
C28   C37   S    
C6    H26   S    
C1    H13   S    
C40   H66   S    
C23   C34   S    
H47   O21   S    
C10   C11   A    
O28   P4    S    
Ba2   O32   S    
C47   C48   S    
C23   O7    S    
C25   C26   A    
O7    P7    S    
O6    P7    D    
C4    C50   S    
C38   O13   S    
O12   P2    S    
H54   O26   S    
O9    P8    S    
Ba1   O10   S    
C41   H2    S    
C13   H28   S    
