data_mof_unit_54011.cif
_audit_creation_date              2012-12-10T17:47:02-0500
_audit_creation_method            fapswitch 2.2
_symmetry_space_group_name_H-M    P1
_symmetry_Int_Tables_number       1
_space_group_crystal_system       triclinic
_cell_length_a                    9.97435
_cell_length_b                    10.626611
_cell_length_c                    13.571984
_cell_angle_alpha                 91.918774
_cell_angle_beta                  81.647384
_cell_angle_gamma                 90.866821
_cell_volume                      1422.40901756

loop_
_atom_site_label
_atom_site_type_symbol
_atom_type_description
_atom_site_fract_x
_atom_site_fract_y
_atom_site_fract_z
_atom_type_partial_charge
C1    C     C_R   0.501277 0.739070 0.497146 0.841348
C2    C     C_R   0.554416 0.939311 0.565914 -0.223299
C3    C     C_R   0.552541 0.067879 0.566545 -0.204203
C4    C     C_R   0.474413 0.499844 0.685793 0.878524
C5    C     C_R   0.499684 0.127966 0.491422 -0.097136
C6    C     C_R   0.843098 0.696755 0.596750 -0.135661
C7    C     C_R   0.905584 0.809840 0.618263 -0.246386
C8    C     C_R   0.045103 0.814469 0.613360 -0.179387
C9    C     C_R   0.116287 0.700946 0.602608 0.244249
C10   C     C_R   0.062953 0.597694 0.549302 0.124869
C11   C     C_R   0.919262 0.597019 0.547878 0.135780
C12   C     C_1   0.453562 0.501083 0.790432 -0.195375
C13   C     C_R   0.936580 0.407060 0.453676 -0.111671
C14   C     C_R   0.079247 0.407205 0.453510 -0.114120
C15   C     C_R   0.499692 0.260682 0.497506 0.862747
C16   C     C_R   0.525624 0.499610 0.314192 0.862372
C17   C     C_1   0.546373 0.500395 0.209612 -0.187576
C18   C     C_2   0.558864 0.502052 0.017111 -0.162853
C19   C     C_2   0.440743 0.503349 0.983058 -0.170804
C20   C     C_1   0.442107 0.502285 0.878837 0.006570
C21   C     C_1   0.557588 0.501220 0.121268 0.006018
C22   C     C_3   0.184608 0.679150 0.692231 -0.807577
C23   C     C_R   0.410127 0.860196 0.330394 -0.171669
C24   C     C_R   0.363444 0.921785 0.253055 -0.131797
C25   C     C_R   0.361384 0.052691 0.253766 -0.138988
C26   C     C_R   0.405985 0.122461 0.331822 -0.193401
C27   C     C_R   0.451881 0.061399 0.411637 0.092611
C28   C     C_R   0.454104 0.929468 0.410880 0.096951
C29   C     C_R   0.503930 0.871147 0.489974 -0.082228
H1    H     H_    0.344662 0.504368 0.032542 0.157054
H2    H     H_    0.326437 0.100385 0.193145 0.137677
H3    H     H_    0.405776 0.223896 0.328031 0.143409
H4    H     H_    0.590060 0.120910 0.626748 0.151213
H5    H     H_    0.889920 0.330992 0.415443 0.150181
H6    H     H_    0.292481 0.708369 0.678679 0.245190
H7    H     H_    0.139085 0.737025 0.758212 0.198200
H8    H     H_    0.166433 0.581134 0.716857 0.245966
H9    H     H_    0.737117 0.688469 0.622188 0.196240
H10   H     H_    0.845494 0.890086 0.648082 0.158581
H11   H     H_    0.089585 0.897896 0.644247 0.156354
H12   H     H_    0.138789 0.331327 0.415152 0.148823
H13   H     H_    0.654927 0.500786 0.967605 0.159568
H14   H     H_    0.592015 0.892671 0.626112 0.133079
H15   H     H_    0.413218 0.758593 0.325512 0.149481
H16   H     H_    0.330125 0.867764 0.191875 0.138866
N1    N     N_R   0.857120 0.501200 0.500900 -0.112369
N2    N     N_R   0.142720 0.501280 0.500940 -0.112064
O1    O     O_R   0.385310 0.683220 0.500000 -0.615559
O2    O     O_R   0.614640 0.683250 0.500010 -0.627116
O3    O     O_R   0.368830 0.499960 0.640340 -0.610447
O4    O     O_R   0.598160 0.499980 0.640350 -0.622757
O5    O     O_R   0.385360 0.316750 0.499990 -0.618370
O6    O     O_R   0.614690 0.316780 0.500000 -0.612760
O7    O     O_R   0.401840 0.500020 0.359650 -0.617099
O8    O     O_R   0.631170 0.500040 0.359660 -0.597027
Zn1   Zn    Zn3+2 0.346870 0.499980 0.499990 0.935948
Zn2   Zn    Zn3+2 0.653130 0.500020 0.500010 0.941831

loop_
_geom_bond_atom_site_label_1
_geom_bond_atom_site_label_2
_ccdc_geom_bond_type
C25   H2    S    
C23   C24   A    
C6    H9    S    
C1    O1    A    
C26   H3    S    
C6    C7    A    
O4    Zn2   S    
C13   C14   A    
C4    C12   S    
C18   C21   S    
C22   H7    S    
C9    C10   A    
C19   C20   S    
C2    H14   S    
C12   C20   T    
C1    C29   S    
C2    C3    A    
C16   O8    A    
C7    C8    A    
O8    Zn2   S    
C5    C27   A    
C15   O5    A    
C22   H6    S    
C22   H8    S    
C26   C27   A    
C14   N2    A    
C14   H12   S    
C24   H16   S    
C15   O6    A    
C28   C29   A    
C16   O7    A    
C2    C29   A    
N1    Zn2   S    
C13   N1    A    
O7    Zn1   S    
C9    C22   S    
C5    C15   S    
C16   C17   S    
C10   C11   A    
C3    H4    S    
C4    O4    A    
C13   H5    S    
O2    Zn2   S    
C24   C25   A    
C18   C19   D    
C6    C11   A    
O1    Zn1   S    
C7    H10   S    
C8    C9    A    
C11   N1    A    
O6    Zn2   S    
C8    H11   S    
C18   H13   S    
C3    C5    A    
C25   C26   A    
C23   C28   A    
C19   H1    S    
C1    O2    A    
O3    Zn1   S    
C23   H15   S    
O5    Zn1   S    
C10   N2    A    
C4    O3    A    
N2    Zn1   S    
C27   C28   A    
C17   C21   T    
