data_mof_unit_11213.cif
_audit_creation_date              2012-10-26T19:45:32-0400
_audit_creation_method            fapswitch 2.2
_symmetry_space_group_name_H-M    P1
_symmetry_Int_Tables_number       1
_space_group_crystal_system       triclinic
_cell_length_a                    10.80778
_cell_length_b                    9.511055
_cell_length_c                    10.77974
_cell_angle_alpha                 89.842025
_cell_angle_beta                  90.318203
_cell_angle_gamma                 90.124677
_cell_volume                      1108.06213094

loop_
_atom_site_label
_atom_site_type_symbol
_atom_type_description
_atom_site_fract_x
_atom_site_fract_y
_atom_site_fract_z
_atom_type_partial_charge
C1    C     C_R   0.262398 0.499915 0.499488 0.622152
C2    C     C_R   0.424694 0.925606 0.421043 0.084101
C3    C     C_R   0.575270 0.925544 0.578951 0.104270
C4    C     C_R   0.575876 0.074329 0.578331 0.098857
C5    C     C_R   0.501225 0.499982 0.259959 0.590316
C6    C     C_R   0.737873 0.500126 0.499983 0.632505
C7    C     C_R   0.500683 0.499514 0.740364 0.651830
C8    C     C_3   0.376946 0.557020 0.073399 -0.250017
C9    C     C_3   0.516965 0.346593 0.074593 -0.228255
C10   C     C_3   0.377860 0.568690 0.929886 0.332958
C11   C     C_3   0.514118 0.341453 0.931864 0.328240
C12   C     C_3   0.614752 0.585641 0.928796 0.726684
C13   C     C_3   0.610966 0.591011 0.072713 0.751555
C14   C     C_3   0.502025 0.499418 0.122363 -0.163414
C15   C     C_3   0.500826 0.498062 0.878680 -0.057295
C16   C     C_R   0.064457 0.405111 0.423782 0.355470
C17   C     C_R   0.065917 0.595733 0.573812 0.389235
C18   C     C_R   0.936006 0.405957 0.422217 0.237611
C19   C     C_R   0.937669 0.595052 0.575829 0.227601
C20   C     C_R   0.871971 0.500353 0.499401 -0.082282
C21   C     C_R   0.128969 0.499990 0.499157 -0.042444
C22   C     C_R   0.424510 0.074524 0.421219 0.070716
Cl1   Cl    Cl    0.238820 0.492338 0.867389 -0.327879
Cl2   Cl    Cl    0.392291 0.223183 0.884464 -0.363389
Cl3   Cl    Cl    0.362939 0.751616 0.888305 -0.282619
Cl4   Cl    Cl    0.652573 0.253950 0.880718 -0.360801
Cl5   Cl    Cl    0.859136 0.292445 0.317439 -0.336287
Cl6   Cl    Cl    0.863648 0.709776 0.680153 -0.300708
Cu1   Cu    Cu3+1 0.500020 0.640660 0.500000 1.168675
Cu2   Cu    Cu3+1 0.500020 0.359340 0.500000 1.134572
F1    F     F_    0.596460 0.729314 0.110787 -0.508439
F2    F     F_    0.721970 0.542427 0.121813 -0.498279
F3    F     F_    0.615196 0.721494 0.881834 -0.484680
F4    F     F_    0.725505 0.527411 0.890754 -0.474311
F5    F     F_    0.126497 0.315446 0.348432 -0.556675
F6    F     F_    0.129213 0.686999 0.647554 -0.484409
H1    H     H_    0.357422 0.660820 0.116371 0.207373
H2    H     H_    0.605019 0.302205 0.111620 0.245717
H3    H     H_    0.635157 0.869515 0.642499 0.211837
H4    H     H_    0.637448 0.130297 0.640128 0.192020
H5    H     H_    0.301279 0.485822 0.104542 0.198003
H6    H     H_    0.441893 0.279477 0.113347 0.194855
H7    H     H_    0.364030 0.130767 0.358144 0.170615
H8    H     H_    0.364385 0.869462 0.357803 0.144788
N1    N     N_R   0.500030 0.852070 0.500030 -0.248386
N2    N     N_R   0.500030 0.147930 0.500030 -0.251007
O1    O     O_R   0.319660 0.618740 0.499990 -0.478584
O2    O     O_R   0.319660 0.381260 0.499990 -0.460017
O3    O     O_R   0.499990 0.618790 0.317690 -0.468772
O4    O     O_R   0.499990 0.381210 0.317690 -0.520545
O5    O     O_R   0.680370 0.618830 0.500010 -0.474223
O6    O     O_R   0.680370 0.381170 0.500010 -0.477432
O7    O     O_R   0.500030 0.618780 0.682310 -0.432395
O8    O     O_R   0.500030 0.381220 0.682310 -0.459010

loop_
_geom_bond_atom_site_label_1
_geom_bond_atom_site_label_2
_ccdc_geom_bond_type
C2    C22   A    
C9    C14   S    
C1    O2    A    
C1    C21   S    
Cu1   Cu2   S    
C17   F6    S    
C6    O5    A    
C6    C20   S    
C13   F2    S    
C22   H7    S    
C11   Cl4   S    
C12   C15   S    
Cu2   N2    S    
C6    O6    A    
C19   C20   A    
C7    C15   S    
C5    C14   S    
C3    H3    S    
C16   F5    S    
Cu1   O3    S    
C13   C14   S    
C12   C13   S    
C4    N2    A    
C19   Cl6   S    
Cu2   O8    S    
C5    O3    A    
C9    H6    S    
C16   C21   A    
Cu1   O7    S    
Cu1   O1    S    
C10   Cl3   S    
C8    C10   S    
C9    H2    S    
C17   C19   A    
C13   F1    S    
C18   C20   A    
C10   C15   S    
C9    C11   S    
C2    N1    A    
Cu2   O4    S    
C10   Cl1   S    
C5    O4    A    
Cu1   N1    S    
C8    H1    S    
C7    O7    A    
C12   F4    S    
C3    C4    A    
C11   Cl2   S    
C8    H5    S    
C16   C18   A    
Cu1   O5    S    
Cu2   O2    S    
Cu2   O6    S    
C1    O1    A    
C8    C14   S    
C7    O8    A    
C22   N2    A    
C12   F3    S    
C11   C15   S    
C3    N1    A    
C17   C21   A    
C18   Cl5   S    
C4    H4    S    
C2    H8    S    
