data_mof_unit_35808.cif
_audit_creation_date              2012-12-10T17:02:03-0500
_audit_creation_method            fapswitch 2.2
_symmetry_space_group_name_H-M    P1
_symmetry_Int_Tables_number       1
_space_group_crystal_system       triclinic
_cell_length_a                    10.818377
_cell_length_b                    10.905036
_cell_length_c                    9.806106
_cell_angle_alpha                 111.068063
_cell_angle_beta                  96.235316
_cell_angle_gamma                 92.794459
_cell_volume                      1068.33728341

loop_
_atom_site_label
_atom_site_type_symbol
_atom_type_description
_atom_site_fract_x
_atom_site_fract_y
_atom_site_fract_z
_atom_type_partial_charge
C1    C     C_R   0.488446 0.252759 0.440555 0.834089
C2    C     C_R   0.074853 0.579220 0.634846 0.049642
C3    C     C_R   0.127818 0.490905 0.514186 -0.154916
C4    C     C_R   0.049421 0.408689 0.387897 -0.219213
C5    C     C_R   0.921142 0.412208 0.379692 0.382840
C6    C     C_R   0.871403 0.512653 0.489303 -0.160023
C7    C     C_2   0.473326 0.110115 0.407977 -0.031098
C8    C     C_2   0.433962 0.068170 0.511188 -0.118555
C9    C     C_2   0.490628 0.887729 0.590920 0.110748
C10   C     C_2   0.422786 0.928629 0.493760 0.322264
C11   C     C_2   0.516006 0.507661 0.079709 0.514645
C12   C     C_R   0.262034 0.497012 0.504143 0.822606
C13   C     C_2   0.498423 0.480038 0.918103 -0.115035
C14   C     C_R   0.500036 0.746411 0.559531 0.830251
C15   C     C_R   0.737546 0.503107 0.496830 0.862050
C16   C     C_R   0.135337 0.640853 0.782294 0.151786
C17   C     C_R   0.094939 0.758088 0.874776 -0.154741
C18   C     C_R   0.990670 0.810187 0.827887 0.142463
C19   C     C_R   0.917678 0.735843 0.691436 0.154185
C20   C     C_R   0.952654 0.610027 0.604597 -0.014138
Cu1   Cu    Cu3+1 0.521920 0.521810 0.644910 0.980789
Cu2   Cu    Cu3+1 0.478080 0.478190 0.355090 1.064178
H1    H     H_    0.088011 0.337948 0.297456 0.181302
H2    H     H_    0.433814 0.397434 0.845417 0.135949
H3    H     H_    0.613207 0.635522 0.931257 0.258968
H4    H     H_    0.376205 0.375940 0.067125 0.160181
H5    H     H_    0.143259 0.806806 0.985958 0.182303
H6    H     H_    0.415828 0.139221 0.616064 0.157718
N1    N     N_2   0.445130 0.445430 0.137370 -0.289781
N2    N     N_2   0.554930 0.554500 0.862630 -0.272970
O1    O     O_R   0.511700 0.332330 0.577400 -0.580638
O2    O     O_R   0.474680 0.295500 0.332650 -0.559328
O3    O     O_R   0.338160 0.518420 0.622400 -0.595062
O4    O     O_R   0.301140 0.481590 0.377650 -0.556695
O5    O     O_R   0.525320 0.704500 0.667350 -0.566742
O6    O     O_R   0.488300 0.667670 0.422600 -0.502409
O7    O     O_R   0.698860 0.518410 0.622350 -0.565744
O8    O     O_R   0.661840 0.481580 0.377600 -0.488357
C21   C     C_3   0.504329 0.015906 0.262443 -0.683811
H7    H     H_    0.550199 0.069665 0.201614 0.257040
H8    H     H_    0.569759 0.946494 0.281457 0.261498
H9    H     H_    0.417827 0.959642 0.191731 0.259634
Cl1   Cl    Cl    0.637091 0.627727 0.191544 -0.589243
C22   C     C_3   0.216618 0.570385 0.858390 -0.763192
H10   H     H_    0.178380 0.570557 0.959182 0.238513
H11   H     H_    0.218833 0.464978 0.788475 0.224838
H12   H     H_    0.311284 0.623742 0.892999 0.253892
C23   C     C_3   0.954758 0.940906 0.928278 -0.721587
H13   H     H_    0.019116 0.981739 0.033713 0.229220
H14   H     H_    0.958214 0.014200 0.873981 0.246007
H15   H     H_    0.858984 0.928341 0.955106 0.267615
C24   C     C_3   0.814014 0.799134 0.634088 -0.752585
H16   H     H_    0.774644 0.742382 0.517929 0.234761
H17   H     H_    0.740452 0.812068 0.706176 0.267710
H18   H     H_    0.849712 0.897220 0.636754 0.251524
Cl2   Cl    Cl    0.827319 0.288188 0.230830 -0.569863
Cl3   Cl    Cl    0.311793 0.821254 0.347748 -0.630471
Cl4   Cl    Cl    0.574404 0.003114 0.756125 -0.635012

loop_
_geom_bond_atom_site_label_1
_geom_bond_atom_site_label_2
_ccdc_geom_bond_type
H3    N2    S    
C9    C14   S    
C24   H18   S    
C15   O8    A    
C11   Cl1   S    
Cu1   O5    S    
Cu2   N1    S    
C2    C16   A    
Cu2   O6    S    
C9    C10   D    
C16   C22   S    
C5    Cl2   S    
C19   C20   A    
C22   H12   S    
C18   C23   S    
C23   H14   S    
C17   C18   A    
C12   O3    A    
C7    C8    D    
C21   H8    S    
Cu1   Cu2   S    
C24   H16   S    
Cu1   O1    S    
C16   C17   A    
Cu2   O2    S    
C6    C20   A    
Cu2   O4    S    
C23   H13   S    
C24   H17   S    
C2    C3    A    
C21   H9    S    
C1    O2    A    
C14   O6    A    
C5    C6    A    
C8    H6    S    
C11   C13   S    
Cu1   O3    S    
C2    C20   A    
C3    C4    A    
C17   H5    S    
C13   N2    D    
C1    O1    A    
C10   Cl3   S    
Cu1   O7    S    
C22   H10   S    
C11   N1    D    
H4    N1    S    
C8    C10   S    
C9    Cl4   S    
Cu1   N2    S    
C21   H7    S    
C4    H1    S    
C7    C21   S    
C18   C19   A    
C3    C12   S    
C6    C15   S    
C1    C7    S    
C12   O4    A    
C19   C24   S    
C14   O5    A    
C23   H15   S    
C15   O7    A    
C13   H2    S    
C22   H11   S    
C4    C5    A    
Cu2   O8    S    
