data_mof_unit_19911.cif
_audit_creation_date              2012-12-11T14:08:32-0500
_audit_creation_method            fapswitch 2.2
_symmetry_space_group_name_H-M    P1
_symmetry_Int_Tables_number       1
_space_group_crystal_system       triclinic
_cell_length_a                    28.382792
_cell_length_b                    7.17931
_cell_length_c                    17.166028
_cell_angle_alpha                 90.00002
_cell_angle_beta                  102.529538
_cell_angle_gamma                 90.0
_cell_volume                      3414.59699635

loop_
_atom_site_label
_atom_site_type_symbol
_atom_type_description
_atom_site_fract_x
_atom_site_fract_y
_atom_site_fract_z
_atom_type_partial_charge
O1    O     O_R   0.000700 0.436510 0.857920 -0.536082
O2    O     O_R   0.999300 0.563490 0.142080 -0.536082
O3    O     O_R   0.999300 0.936510 0.642080 -0.536083
O4    O     O_R   0.000700 0.063490 0.357920 -0.536082
O5    O     O_R   0.930080 0.766380 0.721890 -0.509925
O6    O     O_R   0.069920 0.233620 0.278110 -0.509925
O7    O     O_R   0.069920 0.266380 0.778110 -0.509925
O8    O     O_R   0.930080 0.733620 0.221890 -0.509924
C1    C     C_R   0.910536 0.597482 0.708813 0.739666
C2    C     C_R   0.089464 0.402518 0.291189 0.739666
C3    C     C_R   0.089464 0.097482 0.791187 0.739667
C4    C     C_R   0.910536 0.902518 0.208811 0.739665
O9    O     O_R   0.996180 0.766230 0.862310 -0.552947
O10   O     O_R   0.003820 0.233770 0.137690 -0.552947
O11   O     O_R   0.003820 0.266230 0.637690 -0.552948
O12   O     O_R   0.996180 0.733770 0.362310 -0.552947
O13   O     O_R   0.065870 0.936460 0.783500 -0.512604
O14   O     O_R   0.934130 0.063540 0.216500 -0.512604
O15   O     O_R   0.934130 0.436460 0.716500 -0.512604
O16   O     O_R   0.065870 0.563540 0.283500 -0.512604
C5    C     C_R   0.998488 0.596456 0.894517 0.744679
C6    C     C_R   0.001512 0.403544 0.105483 0.744681
C7    C     C_R   0.001512 0.096456 0.605482 0.744679
C8    C     C_R   0.998488 0.903544 0.394517 0.744680
O17   O     O_3   0.022790 0.603020 0.723980 -0.369644
O18   O     O_3   0.977210 0.396980 0.276020 -0.369645
O19   O     O_3   0.977210 0.103020 0.776020 -0.369644
O20   O     O_3   0.022790 0.896980 0.223980 -0.369645
V1    V     V_3+5 0.995770 0.877900 0.754830 1.489449
V2    V     V_3+5 0.004230 0.122100 0.245170 1.489442
V3    V     V_3+5 0.004230 0.377900 0.745170 1.489449
V4    V     V_3+5 0.995770 0.622100 0.254830 1.489443
C9    C     C_2   0.001742 0.082784 0.519563 -0.360340
C10   C     C_2   0.998258 0.917216 0.480438 -0.360343
C11   C     C_2   0.998258 0.582784 0.980437 -0.360339
C12   C     C_2   0.001742 0.417216 0.019562 -0.360342
H1    H     H_    0.004635 0.211846 0.487907 0.148919
H2    H     H_    0.995365 0.788154 0.512093 0.148919
H3    H     H_    0.995365 0.711846 0.012093 0.148919
H4    H     H_    0.004635 0.288154 0.987907 0.148919
C13   C     C_R   0.681742 0.920651 0.024553 0.584601
C14   C     C_R   0.318259 0.079320 0.975425 0.584602
C15   C     C_R   0.318258 0.420650 0.475447 0.584601
C16   C     C_R   0.681741 0.579320 0.524575 0.584602
O21   O     O_2   0.709178 0.874208 0.972392 -0.528021
O22   O     O_2   0.290825 0.125743 0.027590 -0.528025
O23   O     O_2   0.290822 0.374207 0.527608 -0.528021
O24   O     O_2   0.709175 0.625743 0.472410 -0.528025
N1    N     N_R   0.703083 0.954719 0.102606 -0.529711
N2    N     N_R   0.296918 0.045278 0.897369 -0.529712
N3    N     N_R   0.296917 0.454719 0.397393 -0.529711
N4    N     N_R   0.703082 0.545278 0.602630 -0.529712
C17   C     C_R   0.675933 0.010963 0.155236 0.606195
C18   C     C_R   0.324066 0.989055 0.844735 0.606196
C19   C     C_R   0.324067 0.510964 0.344764 0.606196
C20   C     C_R   0.675934 0.489055 0.655265 0.606197
C21   C     C_R   0.781944 0.093602 0.163808 -0.179502
C22   C     C_R   0.218056 0.906400 0.836170 -0.179502
C23   C     C_R   0.218056 0.593603 0.336192 -0.179503
C24   C     C_R   0.781944 0.406401 0.663830 -0.179501
C25   C     C_R   0.831952 0.080609 0.192670 0.381487
C26   C     C_R   0.168047 0.919393 0.807315 0.381496
C27   C     C_R   0.168048 0.580610 0.307331 0.381487
C28   C     C_R   0.831953 0.419393 0.692685 0.381497
C29   C     C_R   0.829355 0.759008 0.145948 0.380146
C30   C     C_R   0.170646 0.240989 0.854045 0.380151
C31   C     C_R   0.170645 0.259008 0.354052 0.380144
C32   C     C_R   0.829354 0.740989 0.645955 0.380151
C33   C     C_R   0.778867 0.772349 0.121659 -0.181802
C34   C     C_R   0.221134 0.227647 0.878328 -0.181797
C35   C     C_R   0.221133 0.272349 0.378340 -0.181803
C36   C     C_R   0.778866 0.727647 0.621672 -0.181795
C37   C     C_R   0.754956 0.939879 0.129255 0.245300
C38   C     C_R   0.245044 0.060120 0.870725 0.245303
C39   C     C_R   0.245044 0.439879 0.370745 0.245301
C40   C     C_R   0.754956 0.560120 0.629275 0.245302
C41   C     C_R   0.602509 0.990029 0.051481 -0.083477
C42   C     C_R   0.397491 0.009957 0.948489 -0.083476
C43   C     C_R   0.397491 0.490029 0.448519 -0.083477
C44   C     C_R   0.602508 0.509957 0.551511 -0.083475
C45   C     C_R   0.631333 0.935338 0.998089 0.001132
C46   C     C_R   0.368669 0.064627 0.001885 0.001123
C47   C     C_R   0.368667 0.435338 0.501911 0.001132
C48   C     C_R   0.631331 0.564627 0.498115 0.001123
C49   C     C_R   0.609720 0.908044 0.918163 -0.184627
C50   C     C_R   0.390282 0.091891 0.081814 -0.184596
C51   C     C_R   0.390280 0.408044 0.581837 -0.184627
C52   C     C_R   0.609718 0.591892 0.418186 -0.184596
C53   C     C_R   0.625625 0.043370 0.129224 -0.118132
C54   C     C_R   0.374375 0.956640 0.870743 -0.118127
C55   C     C_R   0.374375 0.543371 0.370775 -0.118131
C56   C     C_R   0.625625 0.456640 0.629257 -0.118128
C57   C     C_R   0.856732 0.913403 0.182706 -0.271145
C58   C     C_R   0.143268 0.086596 0.817286 -0.271143
C59   C     C_R   0.143268 0.413404 0.317293 -0.271144
C60   C     C_R   0.856732 0.586596 0.682714 -0.271145
H5    H     H_    0.758264 0.651642 0.096165 0.157881
H6    H     H_    0.241738 0.348351 0.903824 0.157878
H7    H     H_    0.241736 0.151642 0.403834 0.157881
H8    H     H_    0.758262 0.848351 0.596176 0.157879
H9    H     H_    0.631228 0.880027 0.874455 0.173907
H10   H     H_    0.368775 0.119885 0.125525 0.173899
H11   H     H_    0.368771 0.380026 0.625544 0.173907
H12   H     H_    0.631225 0.619885 0.374475 0.173899
C61   C     C_R   0.477364 0.945140 0.919406 -0.093062
C62   C     C_R   0.522636 0.054847 0.080559 -0.093076
C63   C     C_R   0.522636 0.445140 0.580594 -0.093062
C64   C     C_R   0.477364 0.554848 0.419441 -0.093076
C65   C     C_R   0.470958 0.047319 0.054930 0.100078
C66   C     C_R   0.529043 0.952650 0.945038 0.100076
C67   C     C_R   0.529042 0.547319 0.445070 0.100078
C68   C     C_R   0.470957 0.452650 0.554962 0.100076
C69   C     C_R   0.448907 0.001564 0.974141 -0.002783
C70   C     C_R   0.551093 0.998418 0.025826 -0.002780
C71   C     C_R   0.551093 0.501564 0.525858 -0.002783
C72   C     C_R   0.448907 0.498418 0.474174 -0.002780
C73   C     C_R   0.452653 0.870980 0.843455 0.428781
C74   C     C_R   0.547345 0.129031 0.156507 0.428784
C75   C     C_R   0.547347 0.370979 0.656545 0.428781
C76   C     C_R   0.452655 0.629032 0.343493 0.428785
C77   C     C_R   0.401536 0.863934 0.823029 0.073266
C78   C     C_R   0.598462 0.136091 0.176932 0.073286
C79   C     C_R   0.598464 0.363934 0.676971 0.073266
C80   C     C_R   0.401538 0.636091 0.323068 0.073287
O25   O     O_2   0.302692 0.971181 0.766854 -0.526103
O26   O     O_2   0.697306 0.028863 0.233116 -0.526108
O27   O     O_2   0.697308 0.471182 0.733146 -0.526103
O28   O     O_2   0.302694 0.528864 0.266884 -0.526109
C81   C     C_R   0.560205 0.924311 0.891963 -0.159538
C82   C     C_R   0.439798 0.075627 0.108009 -0.159509
C83   C     C_R   0.439795 0.424310 0.608037 -0.159538
C84   C     C_R   0.560202 0.575628 0.391990 -0.159509
H13   H     H_    0.236093 0.775619 0.830605 0.158783
H14   H     H_    0.763907 0.224386 0.169367 0.158787
H15   H     H_    0.763907 0.275619 0.669395 0.158784
H16   H     H_    0.236093 0.724387 0.330633 0.158786
H17   H     H_    0.548343 0.924611 0.828641 0.182930
H18   H     H_    0.451663 0.075300 0.171331 0.182909
H19   H     H_    0.451657 0.424609 0.671358 0.182929
H20   H     H_    0.548337 0.575302 0.328669 0.182909
O29   O     O_3   0.851383 0.591213 0.136712 -0.511817
C85   C     C_3   0.857956 0.579543 0.057771 -0.149081
H21   H     H_    0.880608 0.696359 0.043836 0.093466
H22   H     H_    0.822741 0.575784 0.013997 0.133193
H23   H     H_    0.877230 0.447889 0.051321 0.145820
O30   O     O_3   0.148618 0.408782 0.863287 -0.511819
C86   C     C_3   0.142048 0.420439 0.942229 -0.149095
H24   H     H_    0.177264 0.424193 0.986002 0.133197
H25   H     H_    0.119396 0.303622 0.956164 0.093468
H26   H     H_    0.122774 0.552093 0.948684 0.145820
O31   O     O_3   0.148617 0.091213 0.363288 -0.511817
C87   C     C_3   0.142044 0.079544 0.442228 -0.149078
H27   H     H_    0.119391 0.196359 0.456163 0.093465
H28   H     H_    0.177259 0.075786 0.486003 0.133192
H29   H     H_    0.122770 0.947889 0.448678 0.145820
O32   O     O_3   0.851382 0.908781 0.636712 -0.511819
C88   C     C_3   0.857953 0.920435 0.557771 -0.149093
H30   H     H_    0.822738 0.924185 0.513997 0.133196
H31   H     H_    0.880606 0.803618 0.543839 0.093467
H32   H     H_    0.877227 0.052089 0.551316 0.145820
O33   O     O_3   0.143470 0.764138 0.772213 -0.509537
C89   C     C_3   0.145407 0.761866 0.690845 -0.123263
H33   H     H_    0.183176 0.746900 0.683191 0.133471
H34   H     H_    0.128426 0.888801 0.659429 0.084264
H35   H     H_    0.124719 0.639658 0.662218 0.148181
O34   O     O_3   0.856528 0.235867 0.227771 -0.509536
C90   C     C_3   0.854587 0.238152 0.309137 -0.123243
H36   H     H_    0.871566 0.111221 0.340558 0.084262
H37   H     H_    0.816816 0.253121 0.316785 0.133472
H38   H     H_    0.875273 0.360364 0.337763 0.148181
O35   O     O_3   0.856530 0.264139 0.727787 -0.509537
C91   C     C_3   0.854594 0.261869 0.809156 -0.123265
H39   H     H_    0.816824 0.246907 0.816810 0.133470
H40   H     H_    0.871575 0.388804 0.840571 0.084265
H41   H     H_    0.875281 0.139660 0.837782 0.148181
O36   O     O_3   0.143472 0.735868 0.272230 -0.509536
C92   C     C_3   0.145414 0.738157 0.190864 -0.123242
H42   H     H_    0.128436 0.611225 0.159441 0.084262
H43   H     H_    0.183185 0.753131 0.183218 0.133473
H44   H     H_    0.124727 0.860368 0.162239 0.148181
C93   C     C_3   0.376741 0.731918 0.757757 -0.641177
H45   H     H_    0.400796 0.615758 0.748850 0.198677
H46   H     H_    0.345352 0.663094 0.774629 0.213370
H47   H     H_    0.364632 0.808303 0.700697 0.229379
C94   C     C_3   0.623255 0.268132 0.242195 -0.641196
H48   H     H_    0.599197 0.384288 0.251098 0.198676
H49   H     H_    0.635367 0.191767 0.299259 0.229383
H50   H     H_    0.654642 0.336959 0.225316 0.213365
C95   C     C_3   0.623259 0.231918 0.742242 -0.641177
H51   H     H_    0.599204 0.115758 0.751149 0.198677
H52   H     H_    0.654648 0.163094 0.725370 0.213370
H53   H     H_    0.635368 0.308303 0.799302 0.229379
C96   C     C_3   0.376745 0.768133 0.257805 -0.641196
H54   H     H_    0.400803 0.884289 0.248903 0.198676
H55   H     H_    0.364633 0.691768 0.200741 0.229383
H56   H     H_    0.345358 0.836960 0.274684 0.213365
O37   O     O_3   0.477844 0.780756 0.793725 -0.579964
C97   C     C_3   0.471261 0.873534 0.719015 -0.280351
H57   H     H_    0.460410 0.022447 0.720879 0.181904
H58   H     H_    0.444429 0.799063 0.673123 0.162392
H59   H     H_    0.505705 0.869460 0.698442 0.173321
O38   O     O_3   0.522152 0.219265 0.206230 -0.579951
C98   C     C_3   0.528735 0.126506 0.280945 -0.280421
H60   H     H_    0.555575 0.200961 0.326830 0.162392
H61   H     H_    0.539575 0.977580 0.279081 0.181920
H62   H     H_    0.494294 0.130623 0.301525 0.173318
O39   O     O_3   0.522156 0.280756 0.706275 -0.579964
C99   C     C_3   0.528739 0.373534 0.780985 -0.280351
H63   H     H_    0.539590 0.522447 0.779121 0.181905
H64   H     H_    0.555571 0.299063 0.826877 0.162392
H65   H     H_    0.494295 0.369460 0.801558 0.173321
O40   O     O_3   0.477848 0.719265 0.293770 -0.579951
C100  C     C_3   0.471265 0.626506 0.219055 -0.280421
H66   H     H_    0.444425 0.700960 0.173170 0.162392
H67   H     H_    0.460425 0.477580 0.220919 0.181920
H68   H     H_    0.505706 0.630624 0.198474 0.173318

loop_
_geom_bond_atom_site_label_1
_geom_bond_atom_site_label_2
_ccdc_geom_bond_type
O17   V3    S    
C47   C51   A    
C98   H60   S    
N1    C17   A    
O1    C5    A    
C88   H30   S    
C19   O28   S    
O19   V1    S    
O13   V1    S    
C63   C68   A    
C64   C76   A    
O3    C7    A    
C86   H24   S    
C14   C46   A    
O35   C91   S    
O15   V3    S    
C94   H49   S    
C36   H8    S    
O33   C89   S    
C73   O37   S    
C27   O36   S    
C90   H37   S    
C100  H66   S    
C42   C54   A    
O7    C3    A    
C98   H61   S    
C41   C53   A    
C32   C60   A    
C62   C70   A    
O9    V1    S    
O32   C88   S    
C86   H25   S    
C61   C66   A    
N3    C39   S    
C18   C54   A    
N2    C38   S    
C74   C78   A    
O4    C8    A    
C25   C57   A    
C100  H68   S    
C26   O33   S    
C53   C78   A    
C21   C37   A    
C27   C59   A    
C23   H16   S    
O1    V3    S    
C15   C47   A    
C66   C81   A    
O2    V4    S    
C25   O34   S    
C14   O22   S    
C20   O27   S    
C51   C83   A    
O3    V1    S    
C73   C77   A    
C34   C38   A    
C19   C55   A    
C49   C81   A    
C76   C80   A    
C1    O15   A    
C11   C12   D    
C2    O16   A    
C99   H63   S    
C96   H55   S    
C80   C96   S    
O2    C6    A    
C31   C35   A    
O31   C87   S    
C87   H29   S    
C33   C37   A    
C97   H57   S    
O14   V2    S    
C79   C95   S    
C66   C70   A    
C89   H34   S    
C91   H41   S    
C44   C48   A    
C30   C58   A    
C92   H44   S    
O11   C7    A    
O12   C8    A    
C43   C72   A    
C62   C74   A    
C31   C59   A    
C85   H23   S    
C61   C73   A    
C74   O38   S    
C76   O40   S    
O10   V2    S    
C63   C75   A    
C52   H12   S    
C91   H40   S    
C45   C49   A    
C90   H38   S    
O5    V1    S    
C100  H67   S    
C22   H13   S    
C18   O25   S    
O7    V3    S    
O38   C98   S    
C31   O31   S    
O39   C99   S    
O8    V4    S    
C98   H62   S    
C12   H4    S    
C86   H26   S    
C28   C60   A    
C93   H46   S    
C90   H36   S    
O18   V4    S    
C50   C82   A    
C94   H50   S    
C7    C9    S    
C93   H45   S    
C35   H7    S    
C24   C40   A    
C89   H33   S    
C8    C10   S    
C32   C36   A    
C44   C56   A    
C95   H53   S    
C11   H3    S    
O5    C1    A    
C89   H35   S    
C29   O29   S    
C42   C46   A    
O37   C97   S    
C24   H15   S    
C44   C71   A    
C41   C45   A    
O8    C4    A    
C96   H56   S    
C13   C45   A    
C97   H59   S    
C9    C10   D    
O9    C5    A    
C36   C40   A    
N2    C18   A    
C78   C94   S    
O11   V3    S    
C1    C60   S    
C63   C71   A    
C22   C26   A    
C14   N2    A    
C51   H11   S    
C3    C58   S    
C99   H64   S    
O36   C92   S    
O6    V2    S    
C87   H28   S    
C96   H54   S    
C88   H32   S    
C75   C79   A    
C55   C80   A    
C26   C58   A    
C17   C53   A    
O34   C90   S    
C54   C77   A    
N1    C37   S    
C4    C57   S    
C56   C79   A    
C42   C69   A    
C75   O39   S    
C52   C84   A    
O10   C6    A    
C41   C70   A    
C82   H18   S    
C23   C39   A    
O12   V4    S    
C68   C72   A    
C85   H22   S    
C49   H9    S    
C91   H39   S    
C22   C38   A    
C77   C93   S    
O30   C86   S    
O16   V4    S    
C93   H47   S    
C61   C69   A    
C3    O13   A    
C10   H2    S    
C43   C55   A    
C48   C52   A    
C32   O32   S    
O6    C2    A    
C97   H58   S    
C21   C25   A    
C5    C11   S    
C65   C69   A    
C84   H20   S    
C13   N1    A    
C6    C12   S    
C23   C27   A    
C64   C67   A    
C16   C48   A    
N4    C40   S    
C24   C28   A    
C64   C72   A    
C28   O35   S    
O20   V2    S    
C46   C50   A    
O29   C85   S    
C35   C39   A    
C16   N4    A    
C94   H48   S    
C30   C34   A    
N4    C20   A    
C2    C59   S    
C15   N3    A    
C99   H65   S    
C29   C33   A    
C29   C57   A    
C92   H43   S    
N3    C19   A    
C68   C83   A    
C95   H51   S    
C21   H14   S    
C9    H1    S    
C30   O30   S    
C83   H19   S    
C17   O26   S    
C43   C47   A    
C34   H6    S    
C67   C84   A    
C20   C56   A    
C81   H17   S    
O40   C100  S    
C88   H31   S    
C92   H42   S    
C4    O14   A    
C65   C82   A    
C13   O21   S    
C85   H21   S    
C67   C71   A    
C87   H27   S    
C95   H52   S    
C15   O23   S    
O4    V2    S    
C16   O24   S    
C33   H5    S    
C62   C65   A    
C50   H10   S    
