data_mof_unit_43234.cif
_audit_creation_date              2012-12-11T14:15:05-0500
_audit_creation_method            fapswitch 2.2
_symmetry_space_group_name_H-M    P1
_symmetry_Int_Tables_number       1
_space_group_crystal_system       triclinic
_cell_length_a                    24.510794
_cell_length_b                    17.289436
_cell_length_c                    15.445807
_cell_angle_alpha                 90.051242
_cell_angle_beta                  128.780046
_cell_angle_gamma                 90.001674
_cell_volume                      5102.65151503

loop_
_atom_site_label
_atom_site_type_symbol
_atom_type_description
_atom_site_fract_x
_atom_site_fract_y
_atom_site_fract_z
_atom_type_partial_charge
C1    C     C_R   0.335622 0.386959 0.204705 -0.136245
C2    C     C_R   0.664928 0.655920 0.498272 0.051361
C3    C     C_R   0.831009 0.147302 0.504043 0.060700
C4    C     C_R   0.169060 0.147359 0.496201 0.060097
C5    C     C_R   0.374155 0.673109 0.189382 -0.021137
C6    C     C_R   0.644948 0.634511 0.858965 -0.004067
C7    C     C_R   0.877422 0.177602 0.197752 -0.021546
C8    C     C_R   0.123380 0.176709 0.804223 -0.022053
C9    C     C_2   0.664258 0.781055 0.429992 -0.253844
C10   C     C_2   0.337444 0.784476 0.571007 -0.263477
C11   C     C_2   0.167011 0.272805 0.428163 -0.254843
C12   C     C_R   0.664562 0.387667 0.795805 -0.136650
C13   C     C_2   0.833012 0.272856 0.572033 -0.255325
C14   C     C_2   0.701285 0.720150 0.495604 -0.177302
C15   C     C_2   0.301087 0.722839 0.506451 -0.179384
C16   C     C_2   0.204831 0.211469 0.491947 -0.191025
C17   C     C_2   0.795228 0.211350 0.508412 -0.190717
C18   C     C_2   0.200296 0.341782 0.424725 0.002359
C19   C     C_2   0.799682 0.341861 0.575308 0.005323
C20   C     C_2   0.698633 0.848841 0.425967 0.023429
C21   C     C_2   0.302233 0.851239 0.575228 0.017227
C22   C     C_2   0.266525 0.357615 0.513317 -0.144646
C23   C     C_R   0.849063 0.862314 0.239398 -0.136026
C24   C     C_2   0.733444 0.357485 0.486669 -0.147648
C25   C     C_2   0.765208 0.864010 0.514222 -0.160547
C26   C     C_2   0.235461 0.865294 0.486956 -0.159794
C27   C     C_2   0.687185 0.329799 0.966461 -0.248008
C28   C     C_2   0.313130 0.328210 0.034620 -0.246615
C29   C     C_2   0.186431 0.826720 0.963688 -0.239916
C30   C     C_2   0.853187 0.749872 0.137621 -0.245710
C31   C     C_2   0.755847 0.344242 0.034639 -0.072399
C32   C     C_2   0.244721 0.343872 0.965813 -0.070711
C33   C     C_2   0.254864 0.842221 0.032478 -0.063879
C34   C     C_R   0.164187 0.886554 0.794691 -0.132808
C35   C     C_2   0.807116 0.706284 0.134746 -0.075804
C36   C     C_2   0.345382 0.741977 0.118232 -0.055824
C37   C     C_2   0.689134 0.665640 0.972983 -0.059393
C38   C     C_2   0.850710 0.248822 0.130805 -0.055682
C39   C     C_2   0.150810 0.247256 0.872623 -0.055529
C40   C     C_R   0.612275 0.397205 0.405479 -0.122445
C41   C     C_R   0.387732 0.397197 0.594488 -0.114834
C42   C     C_R   0.113172 0.899344 0.405935 -0.136723
C43   C     C_R   0.887408 0.898602 0.594650 -0.126114
C44   C     C_2   0.301938 0.787783 0.121180 -0.143156
C45   C     C_R   0.396702 0.623482 0.594548 -0.012014
C46   C     C_2   0.759311 0.656902 0.038127 -0.127338
C47   C     C_2   0.802551 0.291034 0.126086 -0.126297
C48   C     C_2   0.197500 0.290581 0.874798 -0.131280
C49   C     C_R   0.686816 0.396100 0.589916 -0.075337
C50   C     C_R   0.313156 0.396095 0.410052 -0.075790
C51   C     C_R   0.187383 0.897902 0.590048 -0.070161
C52   C     C_R   0.812567 0.898381 0.410595 -0.076650
C53   C     C_R   0.573625 0.385033 0.795789 -0.111367
C54   C     C_R   0.426587 0.384315 0.204727 -0.106981
C55   C     C_R   0.073226 0.883912 0.794773 -0.102117
C56   C     C_R   0.606259 0.619931 0.407032 -0.026664
C57   C     C_R   0.939797 0.860812 0.238147 -0.099771
C58   C     C_R   0.357689 0.361524 0.145982 0.134241
C59   C     C_R   0.642638 0.362707 0.854888 0.138631
C60   C     C_R   0.880664 0.820326 0.204704 0.132613
C61   C     C_R   0.141997 0.860847 0.853073 0.131203
C62   C     C_R   0.680389 0.381817 0.495639 0.110088
C63   C     C_R   0.319590 0.381829 0.504313 0.110198
C64   C     C_R   0.181555 0.885360 0.496055 0.112373
C65   C     C_R   0.818847 0.884964 0.504815 0.115645
C66   C     C_R   0.322926 0.626197 0.409727 -0.093753
C67   C     C_R   0.892240 0.115116 0.594170 -0.021437
C68   C     C_R   0.677380 0.625962 0.591910 -0.082889
C69   C     C_R   0.819325 0.119761 0.409953 -0.088434
C70   C     C_R   0.180673 0.119885 0.590207 -0.086434
C71   C     C_R   0.436246 0.636475 0.230108 -0.084700
C72   C     C_R   0.575665 0.612792 0.799296 -0.131029
C73   C     C_R   0.938492 0.139405 0.235920 -0.070836
C74   C     C_R   0.062043 0.138847 0.765447 -0.073604
C75   C     C_R   0.666075 0.610819 0.798149 -0.098317
C76   C     C_R   0.343959 0.632482 0.227250 -0.098960
C77   C     C_R   0.154457 0.134911 0.768530 -0.099968
C78   C     C_R   0.107846 0.115066 0.405980 -0.022403
C79   C     C_R   0.846001 0.135440 0.232582 -0.099095
C80   C     C_2   0.158539 0.391047 0.324133 0.512244
C81   C     C_2   0.841403 0.391401 0.675791 0.509170
C82   C     C_2   0.657652 0.897495 0.324735 0.501513
C83   C     C_2   0.342452 0.899852 0.676687 0.501861
C84   C     C_2   0.362297 0.753837 0.041628 0.519235
C85   C     C_2   0.653163 0.710528 0.006690 0.533510
C86   C     C_2   0.874232 0.266704 0.064316 0.506358
C87   C     C_2   0.129661 0.263125 0.942903 0.511578
C88   C     C_2   0.412282 0.615618 0.702887 0.444749
C89   C     C_R   0.337903 0.659160 0.503768 0.055254
C90   C     C_2   0.592422 0.608689 0.300212 0.440952
C91   C     C_2   0.908562 0.101875 0.702512 0.429905
C92   C     C_2   0.091517 0.101837 0.297589 0.429632
H1    H     H_    0.282968 0.386077 0.178029 0.127350
H2    H     H_    0.712455 0.333194 0.406273 0.121038
H3    H     H_    0.785798 0.841331 0.595138 0.120371
H4    H     H_    0.215204 0.842681 0.406092 0.120731
H5    H     H_    0.291466 0.775310 0.178489 0.127761
H6    H     H_    0.782445 0.623388 0.009062 0.129265
H7    H     H_    0.787602 0.275265 0.176712 0.125919
H8    H     H_    0.210881 0.275881 0.821751 0.126849
H9    H     H_    0.777524 0.387520 0.013161 0.187252
H10   H     H_    0.223352 0.388293 0.986452 0.187773
H11   H     H_    0.276499 0.887251 0.013098 0.183139
H12   H     H_    0.717208 0.387026 0.822454 0.120215
H13   H     H_    0.797834 0.716592 0.193708 0.189433
H14   H     H_    0.733778 0.395819 0.675380 0.122194
H15   H     H_    0.266177 0.395822 0.324605 0.124238
H16   H     H_    0.234364 0.898595 0.675482 0.127136
H17   H     H_    0.765211 0.900010 0.325592 0.125183
H18   H     H_    0.543020 0.383306 0.824248 0.116952
H19   H     H_    0.457211 0.382322 0.176310 0.118640
H20   H     H_    0.042560 0.881630 0.823100 0.119692
H21   H     H_    0.976129 0.845534 0.223427 0.106614
H22   H     H_    0.276205 0.635041 0.325446 0.108041
H23   H     H_    0.800684 0.849251 0.224394 0.117822
H24   H     H_    0.721477 0.637607 0.677568 0.108851
H25   H     H_    0.772445 0.127466 0.325403 0.109206
H26   H     H_    0.227469 0.127779 0.674818 0.110436
H27   H     H_    0.718724 0.610068 0.825076 0.091691
H28   H     H_    0.292602 0.641519 0.203094 0.094675
H29   H     H_    0.205007 0.145273 0.790196 0.092705
H30   H     H_    0.795592 0.146001 0.211281 0.091158
H31   H     H_    0.607342 0.779427 0.374477 0.129809
H32   H     H_    0.394353 0.784112 0.625636 0.127216
H33   H     H_    0.110132 0.271149 0.374449 0.134125
H34   H     H_    0.216775 0.885414 0.821132 0.136329
H35   H     H_    0.889889 0.271351 0.625670 0.133709
H36   H     H_    0.111949 0.367678 0.247240 0.023696
H37   H     H_    0.888038 0.368254 0.752716 0.021664
H38   H     H_    0.610945 0.874166 0.247964 0.019685
H39   H     H_    0.389500 0.877039 0.753355 0.011966
H40   H     H_    0.382987 0.705995 0.024580 0.015901
H41   H     H_    0.603193 0.737703 0.943302 -0.010741
H42   H     H_    0.892764 0.220308 0.041325 0.012183
H43   H     H_    0.110267 0.216165 0.963565 0.011705
H44   H     H_    0.664659 0.288087 0.988741 0.144867
H45   H     H_    0.758030 0.718658 0.551889 0.152498
H46   H     H_    0.335260 0.285320 0.013013 0.145860
H47   H     H_    0.164301 0.783126 0.984374 0.146085
H48   H     H_    0.864314 0.739037 0.080715 0.147531
H49   H     H_    0.591398 0.400099 0.319711 0.138053
H50   H     H_    0.408662 0.400040 0.680292 0.139598
H51   H     H_    0.092770 0.903698 0.320524 0.142391
H52   H     H_    0.908466 0.902021 0.680476 0.139099
H53   H     H_    0.470536 0.652994 0.212477 0.109617
H54   H     H_    0.547969 0.612599 0.832233 0.143901
H55   H     H_    0.974232 0.157464 0.221858 0.105594
H56   H     H_    0.244370 0.720233 0.451124 0.151705
H57   H     H_    0.026599 0.156641 0.780266 0.106600
H58   H     H_    0.399066 0.661813 0.734387 0.028383
H59   H     H_    0.616777 0.646389 0.277056 0.059328
H60   H     H_    0.882208 0.135381 0.725976 0.036923
H61   H     H_    0.118139 0.135120 0.274453 0.037041
H62   H     H_    0.261574 0.210240 0.546521 0.152497
H63   H     H_    0.738487 0.209981 0.453917 0.152794
H64   H     H_    0.287515 0.333557 0.593765 0.120385
N1    N     N_R   0.389060 0.424180 0.294540 -0.054105
N2    N     N_R   0.374530 0.423490 0.443400 -0.058135
N3    N     N_R   0.125470 0.923490 0.556600 -0.058588
N4    N     N_R   0.874530 0.923490 0.443400 -0.059830
N5    N     N_R   0.555250 0.423100 0.705420 -0.043889
N6    N     N_R   0.444750 0.423100 0.294580 -0.044181
N7    N     N_R   0.055250 0.923100 0.705420 -0.042954
N8    N     N_R   0.944750 0.923100 0.294580 -0.039505
N9    N     N_R   0.375210 0.577180 0.443400 -0.056201
N10   N     N_R   0.624790 0.577180 0.556600 -0.058323
N11   N     N_R   0.875210 0.077180 0.443400 -0.059419
N12   N     N_R   0.610940 0.424180 0.705460 -0.052012
N13   N     N_R   0.124790 0.077180 0.556600 -0.059673
N14   N     N_R   0.445430 0.577570 0.294580 -0.031263
N15   N     N_R   0.554570 0.577570 0.705420 -0.037426
N16   N     N_R   0.945430 0.077570 0.294580 -0.029600
N17   N     N_R   0.054570 0.077570 0.705420 -0.029556
N18   N     N_R   0.611620 0.576500 0.705460 -0.047506
N19   N     N_R   0.388380 0.576500 0.294540 -0.048621
N20   N     N_R   0.111620 0.076500 0.705460 -0.049647
N21   N     N_R   0.888380 0.076500 0.294540 -0.049824
N22   N     N_R   0.421010 0.576890 0.556640 -0.047580
N23   N     N_R   0.889060 0.924180 0.294540 -0.053193
N24   N     N_R   0.578990 0.576890 0.443360 -0.046189
N25   N     N_R   0.921010 0.076890 0.556640 -0.047790
N26   N     N_R   0.078990 0.076890 0.443360 -0.047917
N27   N     N_R   0.110940 0.924180 0.705460 -0.055724
N28   N     N_R   0.579670 0.423790 0.443360 -0.043770
N29   N     N_R   0.420330 0.423790 0.556640 -0.044583
N30   N     N_R   0.079670 0.923790 0.443360 -0.042789
N31   N     N_R   0.920330 0.923790 0.556640 -0.042467
N32   N     N_R   0.625470 0.423490 0.556600 -0.058220
Ni1   Ni    Ni4+2 0.383200 0.500680 0.370150 0.225715
Ni2   Ni    Ni4+2 0.616800 0.500680 0.629850 0.221357
Ni3   Ni    Ni4+2 0.883200 0.000680 0.370150 0.223030
Ni4   Ni    Ni4+2 0.116800 0.000680 0.629850 0.223575
Ni5   Ni    Ni4+2 0.512440 0.500680 0.370150 0.273080
Ni6   Ni    Ni4+2 0.487560 0.500680 0.629850 0.265306
Ni7   Ni    Ni4+2 0.012440 0.000680 0.370150 0.278361
Ni8   Ni    Ni4+2 0.987560 0.000680 0.629850 0.273918
O1    O     O_2   0.173675 0.458895 0.327475 -0.577732
O2    O     O_2   0.555440 0.555504 0.238639 -0.594933
O3    O     O_2   0.950019 0.051745 0.765154 -0.600773
O4    O     O_2   0.049702 0.052002 0.234495 -0.597195
O5    O     O_2   0.826178 0.459223 0.672326 -0.578527
O6    O     O_2   0.673546 0.964924 0.327408 -0.590837
O7    O     O_2   0.325524 0.966744 0.674344 -0.588401
O8    O     O_2   0.355678 0.816473 0.999678 -0.611117
O9    O     O_2   0.676379 0.714431 0.103234 -0.608238
O10   O     O_2   0.876214 0.332817 0.038807 -0.600073
O11   O     O_2   0.130863 0.328202 0.974689 -0.602157
O12   O     O_2   0.436279 0.555328 0.755052 -0.600207

loop_
_geom_bond_atom_site_label_1
_geom_bond_atom_site_label_2
_ccdc_geom_bond_type
N16   N21   A    
C52   N4    A    
C21   C26   D    
C11   C18   S    
N21   Ni3   S    
C20   C82   S    
C55   H20   S    
C39   C87   S    
N29   Ni6   S    
N27   Ni4   S    
C86   O10   D    
C4    C70   A    
C53   C59   A    
N8    Ni7   S    
C85   O9    D    
C6    C75   A    
C7    C73   A    
C22   H64   S    
C50   N2    A    
C6    C72   A    
N22   Ni6   S    
C76   H28   S    
C30   C35   D    
C73   H55   S    
C27   H44   S    
C31   H9    S    
N3    N30   A    
C37   C85   S    
C3    C69   A    
C70   N13   A    
C70   H26   S    
C12   H12   S    
C10   H32   S    
C10   C15   D    
C56   N24   A    
C15   H56   S    
N31   Ni8   S    
N20   Ni4   S    
C20   C25   D    
N28   Ni5   S    
C5    C36   S    
C29   C33   D    
C47   H7    S    
N32   Ni2   S    
C44   H5    S    
C49   N32   A    
C51   N3    A    
N25   Ni8   S    
C26   C64   S    
C67   N25   A    
C22   C63   S    
C12   C59   A    
C23   H23   S    
C86   H42   S    
C53   H18   S    
C21   C83   S    
C51   H16   S    
C33   C44   S    
C30   C60   S    
C54   H19   S    
N9    Ni1   S    
C79   N21   A    
C74   H57   S    
C92   H61   S    
C8    C39   S    
C82   H38   S    
C45   C89   A    
C23   N23   A    
C43   C65   A    
C91   O3    D    
C42   N30   A    
C56   C90   S    
C46   H6    S    
C40   C62   A    
C33   H11   S    
C40   H49   S    
C75   N18   A    
C50   C63   A    
C32   C48   S    
C43   H52   S    
C88   O12   D    
N15   Ni6   S    
C29   H47   S    
C8    C74   A    
N15   N18   A    
C19   C24   D    
C66   C89   A    
N14   N19   A    
C10   C21   S    
C26   H4    S    
C23   C60   A    
C48   H8    S    
C79   H30   S    
C29   C61   S    
C6    C37   S    
C30   H48   S    
C13   C19   S    
C27   C31   D    
C72   N15   A    
C87   H43   S    
N30   Ni7   S    
C28   C32   D    
C45   C88   S    
C25   C65   S    
C74   N17   A    
C83   O7    D    
N2    Ni1   S    
C82   O6    D    
C57   C60   A    
C81   O5    D    
C80   H36   S    
C78   C92   S    
N7    N27   A    
C84   H40   S    
C34   C61   A    
N28   N32   A    
C78   N26   A    
C4    C16   S    
C9    C14   D    
C69   N11   A    
C4    C78   A    
C35   H13   S    
C24   H2    S    
C15   C89   S    
C11   C16   D    
C9    C20   S    
C81   H37   S    
C14   H45   S    
C43   N31   A    
C34   H34   S    
N17   Ni8   S    
C67   C91   S    
C71   N14   A    
C41   N29   A    
C34   N27   A    
C54   N6    A    
C73   N16   A    
N7    Ni8   S    
C87   O11   D    
C38   C47   D    
N8    N23   A    
C45   N22   A    
C68   H24   S    
C1    H1    S    
C71   H53   S    
C38   C86   S    
C25   H3    S    
C77   N20   A    
C16   H62   S    
C8    C77   A    
C32   H10   S    
C36   C44   D    
N10   N24   A    
C41   C63   A    
C17   H63   S    
N2    N29   A    
C42   C64   A    
C91   H60   S    
N18   Ni2   S    
C7    C79   A    
C54   C58   A    
N17   N20   A    
C24   C62   S    
C49   C62   A    
C66   H22   S    
C66   N9    A    
C11   H33   S    
C18   C22   D    
N12   Ni2   S    
C88   H58   S    
N3    Ni4   S    
C76   N19   A    
C3    C67   A    
C51   C64   A    
N4    Ni3   S    
C90   H59   S    
N19   Ni1   S    
N14   Ni5   S    
C57   H21   S    
C49   H14   S    
C90   O2    D    
C28   C58   S    
N11   Ni3   S    
C2    C68   A    
N4    N31   A    
C13   C17   D    
C5    C76   A    
C1    N1    A    
C83   H39   S    
N9    N22   A    
C41   H50   S    
C5    C71   A    
C75   H27   S    
C27   C59   S    
C1    C58   A    
C53   N5    A    
N11   N25   A    
C57   N8    A    
C52   H17   S    
C36   C84   S    
C72   H54   S    
C80   O1    D    
C55   C61   A    
N6    Ni5   S    
C69   H25   S    
C9    H31   S    
C7    C38   S    
N5    Ni6   S    
C3    C17   S    
C84   O8    D    
C2    C14   S    
N1    Ni1   S    
C28   H46   S    
C50   H15   S    
N5    N12   A    
C77   H29   S    
N24   Ni5   S    
C55   N7    A    
C13   H35   S    
C31   C47   S    
N23   Ni3   S    
C18   C80   S    
C12   N12   A    
C92   O4    D    
C42   H51   S    
C39   C48   D    
N16   Ni7   S    
C2    C56   A    
N26   Ni7   S    
N13   Ni4   S    
N10   Ni2   S    
C37   C46   D    
C19   C81   S    
C35   C46   S    
N1    N6    A    
C52   C65   A    
C85   H41   S    
N13   N26   A    
C40   N28   A    
C68   N10   A    
