data_mof_unit_13141.cif
_audit_creation_date              2013-03-05T16:31:07-0500
_audit_creation_method            fapswitch 2.2
_symmetry_space_group_name_H-M    P1
_symmetry_Int_Tables_number       1
_space_group_crystal_system       triclinic
_cell_length_a                    10.846511
_cell_length_b                    10.847289
_cell_length_c                    9.546894
_cell_angle_alpha                 90.72438
_cell_angle_beta                  90.095569
_cell_angle_gamma                 92.868888
_cell_volume                      1121.74168725

loop_
_atom_site_label
_atom_site_type_symbol
_atom_site_description
_atom_site_fract_x
_atom_site_fract_y
_atom_site_fract_z
_atom_type_partial_charge
O1    O     O_R   0.500000 0.319640 0.618810 -0.535145
O2    O     O_R   0.500010 0.319680 0.381230 -0.556724
C1    C     C_R   0.507146 0.263133 0.499377 0.876146
O3    O     O_R   0.319640 0.499980 0.618820 -0.592981
O4    O     O_R   0.319650 0.500020 0.381230 -0.576253
C2    C     C_R   0.261987 0.487896 0.499436 0.858719
Cu1   Cu    Cu3+1 0.499990 0.499980 0.640670 1.038010
Cu2   Cu    Cu3+1 0.500010 0.500020 0.359330 1.029092
O5    O     O_R   0.499990 0.680320 0.618770 -0.586582
O6    O     O_R   0.500000 0.680360 0.381190 -0.600484
O7    O     O_R   0.680350 0.499980 0.618770 -0.574068
O8    O     O_R   0.680360 0.500020 0.381180 -0.579912
C3    C     C_R   0.503238 0.737666 0.500482 0.857647
C4    C     C_R   0.737213 0.498139 0.500026 0.807232
H1    H     H_    0.121707 0.628631 0.646401 0.168745
C5    C     C_R   0.103976 0.284340 0.343510 0.234788
C6    C     C_R   0.027585 0.203233 0.259801 0.316043
C7    C     C_R   0.901490 0.218008 0.255512 -0.155949
C8    C     C_R   0.849754 0.307599 0.337141 -0.133428
H2    H     H_    0.750366 0.304939 0.338498 0.167796
C9    C     C_R   0.923757 0.393852 0.416772 0.101181
C10   C     C_R   0.054031 0.385379 0.418161 -0.044224
C11   C     C_R   0.126473 0.475352 0.499413 -0.067854
C12   C     C_R   0.068174 0.561431 0.583366 -0.150150
C13   C     C_R   0.941386 0.565832 0.584214 -0.103719
C14   C     C_R   0.869491 0.485426 0.499499 -0.013132
C15   C     C_R   0.509239 0.066259 0.624404 0.007101
C16   C     C_R   0.507411 0.129902 0.498365 -0.047502
C17   C     C_R   0.496249 0.062377 0.372026 -0.054466
C18   C     C_R   0.492578 0.933902 0.373031 -0.135741
H3    H     H_    0.483819 0.884448 0.273952 0.173624
C19   C     C_R   0.504822 0.871064 0.499977 -0.018197
C20   C     C_R   0.512996 0.939644 0.624572 -0.060875
C21   C     C_3   0.598755 0.940144 0.749126 0.024387
C22   C     C_3   0.592551 0.081471 0.750314 0.469782
H4    H     H_    0.554717 0.894391 0.841218 0.109252
C23   C     C_R   0.608187 0.516435 0.074258 0.210550
N1    N     N_R   0.500790 0.500930 0.147930 -0.233015
C24   C     C_R   0.394806 0.473011 0.073545 0.017717
H5    H     H_    0.308905 0.452902 0.127499 0.176699
C25   C     C_R   0.394890 0.472585 0.925145 0.011545
H6    H     H_    0.309241 0.451294 0.870150 0.170351
N2    N     N_R   0.500790 0.500890 0.852020 -0.206858
C26   C     C_R   0.607869 0.516639 0.926491 0.265211
C27   C     C_3   0.694651 0.626944 0.920276 -0.481232
C28   C     C_3   0.695119 0.628094 0.079367 0.102318
H7    H     H_    0.784064 0.605527 0.871345 0.243002
H8    H     H_    0.649851 0.706853 0.875328 0.193205
H9    H     H_    0.654211 0.710719 0.127306 0.131413
N3    N     N_R   0.723056 0.898097 0.720825 0.154037
O9    O     O_R   0.751921 0.849060 0.600936 -0.341739
O10   O     O_R   0.806045 0.907855 0.819399 -0.266822
N4    N     N_R   0.530033 0.127074 0.875608 0.117784
O11   O     O_R   0.581669 0.118244 0.997946 -0.349514
O12   O     O_R   0.422446 0.174529 0.866866 -0.310586
N5    N     N_R   0.709492 0.151677 0.721328 0.137855
O13   O     O_R   0.770732 0.131984 0.606654 -0.343437
O14   O     O_R   0.748907 0.240396 0.805579 -0.281522
N6    N     N_R   0.815797 0.602270 0.137858 0.168939
O15   O     O_R   0.867830 0.678535 0.228883 -0.300450
O16   O     O_R   0.874121 0.506372 0.096326 -0.345950
N7    N     N_R   0.227132 0.251926 0.366832 0.104795
O17   O     O_R   0.252030 0.202565 0.486323 -0.351564
O18   O     O_R   0.297472 0.233176 0.259223 -0.334842
N8    N     N_R   0.075420 0.098792 0.187646 0.170264
O19   O     O_R   0.143594 0.023142 0.254043 -0.252589
O20   O     O_R   0.033011 0.066861 0.064136 -0.258982
H10   H     H_    0.841538 0.153953 0.195791 0.216832
H11   H     H_    0.899231 0.635448 0.648001 0.185538
H12   H     H_    0.492167 0.108257 0.272325 0.228886

loop_
_geom_bond_atom_site_label_1
_geom_bond_atom_site_label_2
_geom_bond_distance
_ccdc_geom_bond_type
C23   N1    1.366028 A    
O4    Cu2   1.967764 S    
N3    O10   1.300847 A    
C11   C12   1.398551 A    
N7    O17   1.299943 A    
Cu1   N2    2.017638 S    
C28   N6    1.463499 S    
C22   N4    1.468561 S    
C25   H6    1.079752 S    
C3    C19   1.446321 S    
C6    N8    1.437880 S    
C8    H2    1.077065 S    
N7    O18   1.300663 A    
C20   C21   1.508276 S    
Cu2   O8    1.966914 S    
C15   C22   1.505048 S    
C19   C20   1.395287 A    
C4    C14   1.448240 S    
C23   C26   1.410749 A    
N4    O12   1.301761 A    
C6    C7    1.385594 A    
C23   C28   1.497495 S    
Cu1   Cu2   2.685929 S    
C24   C25   1.416706 A    
C13   C14   1.391002 A    
O1    Cu1   1.964681 S    
N4    O11   1.301143 A    
C15   C20   1.376089 A    
C18   C19   1.407288 A    
C25   N2    1.368869 A    
C28   H9    1.113419 S    
C16   C17   1.405073 A    
C17   C18   1.392338 A    
C5    N7    1.416184 S    
Cu2   N1    2.018391 S    
O3    Cu1   1.966912 S    
O4    C2    1.296096 A    
Cu2   O6    1.964681 S    
H1    C12   1.084441 S    
C8    C9    1.415064 A    
C9    C14   1.413206 A    
N5    O14   1.301527 A    
O2    C1    1.294769 A    
N8    O19   1.301662 A    
C21   H4    1.111827 S    
C27   H7    1.110885 S    
N2    C26   1.363047 A    
C18   H3    1.083187 S    
C21   C22   1.537745 S    
O7    C4    1.291865 A    
N6    O16   1.302224 A    
C21   N3    1.469147 S    
N5    O13   1.302340 A    
C2    C11   1.469346 S    
C7    H10   1.083619 S    
C24   H5    1.079399 S    
C27   C28   1.518716 S    
N6    O15   1.300580 A    
N1    C24   1.369125 A    
C12   C13   1.378456 A    
O3    C2    1.301107 A    
C17   H12   1.081515 S    
C13   H11   1.083520 S    
C27   H8    1.105645 S    
C15   C16   1.395407 A    
Cu1   O5    1.969968 S    
C7    C8    1.379680 A    
O5    C3    1.295824 A    
C10   C11   1.440022 A    
C1    C16   1.445251 S    
Cu1   O7    1.967764 S    
C5    C10   1.429543 A    
N3    O9    1.301337 A    
C22   N5    1.474850 S    
C9    C10   1.420635 A    
O2    Cu2   1.969969 S    
C26   C27   1.486740 S    
N8    O20   1.301478 A    
O8    C4    1.291328 A    
C5    C6    1.416424 A    
O1    C1    1.291964 A    
O6    C3    1.290133 A    
