data_mof_unit_40696.cif
_audit_creation_date              2012-12-11T16:28:06-0500
_audit_creation_method            fapswitch 2.2
_symmetry_space_group_name_H-M    P1
_symmetry_Int_Tables_number       1
_space_group_crystal_system       triclinic
_cell_length_a                    30.095382
_cell_length_b                    22.50113
_cell_length_c                    17.942547
_cell_angle_alpha                 90.236185
_cell_angle_beta                  122.70293
_cell_angle_gamma                 90.105852
_cell_volume                      10224.0961752

loop_
_atom_site_label
_atom_site_type_symbol
_atom_type_description
_atom_site_fract_x
_atom_site_fract_y
_atom_site_fract_z
_atom_type_partial_charge
C1    C     C_R   0.544479 0.580642 0.743566 -0.145872
C2    C     C_R   0.645958 0.289347 0.423299 0.193375
C3    C     C_R   0.799457 0.628199 0.028829 -0.201346
C4    C     C_R   0.295749 0.857361 0.005849 -0.212750
C5    C     C_R   0.704089 0.142035 0.992941 -0.212626
C6    C     C_R   0.769028 0.706774 0.178032 -0.201025
C7    C     C_R   0.230973 0.293227 0.821960 -0.201017
C8    C     C_R   0.779731 0.192725 0.862372 -0.215665
C9    C     C_R   0.220776 0.807939 0.138012 -0.215735
C10   C     C_R   0.149693 0.351607 0.940100 -0.204602
C11   C     C_R   0.850303 0.648401 0.059884 -0.204589
C12   C     C_R   0.343031 0.831674 0.026892 -0.217582
C13   C     C_R   0.652393 0.706951 0.430060 0.191429
C14   C     C_R   0.656735 0.167615 0.971749 -0.217735
C15   C     C_R   0.717216 0.688575 0.144030 -0.195128
C16   C     C_R   0.282786 0.311422 0.855966 -0.195114
C17   C     C_R   0.580817 0.605232 0.425517 -0.072509
C18   C     C_R   0.419166 0.394782 0.574480 -0.072550
C19   C     C_R   0.422915 0.607130 0.576767 -0.072984
C20   C     C_R   0.577090 0.392874 0.423231 -0.072975
C21   C     C_R   0.092869 0.083740 0.422780 -0.074278
C22   C     C_R   0.907129 0.916260 0.577218 -0.074274
C23   C     C_R   0.906257 0.082955 0.576414 -0.103487
C24   C     C_R   0.347638 0.293021 0.569977 0.191370
C25   C     C_R   0.093744 0.917044 0.423587 -0.103496
C26   C     C_R   0.386907 0.596594 0.271623 -0.140033
C27   C     C_R   0.613089 0.403381 0.728319 -0.139866
C28   C     C_R   0.617857 0.582216 0.742209 -0.136305
C29   C     C_R   0.382143 0.417782 0.257792 -0.136281
C30   C     C_R   0.882692 0.083817 0.260109 -0.110971
C31   C     C_R   0.117313 0.916212 0.739885 -0.111209
C32   C     C_R   0.107113 0.107955 0.708705 -0.119216
C33   C     C_R   0.892887 0.892044 0.291295 -0.119252
C34   C     C_R   0.597661 0.596398 0.793766 0.063272
C35   C     C_R   0.820259 0.156014 0.580028 0.199091
C36   C     C_R   0.402340 0.403598 0.206236 0.063272
C37   C     C_R   0.412463 0.623458 0.235233 0.064090
C38   C     C_R   0.587530 0.376436 0.764642 0.064040
C39   C     C_R   0.078269 0.140138 0.735163 0.060715
C40   C     C_R   0.921731 0.859863 0.264835 0.060723
C41   C     C_R   0.903215 0.099125 0.209340 0.055871
C42   C     C_R   0.096789 0.900840 0.790621 0.055909
C43   C     C_R   0.620292 0.635777 0.498275 0.066049
C44   C     C_R   0.379688 0.364239 0.501723 0.066088
C45   C     C_R   0.382943 0.637457 0.505258 0.063417
C46   C     C_R   0.179744 0.843985 0.419978 0.199109
C47   C     C_R   0.617067 0.362553 0.494739 0.063436
C48   C     C_R   0.141817 0.100215 0.493368 0.080454
C49   C     C_R   0.858181 0.899785 0.506629 0.080441
C50   C     C_R   0.857920 0.100332 0.505605 0.086597
C51   C     C_R   0.142080 0.899667 0.494397 0.086572
C52   C     C_R   0.327311 0.791024 0.439297 -0.178923
C53   C     C_R   0.672689 0.208983 0.560697 -0.178842
C54   C     C_R   0.671769 0.791848 0.559685 -0.173135
C55   C     C_R   0.328183 0.208179 0.440237 -0.173168
C56   C     C_R   0.719139 0.113646 0.451322 -0.170343
C57   C     C_R   0.179271 0.155023 0.418219 0.192821
C58   C     C_R   0.280862 0.886357 0.548683 -0.170362
C59   C     C_R   0.280282 0.113090 0.545913 -0.172098
C60   C     C_R   0.719712 0.886904 0.454061 -0.172069
C61   C     C_R   0.350826 0.737146 0.442288 -0.192904
C62   C     C_R   0.649178 0.262863 0.557708 -0.193023
C63   C     C_R   0.649594 0.737166 0.558062 -0.190132
C64   C     C_R   0.350354 0.262867 0.441871 -0.190090
C65   C     C_R   0.762812 0.094162 0.450739 -0.190923
C66   C     C_R   0.237189 0.905840 0.549266 -0.190955
C67   C     C_R   0.236635 0.093550 0.546654 -0.192374
C68   C     C_R   0.820721 0.844983 0.581774 0.192814
C69   C     C_R   0.763362 0.906446 0.453329 -0.192387
C70   C     C_R   0.362576 0.695674 0.508861 0.061709
C71   C     C_R   0.637435 0.304337 0.491140 0.061664
C72   C     C_R   0.641351 0.693667 0.495328 0.061081
C73   C     C_R   0.358634 0.306340 0.504663 0.061118
C74   C     C_R   0.813284 0.117119 0.512429 0.057568
C75   C     C_R   0.186718 0.882881 0.487576 0.057571
C76   C     C_R   0.186264 0.116483 0.485700 0.051922
C77   C     C_R   0.813732 0.883518 0.514292 0.051909
C78   C     C_R   0.332885 0.765740 0.575226 -0.194181
C79   C     C_R   0.667131 0.234272 0.424782 -0.194152
C80   C     C_R   0.672015 0.762729 0.429744 -0.196203
C81   C     C_R   0.455521 0.419356 0.256436 -0.145879
C82   C     C_R   0.328026 0.237234 0.570284 -0.196214
C83   C     C_R   0.776659 0.173018 0.582203 -0.193494
C84   C     C_R   0.223345 0.826983 0.417803 -0.193687
C85   C     C_R   0.222764 0.171679 0.415477 -0.189457
C86   C     C_R   0.777226 0.828328 0.584510 -0.189451
C87   C     C_R   0.316819 0.804564 0.504436 0.089542
C88   C     C_R   0.683187 0.195444 0.495565 0.089460
C89   C     C_R   0.684332 0.804023 0.496834 0.087326
C90   C     C_R   0.315665 0.195970 0.503135 0.087356
C91   C     C_R   0.725867 0.154970 0.515125 0.087994
C92   C     C_R   0.460809 0.595442 0.271280 -0.139382
C93   C     C_R   0.274136 0.845033 0.484880 0.088014
C94   C     C_R   0.273522 0.154159 0.482373 0.085120
C95   C     C_R   0.726470 0.845841 0.517603 0.085093
C96   C     C_R   0.395229 0.677629 0.181198 0.127570
C97   C     C_R   0.604749 0.322151 0.818469 0.127604
C98   C     C_R   0.628974 0.613953 0.888602 0.124453
C99   C     C_R   0.371028 0.386039 0.111401 0.124440
C100  C     C_R   0.871364 0.117651 0.115492 0.123089
C101  C     C_R   0.128710 0.882314 0.884450 0.123290
C102  C     C_R   0.092739 0.199069 0.779338 0.119016
C103  C     C_R   0.539185 0.404474 0.728648 -0.139336
C104  C     C_R   0.907260 0.800935 0.220653 0.118996
C105  C     C_R   0.404697 0.750425 0.091594 -0.195186
C106  C     C_R   0.595045 0.248879 0.907267 -0.195253
C107  C     C_R   0.634373 0.649666 0.021215 -0.181096
C108  C     C_R   0.365631 0.350323 0.978789 -0.181073
C109  C     C_R   0.862472 0.149266 0.978728 -0.192526
C110  C     C_R   0.137990 0.851519 0.021840 -0.192552
C111  C     C_R   0.081446 0.277162 0.861268 -0.179699
C112  C     C_R   0.918545 0.722852 0.138705 -0.179662
C113  C     C_R   0.420729 0.697890 0.139802 -0.158772
C114  C     C_R   0.032618 0.107122 0.708649 -0.122376
C115  C     C_R   0.579058 0.301549 0.859370 -0.158730
C116  C     C_R   0.604569 0.627691 0.934637 -0.164509
C117  C     C_R   0.395434 0.372295 0.065369 -0.164517
C118  C     C_R   0.893565 0.127099 0.064885 -0.153190
C119  C     C_R   0.106762 0.873531 0.935587 -0.153174
C120  C     C_R   0.063995 0.224614 0.812004 -0.138711
C121  C     C_R   0.935998 0.775397 0.187975 -0.138692
C122  C     C_R   0.355134 0.711907 0.176984 -0.251642
C123  C     C_R   0.645017 0.288085 0.822907 -0.251638
C124  C     C_R   0.684031 0.619286 0.932759 -0.249500
C125  C     C_R   0.967382 0.892879 0.291350 -0.122345
C126  C     C_R   0.315970 0.380710 0.067241 -0.249506
C127  C     C_R   0.817350 0.127417 0.076640 -0.250439
C128  C     C_R   0.182596 0.871987 0.922791 -0.250893
C129  C     C_R   0.137014 0.229323 0.791423 -0.238658
C130  C     C_R   0.862988 0.770678 0.208571 -0.238649
C131  C     C_R   0.337722 0.764350 0.127683 0.080842
C132  C     C_R   0.662359 0.235491 0.871853 0.080873
C133  C     C_R   0.714759 0.641490 0.019649 0.083873
C134  C     C_R   0.285244 0.358505 0.980350 0.083878
C135  C     C_R   0.785384 0.148603 0.990361 0.081660
C136  C     C_R   0.956286 0.082797 0.258378 -0.100317
C137  C     C_R   0.214734 0.851243 0.009262 0.081715
C138  C     C_R   0.156140 0.281438 0.842839 0.083950
C139  C     C_R   0.843859 0.718565 0.157149 0.083950
C140  C     C_R   0.362379 0.782720 0.082864 0.181639
C141  C     C_R   0.637492 0.216766 0.916157 0.181650
C142  C     C_R   0.688862 0.659074 0.062540 0.170724
C143  C     C_R   0.311141 0.340919 0.937460 0.170706
C144  C     C_R   0.809024 0.162532 0.942647 0.177205
C145  C     C_R   0.191341 0.837898 0.057542 0.177232
C146  C     C_R   0.128545 0.304137 0.880387 0.167436
C147  C     C_R   0.043719 0.917174 0.741618 -0.100240
C148  C     C_R   0.871451 0.695872 0.119594 0.167412
C149  C     C_R   0.292892 0.795369 0.114121 0.075454
C150  C     C_R   0.707291 0.204632 0.885551 0.075512
C151  C     C_R   0.769591 0.652963 0.060612 0.071939
C152  C     C_R   0.230411 0.347036 0.939383 0.071932
C153  C     C_R   0.732120 0.163717 0.955923 0.074740
C154  C     C_R   0.267927 0.836010 0.043420 0.074714
C155  C     C_R   0.205177 0.307396 0.866202 0.069211
C156  C     C_R   0.794824 0.692606 0.133790 0.069217
C157  C     C_R   0.630284 0.605486 0.573161 -0.119090
C158  C     C_R   0.354059 0.710666 0.576709 0.193359
C159  C     C_R   0.369705 0.394525 0.426838 -0.119105
C160  C     C_R   0.370230 0.605675 0.429373 -0.115901
C161  C     C_R   0.629781 0.394335 0.570622 -0.115894
C162  C     C_R   0.143822 0.083226 0.569676 -0.145381
C163  C     C_R   0.856178 0.916773 0.430322 -0.145379
C164  C     C_R   0.856499 0.083938 0.429484 -0.117757
C165  C     C_R   0.143501 0.916061 0.570517 -0.117762
C166  C     C_R   0.730144 0.215390 0.835517 -0.215354
C167  C     C_R   0.270257 0.785028 0.164600 -0.215081
C168  C     C_R   0.200543 0.371802 0.971163 -0.201337
H1    H     H_    0.518593 0.576633 0.767716 0.110029
H2    H     H_    0.336293 0.695988 0.209717 0.114105
H3    H     H_    0.297563 0.389456 0.103274 0.114600
H4    H     H_    0.702437 0.610545 0.896722 0.114595
H5    H     H_    0.198764 0.874830 0.882347 0.120301
H6    H     H_    0.800922 0.123781 0.116600 0.119786
H7    H     H_    0.841340 0.790406 0.234055 0.115384
H8    H     H_    0.158665 0.209591 0.765950 0.115392
H9    H     H_    0.547077 0.326249 0.855462 0.127440
H10   H     H_    0.452576 0.673008 0.143528 0.127474
H11   H     H_    0.437725 0.376300 0.096910 0.128933
H12   H     H_    0.481408 0.423364 0.232285 0.110016
H13   H     H_    0.562278 0.623684 0.903097 0.128919
H14   H     H_    0.065348 0.881652 0.908418 0.128241
H15   H     H_    0.935079 0.119403 0.092421 0.128542
H16   H     H_    0.970883 0.796828 0.197444 0.146825
H17   H     H_    0.029107 0.203188 0.802528 0.146825
H18   H     H_    0.424101 0.764632 0.058396 0.131150
H19   H     H_    0.575478 0.234399 0.940069 0.131040
H20   H     H_    0.614380 0.662106 0.054197 0.140734
H21   H     H_    0.385624 0.337882 0.945806 0.140763
H22   H     H_    0.880786 0.158731 0.942068 0.140492
H23   H     H_    0.487445 0.599810 0.249004 0.101957
H24   H     H_    0.119865 0.842537 0.058930 0.140420
H25   H     H_    0.059660 0.294883 0.888552 0.141753
H26   H     H_    0.940328 0.705136 0.111411 0.141776
H27   H     H_    0.710285 0.240915 0.775222 0.127863
H28   H     H_    0.290224 0.759687 0.225067 0.127776
H29   H     H_    0.215700 0.407265 0.019699 0.136334
H30   H     H_    0.784300 0.592735 0.980296 0.136330
H31   H     H_    0.281269 0.893849 0.959595 0.129908
H32   H     H_    0.718432 0.105357 0.038851 0.129861
H33   H     H_    0.788414 0.731385 0.239647 0.143308
H34   H     H_    0.512555 0.400056 0.750925 0.101959
H35   H     H_    0.211586 0.268620 0.760342 0.143317
H36   H     H_    0.658803 0.617259 0.641370 0.102144
H37   H     H_    0.341185 0.382755 0.358627 0.102126
H38   H     H_    0.339415 0.616514 0.362565 0.096418
H39   H     H_    0.660608 0.383503 0.637424 0.096364
H40   H     H_    0.178873 0.080711 0.635667 0.088251
H41   H     H_    0.821128 0.919287 0.364331 0.088241
H42   H     H_    0.822024 0.082473 0.362704 0.088465
H43   H     H_    0.177974 0.917524 0.637299 0.088434
H44   H     H_    0.564072 0.617059 0.357717 0.121784
H45   H     H_    0.001311 0.118702 0.718262 0.120799
H46   H     H_    0.435899 0.382968 0.642280 0.121787
H47   H     H_    0.443945 0.620401 0.645409 0.125441
H48   H     H_    0.556061 0.379603 0.354589 0.125433
H49   H     H_    0.081386 0.079394 0.354571 0.113775
H50   H     H_    0.918612 0.920607 0.645427 0.113792
H51   H     H_    0.916458 0.077657 0.643756 0.114563
H52   H     H_    0.083542 0.922342 0.356245 0.114547
H53   H     H_    0.346033 0.601331 0.250154 0.094081
H54   H     H_    0.653962 0.398682 0.749773 0.093938
H55   H     H_    0.658812 0.579231 0.763353 0.090484
H56   H     H_    0.998689 0.881300 0.281737 0.120790
H57   H     H_    0.341188 0.420767 0.236647 0.090482
H58   H     H_    0.841883 0.081171 0.240031 0.083715
H59   H     H_    0.158135 0.919008 0.760068 0.083683
H60   H     H_    0.144889 0.118792 0.718757 0.093348
H61   H     H_    0.855112 0.881207 0.281243 0.093344
H62   H     H_    0.313741 0.820016 0.382979 0.129915
H63   H     H_    0.686252 0.179989 0.617011 0.130073
H64   H     H_    0.682656 0.822789 0.613404 0.129704
H65   H     H_    0.317260 0.177264 0.386473 0.129698
H66   H     H_    0.679900 0.100357 0.398115 0.124807
H67   H     H_    0.982594 0.080748 0.234862 0.098817
H68   H     H_    0.320101 0.899648 0.601890 0.124782
H69   H     H_    0.319529 0.100297 0.599038 0.125269
H70   H     H_    0.680467 0.899692 0.400927 0.125286
H71   H     H_    0.781749 0.206629 0.629722 0.153331
H72   H     H_    0.218256 0.793373 0.370284 0.153364
H73   H     H_    0.217764 0.205179 0.368292 0.157856
H74   H     H_    0.782222 0.794830 0.631696 0.157858
H75   H     H_    0.322636 0.775012 0.623474 0.156185
H76   H     H_    0.677386 0.225001 0.376542 0.156215
H77   H     H_    0.684166 0.771021 0.383777 0.152431
H78   H     H_    0.017415 0.919184 0.765145 0.098905
H79   H     H_    0.315910 0.228915 0.616292 0.152424
H80   H     H_    0.796656 0.202659 0.823662 0.142765
H81   H     H_    0.204039 0.798394 0.177119 0.142578
H82   H     H_    0.128322 0.370561 0.967391 0.141612
H83   H     H_    0.871672 0.629449 0.032587 0.141614
H84   H     H_    0.362544 0.847628 0.994694 0.133151
H85   H     H_    0.637059 0.151388 0.003532 0.133092
H86   H     H_    0.698271 0.701057 0.178754 0.153214
H87   H     H_    0.301732 0.298941 0.821242 0.153240
H88   H     H_    0.357666 0.726737 0.390287 0.122681
H89   H     H_    0.664036 0.304268 0.790614 0.114080
H90   H     H_    0.642333 0.273272 0.609704 0.122817
H91   H     H_    0.640783 0.727976 0.607986 0.130690
H92   H     H_    0.359128 0.272080 0.391909 0.130673
H93   H     H_    0.756764 0.063256 0.399599 0.116861
H94   H     H_    0.243236 0.936746 0.600405 0.116850
H95   H     H_    0.242712 0.062852 0.597633 0.118400
H96   H     H_    0.757286 0.937140 0.402346 0.118400
I1    I     I_    0.360310 0.650374 0.673125 -0.412381
I2    I     I_    0.639714 0.349643 0.326894 -0.412208
I3    I     I_    0.652200 0.643610 0.341294 -0.437337
I4    I     I_    0.347865 0.356318 0.658824 -0.437489
I5    I     I_    0.892053 0.201337 0.670987 -0.473040
I6    I     I_    0.107951 0.798662 0.329017 -0.472894
I7    I     I_    0.107996 0.200904 0.328913 -0.425596
I8    I     I_    0.891994 0.799104 0.671091 -0.425361
N1    N     N_R   0.532910 0.558440 0.665240 -0.044097
N2    N     N_R   0.402970 0.441090 0.454460 -0.043856
N3    N     N_R   0.402970 0.558910 0.454460 -0.043307
N4    N     N_R   0.597030 0.441090 0.545540 -0.043306
N5    N     N_R   0.097030 0.058910 0.545540 -0.039461
N6    N     N_R   0.902970 0.941090 0.454460 -0.039460
N7    N     N_R   0.902970 0.058910 0.454460 -0.040196
N8    N     N_R   0.097030 0.941090 0.545540 -0.040185
N9    N     N_R   0.566200 0.559270 0.454460 -0.045841
N10   N     N_R   0.433800 0.440730 0.545540 -0.045844
N11   N     N_R   0.433800 0.559270 0.545540 -0.045650
N12   N     N_R   0.467090 0.441560 0.334760 -0.044091
N13   N     N_R   0.566200 0.440730 0.454460 -0.045652
N14   N     N_R   0.066200 0.059270 0.454460 -0.045625
N15   N     N_R   0.933800 0.940730 0.545540 -0.045630
N16   N     N_R   0.933800 0.059270 0.545540 -0.045061
N17   N     N_R   0.066200 0.940730 0.454460 -0.045062
N18   N     N_R   0.421050 0.559750 0.334770 -0.039556
N19   N     N_R   0.578950 0.440250 0.665230 -0.039563
N20   N     N_R   0.578950 0.559750 0.665230 -0.041825
N21   N     N_R   0.421050 0.440250 0.334770 -0.041818
N22   N     N_R   0.921050 0.059750 0.334770 -0.040204
N23   N     N_R   0.467090 0.558440 0.334760 -0.041051
N24   N     N_R   0.078950 0.940250 0.665230 -0.040162
N25   N     N_R   0.078950 0.059750 0.665230 -0.042151
N26   N     N_R   0.921050 0.940250 0.334770 -0.042154
N27   N     N_R   0.532910 0.441560 0.665240 -0.041051
N28   N     N_R   0.032910 0.058440 0.665240 -0.045140
N29   N     N_R   0.967090 0.941560 0.334760 -0.045137
N30   N     N_R   0.967090 0.058440 0.334760 -0.042409
N31   N     N_R   0.032910 0.941560 0.665240 -0.042427
N32   N     N_R   0.597030 0.558910 0.545540 -0.043858
Ni1   Ni    Ni4+2 0.483090 0.500000 0.604440 0.236970
Ni2   Ni    Ni4+2 0.516910 0.500000 0.395560 0.236946
Ni3   Ni    Ni4+2 0.983090 0.000000 0.604440 0.218632
Ni4   Ni    Ni4+2 0.016910 0.000000 0.395560 0.218642
Ni5   Ni    Ni4+2 0.586780 0.500000 0.604440 0.220984
Ni6   Ni    Ni4+2 0.413220 0.500000 0.395560 0.220996
Ni7   Ni    Ni4+2 0.086780 0.000000 0.604440 0.212254
Ni8   Ni    Ni4+2 0.913220 0.000000 0.395560 0.212238

loop_
_geom_bond_atom_site_label_1
_geom_bond_atom_site_label_2
_ccdc_geom_bond_type
C61   C70   A    
N24   N31   A    
C31   C42   A    
C100  C127  A    
C132  C150  A    
N2    N10   A    
C163  H41   S    
N7    Ni8   S    
C128  H5    S    
C124  C133  A    
C57   C76   A    
C59   H69   S    
C68   I8    S    
C52   C61   A    
C48   C162  A    
C54   C63   A    
C136  H67   S    
N30   Ni4   S    
C101  C128  A    
C7    H35   S    
C131  C140  A    
N26   Ni8   S    
C134  C143  A    
C4    H31   S    
C164  H42   S    
C122  H2    S    
C133  C151  A    
C97   C115  A    
C110  C145  A    
C62   H90   S    
C21   C48   A    
C45   C160  A    
C35   I5    S    
C42   C147  A    
C109  C118  A    
C5    H32   S    
N4    N13   A    
C147  N31   A    
C168  H29   S    
C50   C164  A    
C28   N20   A    
N10   Ni1   S    
C37   C96   S    
C119  H14   S    
C17   C43   A    
C18   C44   A    
C15   C142  A    
C124  H4    S    
C86   H74   S    
C41   C100  S    
C160  N3    A    
C47   C71   S    
C115  H9    S    
C22   C49   A    
C46   C84   A    
N21   Ni6   S    
C131  C149  A    
C2    C71   A    
C83   C91   A    
C31   N24   A    
C125  H56   S    
C68   C77   A    
C26   N18   A    
C78   H75   S    
C81   H12   S    
C12   H84   S    
C67   H95   S    
C13   C72   A    
C19   N11   A    
N8    N17   A    
C106  C115  A    
C105  C140  A    
C57   C85   A    
C109  C144  A    
C19   H47   S    
C84   C93   A    
C20   C47   A    
C3    C11   A    
C86   C95   A    
C160  H38   S    
C60   C95   A    
N23   Ni2   S    
C126  C134  A    
C10   C168  A    
C44   C159  A    
C161  H39   S    
C25   H52   S    
C117  H11   S    
C78   C87   A    
C123  C132  A    
C30   H58   S    
C69   C77   A    
C17   H44   S    
C123  H89   S    
N8    Ni7   S    
C98   C124  A    
C92   N23   A    
C133  C142  A    
C105  C113  A    
C55   C90   A    
C50   C74   S    
C16   H87   S    
C11   C148  A    
C57   I7    S    
C150  C166  A    
C85   C94   A    
C59   C67   A    
N12   Ni2   S    
C78   C158  A    
C64   C73   A    
C30   C41   A    
C2    C79   A    
C36   C99   S    
N3    N11   A    
C21   N14   A    
C109  H22   S    
C92   H23   S    
C125  N29   A    
C23   N16   A    
C127  H6    S    
C46   I6    S    
C21   H49   S    
C116  H13   S    
C56   H66   S    
C18   H46   S    
C33   H61   S    
C54   H64   S    
C46   C75   A    
C162  N5    A    
C1    C34   A    
C159  H37   S    
C99   C126  A    
C139  C148  A    
C33   C40   A    
C6    H33   S    
C111  C146  A    
C29   N21   A    
N5    Ni7   S    
N27   Ni1   S    
N6    Ni8   S    
C107  H20   S    
C65   C74   A    
C10   H82   S    
C105  H18   S    
C38   C103  A    
C63   H91   S    
C99   C117  A    
C88   C91   S    
C36   C81   A    
N24   Ni7   S    
C7    C155  A    
C112  H26   S    
C10   C146  A    
C121  H16   S    
N28   Ni3   S    
C51   C165  A    
C4    C12   A    
C165  N8    A    
C42   C101  S    
C122  C131  A    
C39   C102  S    
C132  C141  A    
C37   C92   A    
C162  H40   S    
C108  C117  A    
C65   H93   S    
C43   C157  A    
C110  C119  A    
C19   C45   A    
C130  H7    S    
C112  C121  A    
C97   C123  A    
C60   C69   A    
C138  C146  A    
C40   C125  A    
C87   C93   S    
C49   C77   S    
C62   C71   A    
C20   N13   A    
C107  C116  A    
C49   C163  A    
C22   N15   A    
N2    Ni6   S    
C27   N19   A    
C6    C156  A    
C138  C155  A    
C4    C154  A    
C35   C74   A    
N19   Ni5   S    
C149  C167  A    
C120  H17   S    
C118  H15   S    
C103  N27   A    
C20   H48   S    
C137  C145  A    
C58   C93   A    
C127  C135  A    
C106  H19   S    
C58   H68   S    
C136  N30   A    
C24   C73   A    
C27   C38   A    
C3    H30   S    
C32   C39   A    
C80   C89   A    
C48   C76   S    
N20   Ni5   S    
C56   C91   A    
C32   H60   S    
C147  H78   S    
C150  C153  A    
C12   C140  A    
C164  N7    A    
C59   C94   A    
N13   Ni2   S    
C17   N9    A    
C113  H10   S    
C13   C80   A    
C28   C34   A    
C158  I1    S    
C104  C130  A    
C24   I4    S    
C114  N28   A    
C130  C139  A    
C79   C88   A    
C152  C168  A    
C90   C94   S    
C23   H51   S    
N32   Ni5   S    
C16   C143  A    
N6    N15   A    
C35   C83   A    
C23   C50   A    
C70   C158  A    
N26   N29   A    
C89   C95   S    
C149  C154  A    
C152  C155  A    
C134  C152  A    
C85   H73   S    
C79   H76   S    
N9    N32   A    
C5    C14   A    
C111  H25   S    
C33   N26   A    
C7    C16   A    
N18   Ni6   S    
C96   C113  A    
C100  C118  A    
C157  N32   A    
C102  C120  A    
C30   N22   A    
C106  C141  A    
N14   Ni4   S    
C45   C70   S    
C159  N2    A    
N15   Ni3   S    
C26   C37   A    
C82   C90   A    
C96   C122  A    
C103  H34   S    
C52   H62   S    
C66   C75   A    
C9    C145  A    
C34   C98   S    
C137  C154  A    
C44   C73   S    
N22   N30   A    
C47   C161  A    
N22   Ni8   S    
C63   C72   A    
C8    H80   S    
C66   H94   S    
C108  C143  A    
C2    I2    S    
C43   C72   S    
C31   H59   S    
C68   C86   A    
C167  H28   S    
C102  C129  A    
C29   H57   S    
N17   Ni4   S    
C29   C36   A    
C82   H79   S    
C139  C156  A    
C51   C75   S    
C56   C65   A    
C110  H24   S    
C24   C82   A    
N9    Ni2   S    
N25   Ni7   S    
C126  H3    S    
C6    C15   A    
C58   C66   A    
C129  C138  A    
C129  H8    S    
N1    N20   A    
N19   N27   A    
C1    N1    A    
C22   H50   S    
C14   C141  A    
C114  H45   S    
C84   H72   S    
C81   N12   A    
C55   H65   S    
C38   C97   S    
C13   I3    S    
C69   H96   S    
C83   H71   S    
N18   N23   A    
C101  C119  A    
C9    C167  A    
C166  H27   S    
C54   C89   A    
N1    Ni1   S    
C157  H36   S    
C165  H43   S    
N31   Ni3   S    
C104  C121  A    
N29   Ni4   S    
C151  C156  A    
C11   H83   S    
C112  C148  A    
C25   N17   A    
C111  C120  A    
C9    H81   S    
C128  C137  A    
C25   C51   A    
N16   Ni3   S    
C161  N4    A    
C40   C104  S    
C53   C62   A    
C98   C116  A    
C18   N10   A    
C39   C114  A    
C55   C64   A    
C26   H53   S    
C8    C144  A    
C107  C142  A    
C8    C166  A    
C53   H63   S    
N3    Ni6   S    
C135  C144  A    
C61   H88   S    
N25   N28   A    
C108  H21   S    
C60   H70   S    
C27   H54   S    
C52   C87   A    
N4    Ni5   S    
C32   N25   A    
C163  N6    A    
N5    N14   A    
C3    C151  A    
C135  C153  A    
N7    N16   A    
C14   H85   S    
N12   N21   A    
C28   H55   S    
C5    C153  A    
C1    H1    S    
C53   C88   A    
N11   Ni1   S    
C80   H77   S    
C67   C76   A    
C41   C136  A    
C64   H92   S    
C15   H86   S    
