data_mof_unit_12385.cif
_audit_creation_date              2012-12-10T17:10:25-0500
_audit_creation_method            fapswitch 2.2
_symmetry_space_group_name_H-M    P1
_symmetry_Int_Tables_number       1
_space_group_crystal_system       triclinic
_cell_length_a                    10.836932
_cell_length_b                    13.001685
_cell_length_c                    11.766684
_cell_angle_alpha                 100.291112
_cell_angle_beta                  92.695896
_cell_angle_gamma                 92.190772
_cell_volume                      1627.59521085

loop_
_atom_site_label
_atom_site_type_symbol
_atom_type_description
_atom_site_fract_x
_atom_site_fract_y
_atom_site_fract_z
_atom_type_partial_charge
C1    C     C_R   0.498581 0.299146 0.478296 0.802925
C2    C     C_R   0.501416 0.700854 0.521704 0.802928
C3    C     C_R   0.501841 0.814595 0.534206 -0.052841
C4    C     C_R   0.498147 0.185405 0.465793 -0.052841
C5    C     C_R   0.484476 0.013255 0.345388 -0.210064
C6    C     C_R   0.515502 0.986745 0.654610 -0.210061
C7    C     C_R   0.486818 0.121552 0.355898 -0.198423
C8    C     C_R   0.513159 0.878449 0.644101 -0.198419
C9    C     C_R   0.508715 0.140078 0.565109 -0.262101
C10   C     C_R   0.491272 0.859921 0.434890 -0.262102
C11   C     C_R   0.506185 0.031948 0.555355 0.172759
C12   C     C_R   0.493797 0.968052 0.444643 0.172760
C13   C     C_R   0.385657 0.399084 0.021366 -0.313307
C14   C     C_R   0.614351 0.600908 0.978634 -0.313319
C15   C     C_R   0.393338 0.409276 0.141683 0.324173
C16   C     C_R   0.606655 0.590730 0.858319 0.324193
C17   C     C_R   0.548942 0.545504 0.157625 0.289340
C18   C     C_R   0.451067 0.454488 0.842374 0.289335
C19   C     C_R   0.541146 0.537274 0.034480 -0.053835
C20   C     C_R   0.458868 0.462714 0.965519 -0.053832
C21   C     C_R   0.263102 0.511398 0.503327 0.808363
C22   C     C_R   0.736899 0.488604 0.496674 0.808365
C23   C     C_R   0.121037 0.525354 0.721493 -0.206062
C24   C     C_R   0.878967 0.474656 0.278510 -0.206061
C25   C     C_R   0.063974 0.489346 0.811724 -0.141496
C26   C     C_R   0.936030 0.510667 0.188281 -0.141496
C27   C     C_R   0.950916 0.433308 0.790919 0.207892
C28   C     C_R   0.049086 0.566707 0.209088 0.207872
C29   C     C_R   0.889873 0.422213 0.681951 -0.208318
C30   C     C_R   0.110128 0.577800 0.318056 -0.208359
C31   C     C_R   0.941463 0.467431 0.593014 0.044680
C32   C     C_R   0.058539 0.532579 0.406990 0.044692
C33   C     C_R   0.065551 0.505751 0.607800 0.091819
C34   C     C_R   0.934451 0.494257 0.392204 0.091824
C35   C     C_R   0.871932 0.474937 0.490456 -0.208845
C36   C     C_R   0.128069 0.525069 0.509547 -0.208838
Cu1   Cu    Cu3+1 0.509250 0.507730 0.615930 0.944392
Cu2   Cu    Cu3+1 0.490750 0.492270 0.384070 0.944389
H1    H     H_    0.319258 0.341527 0.972834 0.164351
H2    H     H_    0.680744 0.658470 0.027166 0.164354
H3    H     H_    0.206352 0.571714 0.743678 0.174755
H4    H     H_    0.793653 0.428294 0.256323 0.174758
H5    H     H_    0.109670 0.502732 0.897127 0.169485
H6    H     H_    0.890335 0.497281 0.102878 0.169489
H7    H     H_    0.802308 0.377670 0.667533 0.153178
H8    H     H_    0.197694 0.622341 0.332476 0.153180
H9    H     H_    0.481003 0.811358 0.349699 0.150058
H10   H     H_    0.518989 0.188641 0.650300 0.150059
H11   H     H_    0.520254 0.844968 0.721882 0.151655
H12   H     H_    0.479715 0.155034 0.278117 0.151682
H13   H     H_    0.475392 0.964983 0.259950 0.133664
H14   H     H_    0.524581 0.035017 0.740048 0.133663
N1    N     N_R   0.523180 0.519350 0.790130 -0.189849
N2    N     N_R   0.476820 0.480650 0.209870 -0.189850
O1    O     O_R   0.506570 0.354460 0.582000 -0.560434
O2    O     O_R   0.493430 0.645540 0.418000 -0.560438
O3    O     O_R   0.490940 0.341410 0.386200 -0.607040
O4    O     O_R   0.509060 0.658590 0.613800 -0.607027
O5    O     O_R   0.327470 0.506520 0.597900 -0.561229
O6    O     O_R   0.672530 0.493480 0.402100 -0.561224
O7    O     O_R   0.311840 0.493460 0.402100 -0.597348
O8    O     O_R   0.688160 0.506540 0.597900 -0.597349
N3    N     N_3   0.103327 0.609510 0.118274 -0.607348
H15   H     H_    0.190146 0.578169 0.105722 0.215586
H16   H     H_    0.117291 0.690254 0.146229 0.215624
N4    N     N_3   0.896676 0.390506 0.881734 -0.607352
H17   H     H_    0.809856 0.421845 0.894286 0.215596
H18   H     H_    0.882715 0.309761 0.853781 0.215619
N5    N     N_3   0.370517 0.376730 0.771031 -0.522300
H19   H     H_    0.396131 0.303074 0.784815 0.187168
H20   H     H_    0.280151 0.387145 0.795907 0.201156
N6    N     N_3   0.629489 0.623264 0.228968 -0.522299
H21   H     H_    0.603870 0.696920 0.215184 0.187170
H22   H     H_    0.719856 0.612854 0.204093 0.201156
N7    N     N_3   0.693757 0.655311 0.811913 -0.604008
H23   H     H_    0.651172 0.704930 0.764069 0.245472
H24   H     H_    0.760553 0.611010 0.768189 0.256322
N8    N     N_3   0.306189 0.344741 0.188095 -0.604007
H25   H     H_    0.348726 0.295156 0.236013 0.245528
H26   H     H_    0.239380 0.389081 0.231753 0.256293

loop_
_geom_bond_atom_site_label_1
_geom_bond_atom_site_label_2
_ccdc_geom_bond_type
N4    H18   S    
N3    H16   S    
C27   C29   A    
C16   N7    S    
C24   H4    S    
C19   C20   A    
C25   H5    S    
Cu1   O8    S    
C26   H6    S    
C21   C36   S    
C22   C35   S    
C32   C36   A    
C24   C26   A    
C21   O5    A    
C22   O6    A    
N8    H26   S    
C15   N8    S    
C33   C36   A    
C34   C35   A    
N5    H20   S    
C16   N1    A    
C18   N1    A    
C23   C33   A    
C31   C33   A    
C21   O7    A    
Cu1   O4    S    
Cu2   O7    S    
Cu1   N1    S    
C18   N5    S    
N4    H17   S    
C4    C7    A    
C15   N2    A    
C5    C12   A    
N6    H22   S    
C3    C8    A    
C6    C11   A    
C5    C7    A    
N8    H25   S    
C6    C8    A    
C24   C34   A    
C29   H7    S    
C32   C34   A    
N7    H23   S    
Cu1   Cu2   S    
C1    O3    A    
C22   O8    A    
Cu2   O3    S    
C9    C11   A    
Cu2   N2    S    
N7    H24   S    
Cu1   O5    S    
C10   C12   A    
C9    H10   S    
Cu2   O6    S    
C13   C15   A    
C14   C16   A    
C13   C20   A    
C14   C19   A    
C30   H8    S    
C7    H12   S    
N6    H21   S    
C11   C12   A    
C2    O4    A    
C25   C27   A    
C26   C28   A    
C23   H3    S    
C1    C4    S    
C28   C30   A    
C2    C3    S    
C1    O1    A    
C29   C31   A    
C3    C10   A    
C2    O2    A    
C30   C32   A    
C8    H11   S    
C31   C35   A    
C17   C19   A    
C18   C20   A    
C23   C25   A    
N5    H19   S    
C13   H1    S    
C14   H2    S    
N3    H15   S    
Cu1   O1    S    
C28   N3    S    
Cu2   O2    S    
C17   N6    S    
C10   H9    S    
C27   N4    S    
C5    H13   S    
C6    H14   S    
C4    C9    A    
C17   N2    A    
