data_mof_unit_53694.cif
_audit_creation_date              2012-12-10T17:45:34-0500
_audit_creation_method            fapswitch 2.2
_symmetry_space_group_name_H-M    P1
_symmetry_Int_Tables_number       1
_space_group_crystal_system       triclinic
_cell_length_a                    11.534169
_cell_length_b                    10.625484
_cell_length_c                    10.015157
_cell_angle_alpha                 90.552765
_cell_angle_beta                  91.054353
_cell_angle_gamma                 93.246463
_cell_volume                      1225.17133044

loop_
_atom_site_label
_atom_site_type_symbol
_atom_type_description
_atom_site_fract_x
_atom_site_fract_y
_atom_site_fract_z
_atom_type_partial_charge
C1    C     C_R   0.501489 0.261151 0.499642 0.894944
C2    C     C_R   0.502503 0.871745 0.501920 -0.192325
C3    C     C_R   0.361926 0.306573 0.124747 0.355366
C4    C     C_R   0.282282 0.499466 0.499047 0.885228
C5    C     C_R   0.316168 0.203103 0.045597 0.228377
C6    C     C_R   0.311725 0.214213 0.907267 0.402268
C7    C     C_R   0.363501 0.320241 0.850103 -0.187049
C8    C     C_R   0.433334 0.409498 0.923743 -0.076861
C9    C     C_R   0.433467 0.406506 0.067356 -0.028855
C10   C     C_R   0.564078 0.587737 0.076014 0.489226
C11   C     C_R   0.565356 0.587182 0.932431 0.363209
C12   C     C_R   0.813714 0.082922 0.603920 -0.120586
C13   C     C_R   0.500284 0.738939 0.500526 0.836211
C14   C     C_R   0.717742 0.501260 0.500985 0.851486
C15   C     C_1   0.161642 0.499588 0.497546 -0.153581
C16   C     C_1   0.059381 0.499960 0.498788 0.025794
C17   C     C_1   0.940639 0.500598 0.501392 0.017164
C18   C     C_1   0.838386 0.501085 0.502555 -0.164666
C19   C     C_R   0.713030 0.142987 0.570209 -0.147259
C20   C     C_R   0.812665 0.951923 0.603614 -0.100220
C21   C     C_R   0.710843 0.880699 0.570021 -0.107440
C22   C     C_R   0.607474 0.940247 0.536596 0.060357
C23   C     C_R   0.609069 0.072090 0.536029 0.083679
C24   C     C_R   0.506373 0.129126 0.499285 -0.179260
C25   C     C_R   0.404225 0.060450 0.464778 -0.173513
C26   C     C_R   0.400271 0.931311 0.466210 0.452084
H1    H     H_    0.326076 0.107918 0.439323 0.171009
H2    H     H_    0.671871 0.736228 0.093011 0.371198
H3    H     H_    0.246811 0.270612 0.260615 0.328592
H4    H     H_    0.303688 0.085768 0.192549 0.360994
H5    H     H_    0.891018 0.905304 0.629091 0.157431
H6    H     H_    0.714230 0.779203 0.569915 0.124340
H7    H     H_    0.221150 0.054938 0.876981 0.395671
H8    H     H_    0.347454 0.328775 0.746091 0.244126
H9    H     H_    0.643581 0.653748 0.777999 0.388344
H10   H     H_    0.717482 0.244767 0.570590 0.132229
H11   H     H_    0.892842 0.138179 0.629720 0.156620
H12   H     H_    0.298273 0.777266 0.450631 0.326482
N1    N     N_R   0.498930 0.498800 0.142780 -0.120851
N2    N     N_R   0.498900 0.498720 0.857170 -0.151970
O1    O     O_R   0.500000 0.316780 0.614690 -0.632891
O2    O     O_3   0.635461 0.677947 0.871867 -0.782360
O3    O     O_3   0.295090 0.868416 0.433292 -0.741648
O4    O     O_3   0.629719 0.675709 0.151719 -0.717852
O5    O     O_3   0.324238 0.315292 0.252424 -0.722168
O6    O     O_3   0.268464 0.094548 0.102406 -0.755262
O7    O     O_R   0.499990 0.316750 0.385360 -0.555431
O8    O     O_R   0.334450 0.500030 0.614670 -0.634529
O9    O     O_R   0.334440 0.500000 0.385330 -0.538785
O10   O     O_R   0.500010 0.683250 0.614640 -0.617445
O11   O     O_R   0.500000 0.683220 0.385310 -0.551803
O12   O     O_R   0.665560 0.500000 0.614670 -0.647293
O13   O     O_R   0.665550 0.499970 0.385330 -0.564622
O14   O     O_3   0.255992 0.124824 0.823677 -0.745777
Zn1   Zn    Zn3+2 0.500010 0.500020 0.653130 0.956989
Zn2   Zn    Zn3+2 0.499990 0.499980 0.346870 1.052884

loop_
_geom_bond_atom_site_label_1
_geom_bond_atom_site_label_2
_ccdc_geom_bond_type
C2    C22   A    
O8    Zn1   S    
C19   C23   A    
C23   C24   A    
C6    C7    A    
C3    C9    A    
C25   H1    S    
O9    Zn2   S    
C5    O6    S    
C14   C18   S    
H4    O6    S    
O10   Zn1   S    
O12   Zn1   S    
C9    N1    A    
C4    O9    A    
N2    Zn1   S    
C12   C20   A    
C4    C15   S    
C17   C18   T    
C7    C8    A    
C2    C26   A    
C12   H11   S    
C21   C22   A    
C24   C25   A    
O7    Zn2   S    
C10   N1    A    
C6    O14   S    
C5    C6    A    
C12   C19   A    
C1    O1    A    
C7    H8    S    
H2    O4    S    
C26   O3    S    
C19   H10   S    
C11   N2    A    
C21   H6    S    
C14   O12   A    
C16   C17   S    
C10   C11   A    
C10   O4    S    
C13   O10   A    
H12   O3    S    
C14   O13   A    
C20   C21   A    
C1    C24   S    
O11   Zn2   S    
C4    O8    A    
O13   Zn2   S    
H7    O14   S    
C2    C13   S    
H9    O2    S    
C22   C23   A    
C1    O7    A    
C11   O2    S    
C8    N2    A    
C25   C26   A    
C13   O11   A    
C3    O5    S    
C15   C16   T    
O1    Zn1   S    
N1    Zn2   S    
H3    O5    S    
C8    C9    A    
C3    C5    A    
C20   H5    S    
