data_mof_unit_16514.cif
_audit_creation_date              2012-12-11T15:17:49-0500
_audit_creation_method            fapswitch 2.2
_symmetry_space_group_name_H-M    P1
_symmetry_Int_Tables_number       1
_space_group_crystal_system       triclinic
_cell_length_a                    15.720269
_cell_length_b                    15.743853
_cell_length_c                    34.472325
_cell_angle_alpha                 89.701862
_cell_angle_beta                  90.182393
_cell_angle_gamma                 119.740846
_cell_volume                      7407.88837388

loop_
_atom_site_label
_atom_site_type_symbol
_atom_type_description
_atom_site_fract_x
_atom_site_fract_y
_atom_site_fract_z
_atom_type_partial_charge
C1    C     C_R   0.578352 0.441369 0.554847 0.553045
C2    C     C_R   0.499600 0.987407 0.211937 0.348756
C3    C     C_R   0.488259 0.499993 0.211971 0.348862
C4    C     C_R   0.012332 0.511908 0.211932 0.348760
C5    C     C_R   0.020153 0.440159 0.851271 -0.116272
C6    C     C_R   0.559414 0.584176 0.850429 -0.119920
C7    C     C_R   0.342423 0.838584 0.835604 -0.113886
C8    C     C_R   0.434797 0.010144 0.353168 -0.116498
C9    C     C_R   0.573582 0.566344 0.353276 -0.116585
C10   C     C_R   0.991986 0.426048 0.353512 -0.116577
C11   C     C_R   0.047487 0.449876 0.890088 -0.126343
C12   C     C_R   0.558805 0.137235 0.555172 0.553447
C13   C     C_R   0.549905 0.601053 0.889300 -0.132754
C14   C     C_R   0.332602 0.827846 0.875746 -0.126953
C15   C     C_R   0.446799 0.042300 0.391350 -0.128712
C16   C     C_R   0.594209 0.554034 0.391471 -0.128876
C17   C     C_R   0.959521 0.405696 0.391705 -0.128749
C18   C     C_R   0.077677 0.616493 0.889547 -0.136503
C19   C     C_R   0.384127 0.463791 0.889446 -0.128520
C20   C     C_R   0.486534 0.828106 0.879675 -0.128527
C21   C     C_R   0.614252 0.074124 0.390598 -0.130208
C22   C     C_R   0.459088 0.387228 0.390825 -0.130399
C23   C     C_R   0.863229 0.421437 0.554844 0.553328
C24   C     C_R   0.925697 0.540048 0.390371 -0.130364
C25   C     C_R   0.050656 0.606926 0.850555 -0.120258
C26   C     C_R   0.393734 0.446741 0.850482 -0.115902
C27   C     C_R   0.496940 0.839896 0.839418 -0.115028
C28   C     C_R   0.602245 0.041925 0.352320 -0.117210
C29   C     C_R   0.438448 0.399531 0.352539 -0.117379
C30   C     C_R   0.958164 0.560412 0.352076 -0.117225
C31   C     C_R   0.026191 0.520127 0.830657 0.036094
C32   C     C_R   0.479936 0.509648 0.830226 0.035171
C33   C     C_R   0.425452 0.846399 0.817020 0.036125
C34   C     C_R   0.441482 0.578426 0.054941 0.555402
C35   C     C_R   0.513870 0.014193 0.332718 0.034722
C36   C     C_R   0.498774 0.487607 0.332865 0.034894
C37   C     C_R   0.986950 0.500429 0.332758 0.034773
C38   C     C_R   0.081343 0.539725 0.908944 0.025023
C39   C     C_R   0.460630 0.543932 0.908602 0.023785
C40   C     C_R   0.405208 0.824147 0.898298 0.020044
C41   C     C_R   0.538049 0.079023 0.409709 0.022488
C42   C     C_R   0.540316 0.462836 0.409835 0.022398
C43   C     C_R   0.921564 0.459421 0.409759 0.022492
C44   C     C_R   0.577881 0.442375 0.445619 0.552433
C45   C     C_R   0.137125 0.558614 0.054961 0.556393
C46   C     C_R   0.557828 0.135739 0.445598 0.553508
C47   C     C_R   0.864363 0.422114 0.445609 0.552749
C48   C     C_R   0.442093 0.578411 0.945425 0.542728
C49   C     C_R   0.135791 0.558085 0.945511 0.544496
C50   C     C_R   0.392016 0.809945 0.940681 0.567469
C51   C     C_R   0.920495 0.456589 0.590788 0.022563
C52   C     C_R   0.542607 0.462965 0.590712 0.022736
C53   C     C_R   0.533737 0.072320 0.589346 0.021518
C54   C     C_R   0.455158 0.916517 0.091679 0.022346
C55   C     C_R   0.462118 0.544218 0.091592 0.022458
C56   C     C_R   0.421490 0.862793 0.054973 0.567757
C57   C     C_R   0.082971 0.538171 0.091642 0.022481
C58   C     C_R   0.953309 0.399115 0.609751 -0.129570
C59   C     C_R   0.598555 0.553639 0.608973 -0.129000
C60   C     C_R   0.438329 0.026778 0.604495 -0.129385
C61   C     C_R   0.396575 0.947326 0.110797 -0.128054
C62   C     C_R   0.551235 0.602370 0.110810 -0.128726
C63   C     C_R   0.053281 0.449368 0.111115 -0.128454
C64   C     C_R   0.987136 0.420021 0.647780 -0.116522
C65   C     C_R   0.577545 0.566912 0.646895 -0.116106
C66   C     C_R   0.416700 0.974538 0.639268 -0.116983
C67   C     C_R   0.004243 0.508073 0.709669 0.350192
C68   C     C_R   0.414707 0.976077 0.149435 -0.116418
C69   C     C_R   0.561977 0.584040 0.149508 -0.116589
C70   C     C_R   0.024445 0.438700 0.149774 -0.116354
C71   C     C_R   0.988660 0.498723 0.667434 0.035454
C72   C     C_R   0.500269 0.489698 0.667167 0.035009
C73   C     C_R   0.490153 0.967091 0.659797 0.033518
C74   C     C_R   0.491860 0.974715 0.169560 0.035081
C75   C     C_R   0.483846 0.507154 0.169545 0.035318
C76   C     C_R   0.024593 0.516567 0.169539 0.035201
C77   C     C_R   0.964798 0.561682 0.647180 -0.116963
C78   C     C_R   0.491053 0.496937 0.709333 0.349248
C79   C     C_R   0.438706 0.402180 0.647619 -0.117577
C80   C     C_R   0.584464 0.008416 0.643601 -0.116923
C81   C     C_R   0.555906 0.952686 0.149378 -0.116569
C82   C     C_R   0.398325 0.443203 0.149219 -0.116746
C83   C     C_R   0.045258 0.601893 0.148982 -0.116851
C84   C     C_R   0.930891 0.540718 0.609104 -0.130619
C85   C     C_R   0.459765 0.388894 0.609635 -0.130701
C86   C     C_R   0.606023 0.060479 0.608662 -0.131159
C87   C     C_R   0.537643 0.923726 0.110690 -0.129698
C88   C     C_R   0.387514 0.461645 0.110475 -0.129708
C89   C     C_R   0.470344 0.924477 0.699333 0.346031
C90   C     C_R   0.074315 0.612645 0.110282 -0.129975
C91   C     C_R   0.015301 0.515060 0.788192 0.348321
C92   C     C_R   0.484706 0.503211 0.787801 0.348204
C93   C     C_R   0.439442 0.867130 0.774920 0.350032
C94   C     C_R   0.506984 0.999527 0.290436 0.348565
C95   C     C_R   0.491414 0.494117 0.290531 0.348731
C96   C     C_R   0.001346 0.507988 0.290453 0.348628
Cr1   Cr    Cr6+3 0.522350 0.263930 0.500020 1.018502
Cr2   Cr    Cr6+3 0.736070 0.258420 0.500020 1.019335
Cr3   Cr    Cr6+3 0.741580 0.477650 0.500020 1.018144
Cr4   Cr    Cr6+3 0.263930 0.522350 0.000020 1.012198
Cr5   Cr    Cr6+3 0.258420 0.736070 0.000020 1.012364
Cr6   Cr    Cr6+3 0.477650 0.741580 0.000020 1.016296
H1    H     H_    0.947257 0.334524 0.596101 0.131139
H2    H     H_    0.584416 0.900966 0.096517 0.129646
H3    H     H_    0.318281 0.415086 0.096185 0.129494
H4    H     H_    0.096091 0.681670 0.095812 0.129199
H5    H     H_    0.048208 0.388986 0.904550 0.132817
H6    H     H_    0.610415 0.662799 0.903482 0.131291
H7    H     H_    0.268130 0.822892 0.889167 0.124753
H8    H     H_    0.386413 0.044046 0.405636 0.131100
H9    H     H_    0.656313 0.614017 0.405724 0.131182
H10   H     H_    0.958440 0.343992 0.406232 0.131029
H11   H     H_    0.006945 0.371255 0.662402 0.140016
H12   H     H_    0.662102 0.612448 0.594840 0.131541
H13   H     H_    0.625190 0.635952 0.660951 0.140801
H14   H     H_    0.343092 0.943076 0.650719 0.139823
H15   H     H_    0.365227 0.994641 0.164015 0.139993
H16   H     H_    0.629640 0.633348 0.164221 0.139901
H17   H     H_    0.006899 0.371215 0.164659 0.139996
H18   H     H_    0.966442 0.623632 0.661412 0.139742
H19   H     H_    0.377840 0.341782 0.662336 0.139506
H20   H     H_    0.642639 0.003702 0.658575 0.138875
H21   H     H_    0.616711 0.952177 0.164006 0.139682
H22   H     H_    0.337383 0.382526 0.163784 0.139645
H23   H     H_    0.380884 0.033956 0.590077 0.131199
H24   H     H_    0.044751 0.662663 0.163327 0.139483
H25   H     H_    0.999316 0.371497 0.836953 0.140106
H26   H     H_    0.627540 0.632648 0.835787 0.139277
H27   H     H_    0.285679 0.842835 0.819279 0.141165
H28   H     H_    0.365084 0.987165 0.339085 0.139921
H29   H     H_    0.619988 0.635861 0.339121 0.139977
H30   H     H_    0.015829 0.379866 0.339649 0.139890
H31   H     H_    0.102118 0.686115 0.903651 0.119127
H32   H     H_    0.314551 0.418371 0.903710 0.131295
H33   H     H_    0.542395 0.822716 0.896196 0.135780
H34   H     H_    0.333067 0.943435 0.096697 0.132591
H35   H     H_    0.685223 0.101402 0.404225 0.130105
H36   H     H_    0.415761 0.316373 0.404500 0.130179
H37   H     H_    0.897491 0.583136 0.403774 0.130178
H38   H     H_    0.054539 0.669338 0.835540 0.135255
H39   H     H_    0.331662 0.387938 0.835753 0.140292
H40   H     H_    0.561261 0.844635 0.825913 0.140452
H41   H     H_    0.664102 0.044596 0.337450 0.139783
H42   H     H_    0.379363 0.337992 0.337697 0.139834
H43   H     H_    0.954758 0.619121 0.336965 0.139902
H44   H     H_    0.610396 0.665833 0.096772 0.131826
H45   H     H_    0.058257 0.390352 0.097298 0.131890
H46   H     H_    0.906982 0.586873 0.594956 0.128974
H47   H     H_    0.414824 0.318498 0.596049 0.129878
H48   H     H_    0.680175 0.094568 0.597568 0.128313
N1    N     N_R   0.011703 0.438824 0.768635 -0.225375
N2    N     N_R   0.425837 0.987492 0.232195 -0.224254
N3    N     N_R   0.561253 0.573914 0.232256 -0.224320
N4    N     N_R   0.013861 0.439056 0.232526 -0.224139
N5    N     N_R   0.008285 0.584721 0.729177 -0.221584
N6    N     N_R   0.416060 0.423885 0.729426 -0.224972
N7    N     N_R   0.542458 0.923442 0.720809 -0.224235
N8    N     N_R   0.576956 0.992773 0.231705 -0.224053
N9    N     N_R   0.416278 0.423296 0.231728 -0.224139
N10   N     N_R   0.005968 0.583338 0.231369 -0.224253
N11   N     N_R   0.014397 0.588491 0.767711 -0.223605
N12   N     N_R   0.559275 0.576341 0.767668 -0.224824
N13   N     N_R   0.412600 0.427274 0.767923 -0.223892
N14   N     N_R   0.527276 0.895208 0.757844 -0.220622
N15   N     N_R   0.580895 0.999391 0.270214 -0.224213
N16   N     N_R   0.418204 0.420078 0.270281 -0.224245
N17   N     N_R   0.999891 0.581047 0.269894 -0.224189
N18   N     N_R   0.366787 0.866047 0.753177 -0.220500
N19   N     N_R   0.429618 0.993772 0.270631 -0.224445
N20   N     N_R   0.563005 0.570848 0.270735 -0.224498
N21   N     N_R   0.008116 0.436945 0.270978 -0.224529
N22   N     N_R   0.005933 0.435223 0.730189 -0.225119
N23   N     N_R   0.562563 0.573105 0.729244 -0.222738
N24   N     N_R   0.381899 0.894079 0.716197 -0.224431
O1    O     O_R   0.498680 0.159540 0.541860 -0.520800
O2    O     O_R   0.358060 0.532760 0.040030 -0.502468
O3    O     O_R   0.174700 0.641940 0.040030 -0.504588
O4    O     O_R   0.467240 0.825300 0.040030 -0.498841
O5    O     O_R   0.498590 0.161190 0.456930 -0.521775
O6    O     O_R   0.838810 0.337400 0.456930 -0.522050
O7    O     O_R   0.662600 0.501410 0.456930 -0.521702
O8    O     O_R   0.161190 0.498590 0.956930 -0.520380
O9    O     O_R   0.337400 0.838810 0.956930 -0.512437
O10   O     O_R   0.501410 0.662600 0.956930 -0.534861
O11   O     O_R   0.532680 0.359580 0.461300 -0.503697
O12   O     O_R   0.840460 0.339140 0.541860 -0.521633
O13   O     O_R   0.640420 0.173100 0.461300 -0.503392
O14   O     O_R   0.826900 0.467320 0.461300 -0.503299
O15   O     O_R   0.359580 0.532680 0.961300 -0.504813
O16   O     O_R   0.173100 0.640420 0.961300 -0.524129
O17   O     O_R   0.467320 0.826900 0.961300 -0.497235
O18   O     O_3   0.666667 0.333333 0.499990 -0.240229
O19   O     O_3   0.333333 0.666667 0.999990 -0.267493
O20   O     O_R   0.660860 0.501320 0.541860 -0.521065
O21   O     O_R   0.159540 0.498680 0.041860 -0.518020
O22   O     O_R   0.339140 0.840460 0.041860 -0.514274
O23   O     O_R   0.501320 0.660860 0.041860 -0.519020
O24   O     O_R   0.532760 0.358060 0.540030 -0.506260
O25   O     O_R   0.641940 0.174700 0.540030 -0.505007
O26   O     O_R   0.825300 0.467240 0.540030 -0.505518

loop_
_geom_bond_atom_site_label_1
_geom_bond_atom_site_label_2
_ccdc_geom_bond_type
C25   C31   A    
C14   H7    S    
C6    C32   A    
Cr6   O19   S    
C26   C32   A    
Cr1   O1    S    
C22   C29   A    
C7    C33   A    
C11   H5    S    
C4    N4    A    
C50   O9    A    
C34   O23   A    
C21   H35   S    
C77   H18   S    
Cr1   O18   S    
C38   C49   S    
C56   O4    A    
Cr4   O19   S    
N5    N11   A    
C19   H32   S    
N18   N24   A    
C79   H19   S    
C29   C36   A    
C45   C57   S    
C47   O6    A    
C66   H14   S    
Cr2   O25   S    
C81   H21   S    
C10   C37   A    
C60   H23   S    
C9    C16   A    
C5    C11   A    
C72   C79   A    
C86   H48   S    
C94   N19   A    
C54   C87   A    
C20   C40   A    
C82   C88   A    
C64   C71   A    
C10   C17   A    
C68   C74   A    
C55   C62   A    
C69   H16   S    
C3    N3    A    
C27   H40   S    
C76   C83   A    
C18   H31   S    
C67   N5    A    
N8    N15   A    
N10   N17   A    
C82   H22   S    
C55   C88   A    
C19   C26   A    
C80   C86   A    
C56   O22   A    
C12   O25   A    
C7    C14   A    
Cr4   O15   S    
C93   N18   A    
C96   N21   A    
Cr3   O26   S    
Cr4   O2    S    
C9    C36   A    
C72   C78   S    
C41   C46   S    
C36   C95   S    
C53   C86   A    
C46   O13   A    
C8    H28   S    
C26   H39   S    
Cr4   O8    S    
C12   C53   S    
C2    C74   S    
Cr5   O22   S    
C45   O3    A    
C44   O11   A    
C1    O24   A    
C9    H29   S    
C60   C66   A    
C34   C55   S    
C3    N9    A    
Cr1   O5    S    
C65   H13   S    
C15   H8    S    
C18   C25   A    
C42   C44   S    
C89   N24   A    
C13   H6    S    
Cr1   O24   S    
C94   N15   A    
C63   H45   S    
Cr3   O14   S    
C1    C52   S    
C53   C60   A    
Cr5   O19   S    
C57   C63   A    
C85   H47   S    
C84   H46   S    
C24   H37   S    
C58   C64   A    
C54   C56   S    
C4    C76   S    
C57   C90   A    
C16   H9    S    
C25   H38   S    
Cr5   O3    S    
N6    N13   A    
Cr2   O18   S    
Cr5   O16   S    
C79   C85   A    
Cr6   O23   S    
N12   N23   A    
C80   H20   S    
C49   O16   A    
C77   C84   A    
C29   H42   S    
C23   O26   A    
C27   C33   A    
N1    N22   A    
C49   O8    A    
C37   C96   S    
C8    C35   A    
N3    N20   A    
C11   C38   A    
Cr1   O11   S    
C17   C43   A    
Cr2   O13   S    
C52   C59   A    
C68   H15   S    
C78   N23   A    
C23   C51   S    
Cr3   O20   S    
C63   C70   A    
C70   H17   S    
C2    N8    A    
C5    H25   S    
C2    N2    A    
Cr6   O17   S    
C96   N17   A    
C28   H41   S    
C50   O17   A    
N7    N14   A    
C15   C41   A    
C48   O15   A    
C81   C87   A    
C19   C39   A    
C12   O1    A    
C21   C41   A    
C62   C69   A    
C92   N13   A    
C54   C61   A    
C21   C28   A    
C8    C15   A    
C31   C91   S    
C70   C76   A    
Cr6   O4    S    
C88   H3    S    
C24   C30   A    
C51   C58   A    
C74   C81   A    
Cr2   O6    S    
C17   H10   S    
C16   C42   A    
C71   C77   A    
C3    C75   S    
C30   H43   S    
C48   O10   A    
Cr4   O21   S    
C92   N12   A    
C95   N16   A    
C28   C35   A    
C83   C90   A    
C52   C85   A    
C64   H11   S    
C6    H26   S    
C45   O21   A    
C33   C93   S    
C4    N10   A    
C23   O12   A    
C75   C82   A    
C89   N7    A    
C20   C27   A    
C67   N22   A    
C65   C72   A    
C22   H36   S    
C93   N14   A    
N9    N16   A    
Cr6   O10   S    
C35   C94   S    
C1    O20   A    
C18   C38   A    
C73   C89   S    
Cr2   O12   S    
C7    H27   S    
C46   O5    A    
C6    C13   A    
C91   N1    A    
N2    N19   A    
C66   C73   A    
C61   C68   A    
C78   N6    A    
Cr3   O18   S    
C59   H12   S    
C40   C50   S    
C44   O7    A    
C73   C80   A    
N4    N21   A    
C69   C75   A    
C67   C71   S    
C20   H33   S    
C95   N20   A    
C10   H30   S    
C13   C39   A    
C34   O2    A    
C32   C92   S    
C90   H4    S    
C14   C40   A    
C87   H2    S    
Cr5   O9    S    
C30   C37   A    
C62   H44   S    
C22   C42   A    
C24   C43   A    
C91   N11   A    
Cr3   O7    S    
C58   H1    S    
C83   H24   S    
C47   O14   A    
C43   C47   S    
C51   C84   A    
C59   C65   A    
C61   H34   S    
C39   C48   S    
C5    C31   A    
