data_mof_unit_11642.cif
_audit_creation_date              2012-12-11T20:00:10-0500
_audit_creation_method            fapswitch 2.2
_symmetry_space_group_name_H-M    P1
_symmetry_Int_Tables_number       1
_space_group_crystal_system       triclinic
_cell_length_a                    8.286534
_cell_length_b                    16.30702
_cell_length_c                    27.158723
_cell_angle_alpha                 71.933058
_cell_angle_beta                  97.429563
_cell_angle_gamma                 95.632745
_cell_volume                      3453.11926319

loop_
_atom_site_label
_atom_site_type_symbol
_atom_type_description
_atom_site_fract_x
_atom_site_fract_y
_atom_site_fract_z
_atom_type_partial_charge
Ba1   Ba    Ba6+2 0.337820 0.939830 0.518500 1.705462
Ba2   Ba    Ba6+2 0.851970 0.060110 0.481480 1.677810
C1    C     C_3   0.075466 0.525579 0.613042 -0.368606
C2    C     C_R   0.441384 0.399513 0.187298 0.573804
C3    C     C_2   0.280402 0.279845 0.278684 -0.083778
C4    C     C_3   0.542966 0.640948 0.631119 0.331297
C5    C     C_3   0.271523 0.244521 0.336713 -0.057528
C6    C     C_1   0.471605 0.142384 0.339783 0.041041
C7    C     C_2   0.513852 0.190297 0.292976 -0.102884
C8    C     C_2   0.408266 0.261186 0.258155 0.192671
C9    C     C_R   0.520114 0.404484 0.102619 -0.079191
C10   C     C_R   0.521791 0.313642 0.120286 -0.036366
C11   C     C_R   0.562215 0.271021 0.086459 -0.058916
C12   C     C_3   0.061317 0.621031 0.605693 0.343032
C13   C     C_R   0.479029 0.447323 0.136492 -0.024745
C14   C     C_2   0.345165 0.158661 0.359509 -0.281887
C15   C     C_2   0.847802 0.842846 0.639840 0.165584
C16   C     C_3   0.524474 0.566585 0.680656 -0.313360
C17   C     C_R   0.636221 0.456114 0.965501 0.019462
C18   C     C_R   0.597245 0.592351 0.982742 0.019736
C19   C     C_R   0.635744 0.547976 0.948629 0.051091
C20   C     C_R   0.674166 0.415372 0.929728 -0.099276
C21   C     C_R   0.710818 0.462657 0.879778 -0.057148
C22   C     C_R   0.711745 0.553054 0.862736 -0.027232
C23   C     C_3   0.104161 0.029173 0.652219 0.319935
C24   C     C_R   0.674295 0.596009 0.897030 -0.079373
C25   C     C_R   0.675904 0.686960 0.879743 -0.040628
C26   C     C_R   0.714988 0.733578 0.828681 0.603949
C27   C     C_R   0.748698 0.600862 0.811853 0.577523
C28   C     C_3   0.556105 0.881544 0.385488 0.317378
C29   C     C_2   0.909677 0.719393 0.720116 -0.134824
C30   C     C_3   0.918446 0.755534 0.662052 -0.070467
C31   C     C_1   0.722548 0.859165 0.660266 0.020434
C32   C     C_2   0.681814 0.811929 0.707330 -0.170981
C33   C     C_2   0.784787 0.739395 0.741341 0.199732
C34   C     C_3   0.135926 0.996746 0.711437 0.234358
C35   C     C_R   0.598875 0.408188 0.017101 0.020041
C36   C     C_R   0.558917 0.452516 0.051047 0.050226
C37   C     C_R   0.557122 0.544331 0.034023 0.020275
C38   C     C_R   0.599922 0.316838 0.036289 -0.097637
C39   C     C_R   0.476586 0.537597 0.119062 -0.060174
C40   C     C_3   0.450626 0.822366 0.358577 -0.123821
C41   C     C_R   0.600809 0.683858 0.964086 -0.097864
C42   C     C_R   0.639189 0.729700 0.913995 -0.053785
C43   C     C_R   0.514425 0.584913 0.069247 -0.100574
C44   C     C_2   0.383769 0.252810 0.504975 -0.129079
C45   C     C_3   0.648260 0.358430 0.367017 0.343474
C46   C     C_R   0.803076 0.759649 0.490878 0.114730
C47   C     C_2   0.263979 0.312176 0.563961 -0.133746
C48   C     C_2   0.262320 0.250486 0.540625 0.077227
C49   C     C_2   0.504536 0.315707 0.496469 -0.008434
C50   C     C_3   0.475168 0.398519 0.506953 -0.066402
C51   C     C_3   0.394507 0.384335 0.556744 0.020820
C52   C     C_3   0.602069 0.116859 0.607031 0.413404
C53   C     C_2   0.613945 0.464877 0.502517 -0.066785
C54   C     C_2   0.579211 0.547658 0.488336 -0.060294
C55   C     C_R   0.841485 0.617763 0.457715 -0.002918
C56   C     C_3   0.667304 0.431783 0.317031 -0.315026
C57   C     C_R   0.706069 0.618220 0.483660 -0.087542
C58   C     C_R   0.953145 0.689035 0.446517 -0.198903
C59   C     C_R   0.931708 0.761111 0.461917 0.056967
C60   C     C_R   0.685425 0.690328 0.499835 0.014552
C61   C     C_3   0.639865 0.191004 0.630536 0.250390
C62   C     C_3   0.113687 0.988231 0.356076 0.295652
C63   C     C_3   0.096122 0.025002 0.297011 -0.357016
C64   C     C_3   0.128299 0.379480 0.391254 0.353888
C65   C     C_3   0.114517 0.475568 0.381975 -0.374439
C66   C     C_R   0.482604 0.267023 0.171339 0.597251
H1    H     H_    0.096947 0.658306 0.566465 0.063817
H2    H     H_    0.200908 0.513680 0.607951 0.148811
H3    H     H_    0.156016 0.983866 0.279825 0.122325
H4    H     H_    0.153974 0.091455 0.285012 0.075857
H5    H     H_    0.964986 0.027408 0.281901 0.137922
H6    H     H_    0.931429 0.630467 0.607700 -0.051105
H7    H     H_    0.989018 0.505073 0.583618 0.068761
H8    H     H_    0.970140 0.028368 0.641707 -0.004121
H9    H     H_    0.162932 0.985893 0.636332 0.092356
H10   H     H_    0.080868 0.039883 0.728405 0.101818
H11   H     H_    0.076928 0.930612 0.726182 -0.019098
H12   H     H_    0.489825 0.832114 0.319347 0.102376
H13   H     H_    0.045563 0.486506 0.652568 0.124364
H14   H     H_    0.542671 0.591973 0.714482 0.121867
H15   H     H_    0.709425 0.302173 0.364795 0.092416
H16   H     H_    0.516337 0.341117 0.369993 -0.060400
H17   H     H_    0.792654 0.462575 0.317228 0.142510
H18   H     H_    0.645232 0.405688 0.283512 0.119013
H19   H     H_    0.579263 0.481415 0.312507 0.121073
H20   H     H_    0.257921 0.369730 0.389171 -0.054523
H21   H     H_    0.094050 0.344152 0.430952 0.070481
H22   H     H_    0.202762 0.498009 0.410238 0.068711
H23   H     H_    0.321678 0.839609 0.353280 0.116514
H24   H     H_    0.989883 0.488223 0.387364 0.149781
H25   H     H_    0.476226 0.695449 0.633222 0.087066
H26   H     H_    0.142268 0.512533 0.341863 0.121363
H27   H     H_    0.623771 0.177715 0.279451 0.133768
H28   H     H_    0.565178 0.201255 0.098722 0.123214
H29   H     H_    0.991723 0.670265 0.742877 0.129839
H30   H     H_    0.738658 0.427482 0.854303 0.124970
H31   H     H_    0.676264 0.346407 0.938783 0.072656
H32   H     H_    0.629979 0.277912 0.013628 0.071578
H33   H     H_    0.196525 0.327680 0.255466 0.120412
H34   H     H_    0.472314 0.115016 0.591806 -0.038206
H35   H     H_    0.445047 0.572647 0.144113 0.121711
H36   H     H_    0.575258 0.722928 0.987265 0.071757
H37   H     H_    0.674309 0.660845 0.628985 -0.053268
H38   H     H_    0.639722 0.799586 0.902134 0.130462
H39   H     H_    0.573561 0.825469 0.721337 0.136968
H40   H     H_    0.508004 0.653722 0.059691 0.070384
H41   H     H_    0.302725 0.114637 0.394975 0.067721
H42   H     H_    0.182078 0.305173 0.593334 0.085647
H43   H     H_    0.052888 0.688992 0.424440 0.108932
H44   H     H_    0.738851 0.446390 0.513855 0.102902
H45   H     H_    0.679059 0.128380 0.574811 -0.021140
H46   H     H_    0.400326 0.534418 0.679655 0.142780
H47   H     H_    0.452356 0.563567 0.480577 0.112269
H48   H     H_    0.615399 0.518330 0.685265 0.123497
H49   H     H_    0.682490 0.860559 0.394066 -0.039147
H50   H     H_    0.505519 0.876652 0.422132 0.062237
H51   H     H_    0.572809 0.712109 0.383775 0.165151
H52   H     H_    0.370273 0.695670 0.374132 0.180950
H53   H     H_    0.557418 0.236190 0.679453 0.303081
H54   H     H_    0.343123 0.945445 0.720607 0.314815
H55   H     H_    0.909654 0.896765 0.571888 0.370187
H56   H     H_    0.630201 0.253509 0.599159 -0.062683
H57   H     H_    0.454371 0.139004 0.500530 0.193848
H58   H     H_    0.383398 0.212032 0.441928 0.145319
H59   H     H_    0.738878 0.872779 0.480532 0.296756
H60   H     H_    0.766969 0.188042 0.649890 0.039046
H61   H     H_    0.244938 0.984618 0.370150 -0.008194
H62   H     H_    0.056525 0.031877 0.372153 0.071334
N1    N     N_R   0.444299 0.309809 0.204832 -0.421827
N2    N     N_R   0.749384 0.690701 0.794730 -0.417253
N3    N     N_3   0.462484 0.732103 0.389509 -0.509913
N4    N     N_3   0.370197 0.185048 0.481371 -0.454590
O1    O     O_2   0.431310 0.922990 0.623550 -0.474008
O2    O     O_2   0.842857 0.306859 0.503713 -0.494394
O3    O     O_3   0.720157 0.385289 0.409570 -0.599164
O4    O     O_3   0.663280 0.983100 0.563360 -0.466873
O5    O     O_3   0.016420 0.932050 0.462720 -0.457528
O6    O     O_2   0.959730 0.164640 0.549160 -0.467579
O7    O     O_3   0.170688 0.113656 0.634022 -0.611678
O8    O     O_2   0.926367 0.211049 0.327472 -0.497316
O9    O     O_3   0.023516 0.351644 0.353593 -0.597502
O10   O     O_2   0.480278 0.188146 0.185531 -0.596479
O11   O     O_2   0.778999 0.561830 0.782678 -0.619098
O12   O     O_3   0.036383 0.905382 0.369944 -0.639833
O13   O     O_2   0.407276 0.438430 0.216049 -0.620726
O14   O     O_2   0.720646 0.812511 0.814879 -0.583191
O15   O     O_3   0.126250 0.812630 0.574830 -0.443944
O16   O     O_2   0.264960 0.785849 0.672168 -0.498830
O17   O     O_3   0.634630 0.039267 0.645885 -0.612207
O18   O     O_3   0.164769 0.646377 0.644541 -0.605338
O19   O     O_2   0.229950 0.835370 0.450810 -0.472659
O20   O     O_3   0.517580 0.797570 0.545130 -0.459757
O21   O     O_2   0.345866 0.694105 0.495693 -0.478495
O22   O     O_3   0.530203 0.185047 0.666820 -0.658475
O23   O     O_3   0.478154 0.613813 0.588023 -0.610644
O24   O     O_3   0.303939 0.996373 0.727149 -0.641167
O25   O     O_3   0.929856 0.908674 0.605619 -0.759277
O26   O     O_3   0.790345 0.826942 0.509807 -0.738924
O27   O     O_2   0.758370 0.077020 0.376420 -0.452346
O28   O     O_3   0.526390 0.016840 0.436620 -0.515283
O29   O     O_3   0.063420 0.187310 0.425160 -0.458431
O30   O     O_3   0.558159 0.965050 0.350383 -0.638673
O31   O     O_3   0.173250 0.067890 0.537260 -0.442034
O32   O     O_3   0.672100 0.202370 0.454860 -0.499884
P1    P     P_3+3 0.610630 0.953360 0.619150 1.030997
P2    P     P_3+3 0.057260 0.861390 0.437850 1.006873
P3    P     P_3+3 0.505475 0.699103 0.531288 0.984678
P4    P     P_3+3 0.579040 0.046590 0.380840 0.975889
P5    P     P_3+3 0.685869 0.302515 0.466803 0.934910
P6    P     P_3+3 0.121465 0.751474 0.639990 0.991512
P7    P     P_3+3 0.144393 0.148508 0.565739 1.009856
P8    P     P_3+3 0.068931 0.246289 0.359503 0.947534

loop_
_geom_bond_atom_site_label_1
_geom_bond_atom_site_label_2
_ccdc_geom_bond_type
H57   N4    S    
C53   C54   D    
C5    P8    S    
C40   H12   S    
C7    H27   S    
H53   O22   S    
C53   H44   S    
C66   N1    Am   
O15   P6    S    
O30   P4    S    
C28   O30   S    
C19   C24   A    
C56   H19   S    
Ba2   O28   S    
C61   H56   S    
O8    P8    D    
C46   O26   S    
C24   C25   A    
H51   N3    S    
C58   C59   A    
C40   N3    S    
C23   H9    S    
C32   H39   S    
C12   H6    S    
C17   C19   A    
C22   C24   A    
C61   O22   S    
C32   C33   S    
C35   C38   A    
C27   O11   D    
C36   C37   A    
O18   P6    S    
O17   P1    S    
C55   C57   A    
C27   N2    Am   
C52   C61   S    
Ba1   P1    S    
O31   P7    S    
C52   H45   S    
C63   H5    S    
H52   N3    S    
C41   H36   S    
C11   C38   A    
C17   C35   A    
O23   P3    S    
C22   C27   A    
C9    C13   A    
C25   C42   A    
C4    H37   S    
O16   P6    D    
O6    P7    D    
C1    H13   S    
C65   H26   S    
C21   C22   A    
Ba1   O15   S    
C17   C20   A    
C45   H15   S    
C2    N1    Am   
C1    H7    S    
C7    C8    S    
Ba2   O32   S    
C61   H60   S    
Ba1   O5    S    
C50   C53   S    
C34   O24   S    
C37   C43   A    
C64   C65   S    
C30   P6    S    
O32   P5    S    
C6    C14   D    
O7    P7    S    
C16   H46   S    
C31   P1    S    
Ba1   O20   S    
C15   C31   D    
C56   H18   S    
Ba2   O27   S    
C6    P4    S    
C14   H41   S    
C64   H21   S    
C4    C16   S    
C3    H33   S    
C26   O14   D    
C11   H28   S    
C49   C50   S    
Ba2   O4    S    
C1    H2    S    
C13   C39   A    
C16   H48   S    
C3    C5    S    
C18   C37   A    
C6    C7    D    
C55   C58   A    
C64   O9    S    
C28   H50   S    
Ba1   P2    S    
C63   H3    S    
C2    O13   D    
C44   C49   D    
C65   H22   S    
C39   H35   S    
O20   P3    S    
O4    P1    S    
C26   N2    Am   
C9    C36   A    
C41   C42   A    
C35   C36   A    
C44   N4    S    
C10   C66   A    
O21   P3    D    
C46   C60   A    
C29   C30   S    
O28   P4    S    
O2    P5    D    
Ba1   O31   S    
C4    H25   S    
C45   O3    S    
C33   N2    S    
C31   C32   D    
H54   O24   S    
C45   H16   S    
C18   C19   A    
Ba1   O19   S    
Ba2   O31   S    
C1    C12   S    
Ba2   P4    S    
O27   P4    D    
C5    C14   S    
C62   H62   S    
Ba1   O28   S    
C48   P7    S    
O19   P2    D    
C12   H1    S    
C29   C33   D    
Ba2   O5    S    
C56   H17   S    
C4    O23   S    
C50   C51   S    
C60   P3    S    
O12   P2    S    
C57   C60   A    
O1    P1    D    
C20   H31   S    
C62   O12   S    
C52   H34   S    
C23   O7    S    
C8    N1    S    
C34   H11   S    
Ba2   O29   S    
C38   H32   S    
C9    C10   A    
C43   H40   S    
C52   O17   S    
C28   H49   S    
C42   H38   S    
C62   H61   S    
C63   H4    S    
C44   C48   S    
C54   C57   S    
C23   H8    S    
Ba2   O6    S    
C62   C63   S    
C59   P2    S    
C2    C13   A    
C49   P5    S    
C3    C8    D    
C58   H43   S    
C34   H10   S    
C45   C56   S    
C64   H20   S    
C46   C59   A    
H55   O25   S    
C47   C51   S    
Ba1   Ba2   S    
C65   H24   S    
C16   H14   S    
C54   H47   S    
C66   O10   D    
C29   H29   S    
O5    P2    S    
C15   O25   S    
C18   C41   A    
O3    P5    S    
C23   C34   S    
C21   H30   S    
C10   C11   A    
H58   N4    S    
C47   C48   D    
C12   O18   S    
C25   C26   A    
C15   C30   S    
C39   C43   A    
C20   C21   A    
C28   C40   S    
O9    P8    S    
Ba1   O1    S    
O29   P8    S    
H59   O26   S    
Ba1   O4    S    
C40   H23   S    
C47   H42   S    
