data_mof_unit_52459.cif
_audit_creation_date              2012-12-11T14:24:59-0500
_audit_creation_method            fapswitch 2.2
_symmetry_space_group_name_H-M    P1
_symmetry_Int_Tables_number       1
_space_group_crystal_system       triclinic
_cell_length_a                    19.525796
_cell_length_b                    11.321491
_cell_length_c                    18.783538
_cell_angle_alpha                 89.790062
_cell_angle_beta                  91.303329
_cell_angle_gamma                 89.835067
_cell_volume                      4151.1896846

loop_
_atom_site_label
_atom_site_type_symbol
_atom_type_description
_atom_site_fract_x
_atom_site_fract_y
_atom_site_fract_z
_atom_type_partial_charge
C1    C     C_R   0.729546 0.377174 0.147206 0.508419
C2    C     C_R   0.270985 0.376362 0.852971 0.515012
C3    C     C_R   0.229572 0.877495 0.147338 0.507568
C4    C     C_R   0.771144 0.876078 0.853148 0.514991
C5    C     C_3   0.470116 0.090065 0.034541 -0.136723
C6    C     C_3   0.514498 0.049291 0.971531 -0.109405
C7    C     C_3   0.970628 0.588898 0.034214 -0.136240
C8    C     C_3   0.015170 0.548848 0.971091 -0.108789
C9    C     C_R   0.757400 0.915599 0.926194 0.013914
C10   C     C_R   0.246039 0.920726 0.075273 -0.016668
C11   C     C_R   0.256747 0.416514 0.925739 0.013575
C12   C     C_R   0.746009 0.419399 0.074931 -0.015942
C13   C     C_R   0.702274 0.870997 0.963195 0.017905
C14   C     C_R   0.301631 0.875763 0.038797 -0.053988
C15   C     C_R   0.201188 0.372573 0.962410 0.018483
C16   C     C_R   0.801708 0.374357 0.038448 -0.054142
C17   C     C_R   0.707788 0.857259 0.037856 0.070000
C18   C     C_R   0.297661 0.860629 0.963840 -0.001128
C19   C     C_R   0.206373 0.358874 0.037085 0.071447
C20   C     C_R   0.797950 0.359770 0.963426 -0.001477
C21   C     C_R   0.808513 0.976721 0.038657 -0.139504
C22   C     C_R   0.197161 0.984474 0.962859 -0.204598
C23   C     C_R   0.307863 0.476767 0.038342 -0.138270
C24   C     C_R   0.697288 0.483423 0.962585 -0.205508
C25   C     C_R   0.810969 0.968684 0.965411 -0.097638
C26   C     C_R   0.194069 0.976313 0.035783 -0.179942
C27   C     C_R   0.310300 0.469092 0.965137 -0.097291
C28   C     C_R   0.694000 0.474598 0.035415 -0.179509
C29   C     C_R   0.643593 0.833266 0.927107 -0.082777
C30   C     C_R   0.359052 0.838890 0.076733 -0.121496
C31   C     C_R   0.142584 0.335092 0.925818 -0.082955
C32   C     C_R   0.859144 0.337457 0.076349 -0.121846
C33   C     C_R   0.099141 0.254511 0.956796 -0.058291
C34   C     C_R   0.904785 0.260351 0.046674 -0.047815
C35   C     C_R   0.600305 0.753817 0.958973 -0.056807
C36   C     C_R   0.404130 0.760609 0.047324 -0.046730
C37   C     C_R   0.613841 0.722753 0.029673 -0.101874
C38   C     C_R   0.393610 0.726279 0.976486 -0.110140
C39   C     C_R   0.112074 0.224764 0.028094 -0.104048
C40   C     C_R   0.894989 0.227239 0.975438 -0.110853
C41   C     C_R   0.667606 0.771739 0.069978 0.284828
C42   C     C_R   0.341980 0.776857 0.933191 0.288531
C43   C     C_R   0.165595 0.273940 0.068855 0.285374
C44   C     C_R   0.842913 0.277076 0.932486 0.289655
C45   C     C_R   0.555504 0.152419 0.137929 0.561743
C46   C     C_R   0.465923 0.154490 0.855325 0.544443
C47   C     C_R   0.055690 0.652292 0.137912 0.560964
C48   C     C_R   0.966109 0.654471 0.855221 0.543366
C49   C     C_R   0.755427 0.925203 0.076317 0.035363
C50   C     C_R   0.248472 0.927887 0.924946 -0.017773
C51   C     C_R   0.254584 0.425782 0.075847 0.035616
C52   C     C_R   0.748612 0.427089 0.924659 -0.017440
C53   C     C_R   0.503366 0.170324 0.578170 0.032370
C54   C     C_R   0.507434 0.162936 0.427570 0.026346
C55   C     C_R   0.002510 0.671213 0.577604 0.032428
C56   C     C_R   0.006207 0.663055 0.426987 0.027938
C57   C     C_R   0.520998 0.066790 0.542143 0.019355
C58   C     C_R   0.503564 0.058860 0.469051 0.009524
C59   C     C_R   0.021225 0.568278 0.541685 0.020137
C60   C     C_R   0.003407 0.559284 0.468810 0.009968
C61   C     C_R   0.505000 0.271209 0.463865 -0.159835
C62   C     C_R   0.497742 0.274857 0.538040 -0.151836
C63   C     C_R   0.001938 0.771545 0.462886 -0.159653
C64   C     C_R   0.995123 0.775251 0.537170 -0.153148
C65   C     C_R   0.536558 0.965056 0.580981 0.296509
C66   C     C_R   0.477563 0.950476 0.442705 0.284067
C67   C     C_R   0.037822 0.467378 0.580646 0.295548
C68   C     C_R   0.977557 0.450334 0.443208 0.284174
C69   C     C_R   0.002298 0.366034 0.560649 -0.171088
C70   C     C_R   0.973380 0.356411 0.492207 -0.195223
C71   C     C_R   0.501101 0.864392 0.559876 -0.175047
C72   C     C_R   0.473047 0.855797 0.491032 -0.197547
C73   C     C_R   0.746033 0.938943 0.579195 0.052477
C74   C     C_R   0.248428 0.954476 0.414514 0.016804
C75   C     C_R   0.248564 0.432685 0.576532 0.053257
C76   C     C_R   0.749158 0.453904 0.414297 0.017705
C77   C     C_R   0.795160 0.002839 0.542193 0.071654
C78   C     C_R   0.201316 0.040590 0.444595 0.045874
C79   C     C_R   0.299378 0.490836 0.538508 0.067972
C80   C     C_R   0.702808 0.541282 0.444034 0.044717
C81   C     C_R   0.806960 0.972385 0.471602 -0.009019
C82   C     C_R   0.211111 0.065563 0.518424 -0.007646
C83   C     C_R   0.309636 0.459161 0.467940 -0.011885
C84   C     C_R   0.712495 0.565942 0.517876 -0.009441
C85   C     C_R   0.691531 0.895765 0.465993 -0.150086
C86   C     C_R   0.315041 0.946804 0.524479 -0.137243
C87   C     C_R   0.192715 0.389548 0.464117 -0.147862
C88   C     C_R   0.814363 0.442001 0.525154 -0.133682
C89   C     C_R   0.741987 0.971689 0.148507 0.551027
C90   C     C_R   0.258735 0.971890 0.851793 0.543962
C91   C     C_R   0.241803 0.471897 0.148332 0.548152
C92   C     C_R   0.758726 0.471611 0.851655 0.542400
C93   C     C_R   0.691203 0.893935 0.539933 -0.152739
C94   C     C_R   0.304864 0.914059 0.454425 -0.121345
C95   C     C_R   0.192821 0.389204 0.538059 -0.154781
C96   C     C_R   0.804647 0.410731 0.454785 -0.121017
C97   C     C_R   0.837881 0.083545 0.576882 0.327083
C98   C     C_R   0.140529 0.096228 0.409957 0.325625
C99   C     C_R   0.342337 0.573352 0.570965 0.329393
C100  C     C_R   0.642582 0.598225 0.409073 0.324665
C101  C     C_R   0.905257 0.093262 0.552878 -0.123887
C102  C     C_R   0.092289 0.153237 0.451399 -0.127232
C103  C     C_R   0.408212 0.587061 0.543467 -0.128148
C104  C     C_R   0.594337 0.655457 0.450386 -0.125958
C105  C     C_R   0.922723 0.043509 0.487937 -0.203181
C106  C     C_R   0.097825 0.149892 0.522571 -0.208631
C107  C     C_R   0.424301 0.536772 0.478592 -0.197419
C108  C     C_R   0.599908 0.652286 0.521557 -0.207631
C109  C     C_R   0.873046 0.988946 0.445260 -0.111200
C110  C     C_R   0.159948 0.130767 0.552387 -0.109493
C111  C     C_R   0.374686 0.476407 0.439203 -0.106258
C112  C     C_R   0.661901 0.632533 0.551462 -0.111929
C113  C     C_R   0.750597 0.931970 0.430435 0.001665
C114  C     C_R   0.266846 0.015360 0.558624 0.003919
C115  C     C_R   0.251850 0.423647 0.427818 0.001805
C116  C     C_R   0.767141 0.513649 0.558620 0.005667
C117  C     C_R   0.730741 0.385182 0.350838 0.567508
C118  C     C_R   0.268625 0.381377 0.646622 0.568749
C119  C     C_R   0.230562 0.885093 0.351015 0.566391
C120  C     C_R   0.768122 0.882672 0.647386 0.563965
C121  C     C_R   0.533830 0.156760 0.353764 0.584680
C122  C     C_R   0.468187 0.158453 0.647790 0.577680
C123  C     C_R   0.033467 0.656814 0.353535 0.584258
C124  C     C_R   0.967954 0.658578 0.647591 0.578036
C125  C     C_R   0.742323 0.972514 0.356735 0.553855
C126  C     C_R   0.271241 0.024958 0.637166 0.571932
C127  C     C_R   0.242649 0.470564 0.355758 0.553593
C128  C     C_R   0.771225 0.524421 0.637088 0.572928
C129  C     C_3   0.551934 0.232093 0.957363 -0.177783
C130  C     C_3   0.508102 0.272148 0.021166 -0.131263
C131  C     C_3   0.052180 0.731970 0.957426 -0.179460
C132  C     C_3   0.008160 0.771375 0.021234 -0.132058
C133  C     C_3   0.574178 0.122755 0.001257 0.267721
C134  C     C_3   0.448098 0.199544 0.991013 0.272962
C135  C     C_3   0.074630 0.622688 0.001111 0.268219
C136  C     C_3   0.948369 0.698477 0.990922 0.272395
C137  C     C_3   0.530904 0.161555 0.063798 0.022706
C138  C     C_3   0.491644 0.159930 0.928600 0.010055
C139  C     C_3   0.031192 0.660889 0.063692 0.023179
C140  C     C_3   0.992051 0.659637 0.928444 0.008871
Cr1   Cr    Cr6+3 0.772820 0.169820 0.252640 0.994561
Cr2   Cr    Cr6+3 0.227180 0.169820 0.747360 0.969955
Cr3   Cr    Cr6+3 0.272820 0.669820 0.252640 0.995120
Cr4   Cr    Cr6+3 0.727180 0.669820 0.747360 0.969899
Cr5   Cr    Cr6+3 0.615040 0.323610 0.249150 0.969812
Cr6   Cr    Cr6+3 0.384960 0.323610 0.750850 0.984986
Cr7   Cr    Cr6+3 0.115040 0.823610 0.249150 0.971095
Cr8   Cr    Cr6+3 0.884960 0.823610 0.750850 0.980769
Cr9   Cr    Cr6+3 0.616720 0.011130 0.250660 1.019652
Cr10  Cr    Cr6+3 0.383280 0.011130 0.749340 0.996126
Cr11  Cr    Cr6+3 0.116720 0.511130 0.250660 1.019708
Cr12  Cr    Cr6+3 0.883280 0.511130 0.749340 1.000090
H1    H     H_    0.505988 0.352000 0.434662 0.120295
H2    H     H_    0.486619 0.357993 0.563595 0.151511
H3    H     H_    0.000837 0.852177 0.433324 0.117277
H4    H     H_    0.982854 0.857912 0.562638 0.151895
H5    H     H_    0.993859 0.298699 0.599441 0.075331
H6    H     H_    0.945187 0.278174 0.478589 0.119078
H7    H     H_    0.492442 0.796288 0.598113 0.071698
H8    H     H_    0.445058 0.777811 0.476522 0.117985
H9    H     H_    0.645320 0.871162 0.437034 0.157629
H10   H     H_    0.357538 0.908731 0.554090 0.148824
H11   H     H_    0.145712 0.367572 0.435734 0.157959
H12   H     H_    0.855479 0.400362 0.555416 0.155714
H13   H     H_    0.648998 0.856312 0.566406 0.158103
H14   H     H_    0.337921 0.846821 0.433423 0.165755
H15   H     H_    0.149806 0.355457 0.565122 0.157883
H16   H     H_    0.837048 0.342233 0.434039 0.164553
H17   H     H_    0.944432 0.135058 0.584250 0.074928
H18   H     H_    0.047059 0.192904 0.427682 0.105484
H19   H     H_    0.447462 0.633595 0.571774 0.077889
H20   H     H_    0.549320 0.695703 0.426609 0.105994
H21   H     H_    0.974264 0.049363 0.470059 0.110300
H22   H     H_    0.056665 0.173120 0.555234 0.114917
H23   H     H_    0.474475 0.548157 0.458104 0.105667
H24   H     H_    0.559147 0.676394 0.554296 0.115413
H25   H     H_    0.887225 0.955380 0.393730 0.136075
H26   H     H_    0.164171 0.173722 0.602210 0.182677
H27   H     H_    0.387290 0.442785 0.387188 0.135704
H28   H     H_    0.666243 0.674790 0.601362 0.183767
H29   H     H_    0.585176 0.288606 0.924335 0.112011
H30   H     H_    0.504152 0.363020 0.040423 0.105692
H31   H     H_    0.085719 0.788371 0.924662 0.112547
H32   H     H_    0.003671 0.862007 0.040657 0.105930
H33   H     H_    0.435614 0.035933 0.067161 0.114826
H34   H     H_    0.517554 0.957596 0.951862 0.139646
H35   H     H_    0.936228 0.534284 0.066669 0.114991
H36   H     H_    0.018226 0.457715 0.950190 0.142730
H37   H     H_    0.844339 0.033320 0.065164 0.146618
H38   H     H_    0.160280 0.039050 0.936045 0.176308
H39   H     H_    0.344177 0.532202 0.065040 0.145944
H40   H     H_    0.660647 0.538612 0.935826 0.174443
H41   H     H_    0.634335 0.860145 0.872549 0.123037
H42   H     H_    0.366544 0.866718 0.131399 0.131465
H43   H     H_    0.134253 0.362642 0.871344 0.121724
H44   H     H_    0.866489 0.364803 0.131109 0.132424
H45   H     H_    0.855544 0.003019 0.939703 0.162154
H46   H     H_    0.148832 0.007267 0.061049 0.159389
H47   H     H_    0.355112 0.502562 0.939596 0.161516
H48   H     H_    0.648517 0.504518 0.060561 0.157841
H49   H     H_    0.083231 0.157636 0.050429 0.142724
H50   H     H_    0.925814 0.160085 0.953440 0.143619
H51   H     H_    0.584596 0.655616 0.051499 0.142218
H52   H     H_    0.423848 0.657878 0.955315 0.144892
O1    O     O_R   0.788190 0.043000 0.172520 -0.541278
O2    O     O_R   0.211810 0.043000 0.827480 -0.524465
O3    O     O_R   0.288190 0.543000 0.172520 -0.541471
O4    O     O_R   0.711810 0.543000 0.827480 -0.525441
O5    O     O_R   0.556550 0.253260 0.323480 -0.533099
O6    O     O_R   0.443450 0.253260 0.676520 -0.519414
O7    O     O_R   0.056550 0.753260 0.323480 -0.531619
O8    O     O_R   0.943450 0.753260 0.676520 -0.522058
O9    O     O_R   0.545830 0.051610 0.330160 -0.487165
O10   O     O_R   0.454170 0.051610 0.669840 -0.509302
O11   O     O_R   0.045830 0.551610 0.330160 -0.487638
O12   O     O_R   0.954170 0.551610 0.669840 -0.510808
O13   O     O_R   0.681920 0.959720 0.327070 -0.508332
O14   O     O_R   0.318080 0.959720 0.672930 -0.515490
O15   O     O_R   0.181920 0.459720 0.327070 -0.509422
O16   O     O_R   0.818080 0.459720 0.672930 -0.514629
O17   O     O_3   0.668190 0.168190 0.250820 -0.289148
O18   O     O_3   0.331810 0.168190 0.749180 -0.301790
O19   O     O_3   0.168190 0.668190 0.250820 -0.288933
O20   O     O_3   0.831810 0.668190 0.749180 -0.300585
O21   O     O_R   0.766240 0.292300 0.176860 -0.516060
O22   O     O_R   0.233760 0.292300 0.823140 -0.525456
O23   O     O_R   0.266240 0.792300 0.176860 -0.515524
O24   O     O_R   0.733760 0.792300 0.823140 -0.525683
O25   O     O_R   0.670310 0.409160 0.168720 -0.558117
O26   O     O_R   0.329690 0.409160 0.831280 -0.536614
O27   O     O_R   0.170310 0.909160 0.168720 -0.559429
O28   O     O_R   0.829690 0.909160 0.831280 -0.530479
O29   O     O_R   0.556160 0.251900 0.173380 -0.537805
O30   O     O_R   0.443840 0.251900 0.826620 -0.516537
O31   O     O_R   0.056160 0.751900 0.173380 -0.538012
O32   O     O_R   0.943840 0.751900 0.826620 -0.519164
O33   O     O_R   0.545410 0.050140 0.168240 -0.536981
O34   O     O_R   0.454590 0.050140 0.831760 -0.538553
O35   O     O_R   0.045410 0.550140 0.168240 -0.536440
O36   O     O_R   0.954590 0.550140 0.831760 -0.535235
O37   O     O_R   0.681530 0.958350 0.176970 -0.463209
O38   O     O_R   0.318470 0.958350 0.823030 -0.461872
O39   O     O_R   0.181530 0.458350 0.176970 -0.463086
O40   O     O_R   0.818470 0.458350 0.823030 -0.464455
O41   O     O_R   0.788610 0.044480 0.334450 -0.524523
O42   O     O_R   0.211390 0.044480 0.665550 -0.526499
O43   O     O_R   0.288610 0.544480 0.334450 -0.522357
O44   O     O_R   0.711390 0.544480 0.665550 -0.526806
O45   O     O_R   0.766630 0.293670 0.326970 -0.507114
O46   O     O_R   0.233370 0.293670 0.673030 -0.557534
O47   O     O_R   0.266630 0.793670 0.326970 -0.506379
O48   O     O_R   0.733370 0.793670 0.673030 -0.555259
O49   O     O_R   0.670730 0.410640 0.330640 -0.481654
O50   O     O_R   0.329270 0.410640 0.669360 -0.503869
O51   O     O_R   0.170730 0.910640 0.330640 -0.479751
O52   O     O_R   0.829270 0.910640 0.669360 -0.516394
O53   O     O_3   0.641734 0.081523 0.005666 -0.590996
C141  C     C_3   0.683258 0.171439 0.033899 -0.109556
H53   H     H_    0.680290 0.173086 0.092533 0.151447
H54   H     H_    0.670650 0.258161 0.010681 0.123124
H55   H     H_    0.736691 0.155874 0.020040 0.137315
O54   O     O_3   0.381370 0.246311 0.987963 -0.582435
C142  C     C_3   0.336734 0.162921 0.957228 -0.084104
H56   H     H_    0.349231 0.071542 0.973692 0.111560
H57   H     H_    0.336828 0.170226 0.898528 0.173272
H58   H     H_    0.284158 0.181068 0.974468 0.128059
O55   O     O_3   0.142364 0.582519 0.005439 -0.592228
C143  C     C_3   0.183449 0.672421 0.034374 -0.109567
H59   H     H_    0.180624 0.672492 0.093018 0.151862
H60   H     H_    0.170218 0.759578 0.012154 0.123457
H61   H     H_    0.236929 0.657932 0.020200 0.137947
O56   O     O_3   0.881562 0.744924 0.987990 -0.582467
C144  C     C_3   0.837073 0.661565 0.957006 -0.083754
H62   H     H_    0.849909 0.570025 0.972901 0.111734
H63   H     H_    0.836933 0.669776 0.898337 0.173782
H64   H     H_    0.784515 0.678992 0.974571 0.128037
O57   O     O_3   0.576231 0.977611 0.643803 -0.554708
C145  C     C_3   0.573228 0.881025 0.691257 -0.082941
H65   H     H_    0.607332 0.899610 0.737862 0.144872
H66   H     H_    0.591492 0.797964 0.666992 0.085725
H67   H     H_    0.520705 0.870615 0.711175 0.123644
O58   O     O_3   0.440940 0.949498 0.378230 -0.555887
C146  C     C_3   0.454738 0.846571 0.338702 -0.089144
H68   H     H_    0.436648 0.861610 0.283016 0.138242
H69   H     H_    0.426142 0.769318 0.358929 0.097885
H70   H     H_    0.510571 0.827369 0.337202 0.119705
O59   O     O_3   0.078426 0.481591 0.642597 -0.556580
C147  C     C_3   0.075577 0.386745 0.691157 -0.086134
H71   H     H_    0.110591 0.406175 0.736897 0.145002
H72   H     H_    0.092859 0.302494 0.667568 0.086546
H73   H     H_    0.023246 0.378427 0.711981 0.131984
O60   O     O_3   0.940765 0.448170 0.378877 -0.555565
C148  C     C_3   0.955011 0.344985 0.339814 -0.089652
H74   H     H_    0.936499 0.358846 0.284158 0.137972
H75   H     H_    0.927073 0.267477 0.360681 0.096711
H76   H     H_    0.010960 0.326886 0.338077 0.120228
O61   O     O_3   0.808668 0.150356 0.630586 -0.565692
C149  C     C_3   0.856816 0.194158 0.679862 -0.077010
H77   H     H_    0.890760 0.260434 0.655417 0.102160
H78   H     H_    0.885007 0.119586 0.704828 0.121515
H79   H     H_    0.829144 0.240838 0.721982 0.204112
O62   O     O_3   0.123336 0.094606 0.337892 -0.561761
C150  C     C_3   0.056109 0.044557 0.328275 -0.092029
H80   H     H_    0.017871 0.114655 0.316109 0.068195
H81   H     H_    0.038333 0.993263 0.374087 0.092430
H82   H     H_    0.055162 0.979087 0.285011 0.173371
O63   O     O_3   0.314851 0.637361 0.626827 -0.557263
C151  C     C_3   0.364671 0.693257 0.668927 -0.085607
H83   H     H_    0.385561 0.770716 0.640940 0.119064
H84   H     H_    0.405679 0.629692 0.684062 0.084024
H85   H     H_    0.340311 0.725444 0.717828 0.192794
O64   O     O_3   0.625414 0.596278 0.336985 -0.560532
C152  C     C_3   0.558403 0.545195 0.327700 -0.091015
H86   H     H_    0.519272 0.614653 0.317448 0.066712
H87   H     H_    0.542615 0.490217 0.372666 0.096960
H88   H     H_    0.557077 0.481357 0.283613 0.171665
C153  C     C_R   0.050699 0.186447 0.910410 0.027250
C154  C     C_R   0.025497 0.235082 0.845905 -0.069900
C155  C     C_R   0.993533 0.163741 0.795109 -0.095717
C156  C     C_R   0.979387 0.046067 0.810522 -0.069769
C157  C     C_R   0.997835 0.000103 0.876944 -0.115326
C158  C     C_R   0.034923 0.067691 0.925606 -0.146636
H89   H     H_    0.031828 0.327509 0.833642 0.092682
H90   H     H_    0.980667 0.200166 0.743617 0.045139
H91   H     H_    0.953955 0.990853 0.771409 0.145127
H92   H     H_    0.984168 0.912121 0.891521 0.165444
H93   H     H_    0.051041 0.025264 0.974588 0.082394
C159  C     C_R   0.957907 0.210089 0.094394 0.030662
C160  C     C_R   0.991885 0.284214 0.143504 -0.112344
C161  C     C_R   0.043705 0.240301 0.187678 -0.080004
C162  C     C_R   0.062176 0.122135 0.182385 -0.093799
C163  C     C_R   0.023500 0.044629 0.140916 -0.175707
C164  C     C_R   0.972712 0.088925 0.094975 -0.126206
H94   H     H_    0.979990 0.376873 0.145595 0.136357
H95   H     H_    0.072568 0.299013 0.222289 0.171165
H96   H     H_    0.108747 0.091656 0.208099 0.223926
H97   H     H_    0.038225 0.953551 0.138744 0.163057
H98   H     H_    0.950104 0.030824 0.056072 0.100000
C165  C     C_R   0.549157 0.690989 0.914146 0.024836
C166  C     C_R   0.517491 0.749646 0.856315 -0.089873
C167  C     C_R   0.475995 0.688527 0.808703 -0.089748
C168  C     C_R   0.464023 0.568091 0.818089 -0.078846
C169  C     C_R   0.492531 0.510008 0.877124 -0.123375
C170  C     C_R   0.534644 0.570463 0.924997 -0.140739
H99   H     H_    0.524345 0.843167 0.847520 0.107693
H100  H     H_    0.452763 0.737763 0.765903 0.081143
H101  H     H_    0.431503 0.520393 0.781101 0.155970
H102  H     H_    0.480638 0.419530 0.887848 0.167985
H103  H     H_    0.554459 0.522292 0.970608 0.082972
C171  C     C_R   0.457631 0.710699 0.094734 0.031935
C172  C     C_R   0.491958 0.785264 0.143312 -0.113315
C173  C     C_R   0.544211 0.741883 0.187103 -0.081999
C174  C     C_R   0.562570 0.623676 0.182118 -0.096608
C175  C     C_R   0.523536 0.545647 0.141315 -0.176641
C176  C     C_R   0.472661 0.589598 0.095377 -0.124147
H104  H     H_    0.479992 0.877875 0.145213 0.136762
H105  H     H_    0.573382 0.800939 0.221206 0.173141
H106  H     H_    0.609485 0.593577 0.207280 0.226220
H107  H     H_    0.538241 0.454497 0.139313 0.162655
H108  H     H_    0.450001 0.531150 0.056708 0.100170
O65   O     O_3   0.680892 0.731088 0.138772 -0.582307
C177  C     C_3   0.748377 0.686558 0.147950 -0.107765
H109  H     H_    0.772009 0.656826 0.097846 0.116636
H110  H     H_    0.747019 0.610276 0.184911 0.157462
H111  H     H_    0.781893 0.752866 0.174212 0.133489
O66   O     O_3   0.335734 0.738754 0.863157 -0.572481
C178  C     C_3   0.270381 0.689590 0.848291 -0.120740
H112  H     H_    0.243262 0.657799 0.895953 0.118618
H113  H     H_    0.276791 0.613840 0.812039 0.163919
H114  H     H_    0.237304 0.753415 0.818811 0.141455
O67   O     O_3   0.178444 0.232989 0.137676 -0.581957
C179  C     C_3   0.245771 0.187938 0.147368 -0.109672
H115  H     H_    0.270105 0.159576 0.097358 0.116292
H116  H     H_    0.243835 0.110787 0.183584 0.157264
H117  H     H_    0.279020 0.253302 0.174833 0.133218
O68   O     O_3   0.836384 0.238057 0.862666 -0.572972
C180  C     C_3   0.770884 0.188561 0.848741 -0.125052
H118  H     H_    0.744522 0.156355 0.896745 0.119208
H119  H     H_    0.776817 0.112933 0.812320 0.163442
H120  H     H_    0.737210 0.252338 0.819959 0.137838

loop_
_geom_bond_atom_site_label_1
_geom_bond_atom_site_label_2
_ccdc_geom_bond_type
C99   C103  A    
Cr6   O30   S    
C133  C137  S    
C55   C59   A    
C126  O42   A    
Cr1   O45   S    
C85   C93   A    
C73   C93   A    
C136  C140  S    
C75   C95   A    
C150  H81   S    
C23   C51   A    
C135  C139  S    
O58   C146  S    
C84   C112  A    
Cr3   O47   S    
C154  H89   S    
C4    O28   A    
C79   C99   A    
Cr12  O40   S    
Cr5   O29   S    
C168  H101  S    
Cr8   O8    S    
C5    C6    S    
Cr5   O17   S    
C110  H26   S    
C100  C104  A    
C144  H64   S    
C179  H115  S    
C66   O58   S    
C9    C13   A    
C180  H120  S    
C131  C140  S    
C177  H110  S    
C55   C124  S    
Cr7   O27   S    
C50   C90   S    
C89   O1    A    
C12   C16   A    
O56   C144  S    
Cr2   O42   S    
Cr9   O33   S    
C160  H94   S    
C96   H16   S    
C99   O63   S    
C22   H38   S    
C87   C115  A    
C151  H85   S    
C32   H44   S    
C108  C112  A    
C59   C60   A    
C38   H52   S    
Cr6   O50   S    
C8    C135  S    
C111  H27   S    
C130  C134  S    
C47   O31   A    
C161  C162  A    
C127  O15   A    
C147  H73   S    
C36   C171  S    
C166  C167  A    
C118  O46   A    
C168  C169  A    
C98   C102  A    
C121  O9    A    
C159  C164  A    
C78   C82   A    
C150  H80   S    
C11   C27   A    
C16   C20   A    
C173  C174  A    
C136  O56   S    
Cr9   O13   S    
C129  C133  S    
C40   H50   S    
Cr11  O15   S    
C149  H77   S    
C17   C49   A    
C2    O22   A    
C142  H57   S    
C29   C35   A    
C170  H103  S    
C43   O67   S    
C120  O48   A    
Cr3   O23   S    
C5    C137  S    
C54   C61   A    
C6    C133  S    
C6    H34   S    
C179  H117  S    
C30   C36   A    
C8    C140  S    
C76   C96   A    
C31   H43   S    
C29   H41   S    
Cr7   O51   S    
C178  H114  S    
Cr2   O2    S    
C171  C172  A    
C98   O62   S    
Cr9   O9    S    
Cr11  O39   S    
C157  C158  A    
C109  H25   S    
C73   C77   A    
C103  C107  A    
Cr8   O32   S    
C75   C79   A    
C157  H92   S    
Cr1   O17   S    
C102  H18   S    
C88   C116  A    
C172  C173  A    
C21   C49   A    
C7    C8    S    
C132  C139  S    
Cr12  O12   S    
C21   C25   A    
C46   O30   A    
C7    H35   S    
C53   C122  S    
C18   C42   A    
C100  O64   S    
C152  H87   S    
C177  H109  S    
O64   C152  S    
O53   C141  S    
C59   C67   A    
C117  O49   A    
C153  C158  A    
C87   C95   A    
C69   H5    S    
C122  O6    A    
C77   C97   A    
C162  H96   S    
C128  O16   A    
C112  H28   S    
C165  C170  A    
C84   C116  A    
C105  H21   S    
O57   C145  S    
C146  H70   S    
C103  H19   S    
C69   C70   A    
C1    C12   S    
C11   C15   A    
C2    C11   S    
C20   C44   A    
C151  H84   S    
C45   O33   A    
C37   H51   S    
C66   C72   A    
C101  C105  A    
C48   C140  S    
C83   C115  A    
C27   H47   S    
C163  C164  A    
C10   C14   A    
C3    O27   A    
C88   H12   S    
C147  H72   S    
C148  H74   S    
C119  O47   A    
C21   H37   S    
C132  C136  S    
C24   H40   S    
C47   O35   A    
C54   C121  S    
Cr8   O52   S    
C161  H95   S    
C90   O38   A    
C74   C78   A    
C166  H99   S    
C81   C113  A    
C129  C130  S    
Cr5   O25   S    
C107  C111  A    
C24   C28   A    
C159  C160  A    
C95   H15   S    
C163  H97   S    
C91   O3    A    
O55   C143  S    
C15   C31   A    
O54   C142  S    
C16   C32   A    
C13   C17   A    
C85   C113  A    
C141  H53   S    
C7    C136  S    
C57   C58   A    
C171  C176  A    
C144  H63   S    
Cr11  O19   S    
C89   O37   A    
C37   C41   A    
C61   C62   A    
C26   H46   S    
Cr1   O1    S    
C180  H119  S    
C2    O26   A    
C63   C64   A    
C126  O14   A    
C40   C44   A    
C175  C176  A    
C146  H68   S    
C145  H65   S    
Cr11  O11   S    
C4    C9    S    
Cr7   O31   S    
C24   C52   A    
C88   C96   A    
C123  O11   A    
C85   H9    S    
C74   C94   A    
C125  O41   A    
C5    H33   S    
C80   C84   A    
C94   H14   S    
C174  C175  A    
C9    C25   A    
C142  H56   S    
C8    H36   S    
C15   C19   A    
C12   C28   A    
C13   C29   A    
C45   O29   A    
C148  H76   S    
C54   C58   A    
Cr6   O18   S    
O67   C179  S    
C160  C161  A    
O66   C178  S    
C105  C109  A    
C51   C91   S    
C90   O2    A    
C131  H31   S    
Cr3   O3    S    
C145  H67   S    
C101  H17   S    
Cr8   O28   S    
C104  H20   S    
C133  O53   S    
C73   C120  S    
Cr10  O18   S    
Cr5   O49   S    
C75   C118  S    
C149  H78   S    
Cr7   O7    S    
C48   O36   A    
C19   C43   A    
Cr2   O22   S    
C150  H82   S    
C147  H71   S    
O63   C151  S    
C76   C80   A    
C97   O61   S    
C33   C153  S    
C49   C89   S    
C53   C57   A    
C124  O8    A    
C56   C60   A    
C70   H6    S    
C149  H79   S    
C162  C163  A    
C56   C123  S    
C165  C166  A    
C77   C81   A    
C106  H22   S    
C178  H113  S    
C28   H48   S    
C156  H91   S    
C41   O65   S    
C81   C109  A    
C68   O60   S    
C65   O57   S    
C83   C111  A    
C52   C92   S    
C127  O43   A    
C131  C132  S    
C3    O23   A    
C104  C108  A    
Cr7   O19   S    
C18   C50   A    
C1    O21   A    
C155  H90   S    
C117  O45   A    
C172  H104  S    
C57   C65   A    
C119  O51   A    
C167  H100  S    
O68   C180  S    
Cr11  O35   S    
C76   C117  S    
C36   C38   A    
C132  H32   S    
C79   C83   A    
C152  H86   S    
C30   H42   S    
C107  H23   S    
C164  H98   S    
C114  C126  S    
C108  H24   S    
Cr3   O43   S    
C4    O24   A    
C155  C156  A    
C122  O10   A    
Cr10  O38   S    
C143  H59   S    
C60   C68   A    
C148  H75   S    
C22   C26   A    
C47   C139  S    
C130  C137  S    
C32   C34   A    
Cr4   O4    S    
C177  H111  S    
C125  O13   A    
Cr6   O26   S    
C142  H58   S    
C87   H11   S    
C169  C170  A    
Cr2   O46   S    
C146  H69   S    
O61   C149  S    
C14   C18   A    
C178  H112  S    
C23   H39   S    
C167  C168  A    
C74   C119  S    
C33   C39   A    
C34   C40   A    
C82   C110  A    
O60   C148  S    
C35   C37   A    
C38   C42   A    
C131  C135  S    
Cr3   O19   S    
C113  C125  S    
C175  H107  S    
C34   C159  S    
C115  C127  S    
C67   O59   S    
C118  O50   A    
C58   C66   A    
Cr5   O5    S    
C129  C138  S    
O59   C147  S    
C179  H116  S    
Cr10  O34   S    
C123  O7    A    
C78   C98   A    
C31   C33   A    
C86   H10   S    
C121  O5    A    
C86   C94   A    
C174  H106  S    
C46   C138  S    
C10   C26   A    
Cr10  O10   S    
C176  H108  S    
Cr4   O48   S    
C93   H13   S    
C134  O54   S    
C169  H102  S    
C80   C100  A    
C135  O55   S    
Cr9   O17   S    
C14   C30   A    
Cr6   O6    S    
Cr1   O21   S    
C5    C134  S    
C128  O44   A    
C22   C50   A    
C82   C114  A    
C130  H30   S    
C152  H88   S    
C39   C43   A    
C65   C71   A    
C62   H2    S    
C67   C69   A    
C6    C138  S    
C141  H54   S    
C120  O52   A    
C154  C155  A    
C92   O4    A    
C1    O25   A    
C53   C62   A    
Cr1   O41   S    
C158  H93   S    
Cr12  O36   S    
C143  H61   S    
C55   C64   A    
C45   C137  S    
C144  H62   S    
Cr10  O14   S    
C56   C63   A    
C180  H118  S    
C48   O32   A    
Cr9   O37   S    
C91   O39   A    
C23   C27   A    
Cr4   O44   S    
C145  H66   S    
C141  H55   S    
C44   O68   S    
C151  H83   S    
C124  O12   A    
C129  H29   S    
O62   C150  S    
C143  H60   S    
C61   H1    S    
C134  C138  S    
C71   H7    S    
O65   C177  S    
C64   H4    S    
C72   H8    S    
C86   C114  A    
C156  C157  A    
Cr12  O20   S    
Cr8   O20   S    
C63   H3    S    
C20   C52   A    
C3    C10   S    
C7    C139  S    
C92   O40   A    
Cr12  O16   S    
C102  C106  A    
C46   O34   A    
C39   H49   S    
C42   O66   S    
C153  C154  A    
C17   C41   A    
Cr4   O20   S    
C25   H45   S    
C19   C51   A    
C71   C72   A    
C106  C110  A    
C116  C128  S    
C68   C70   A    
C35   C165  S    
Cr4   O24   S    
C173  H105  S    
Cr2   O18   S    
C97   C101  A    
