data_mof_unit_50289.cif
_audit_creation_date              2012-10-26T19:42:14-0400
_audit_creation_method            fapswitch 2.2
_symmetry_space_group_name_H-M    P1
_symmetry_Int_Tables_number       1
_space_group_crystal_system       triclinic
_cell_length_a                    9.647919
_cell_length_b                    10.851829
_cell_length_c                    17.174647
_cell_angle_alpha                 94.010089
_cell_angle_beta                  85.075691
_cell_angle_gamma                 88.757756
_cell_volume                      1786.42733446

loop_
_atom_site_label
_atom_site_type_symbol
_atom_type_description
_atom_site_fract_x
_atom_site_fract_y
_atom_site_fract_z
_atom_type_partial_charge
C1    C     C_R   0.497091 0.738144 0.500438 0.536197
C2    C     C_R   0.529922 0.513412 0.264776 0.014827
C3    C     C_R   0.233083 0.898967 0.547175 -0.158833
C4    C     C_R   0.480484 0.504232 0.650462 0.512262
C5    C     C_R   0.126003 0.970123 0.589230 -0.061085
C6    C     C_R   0.149502 0.090581 0.616230 0.437660
C7    C     C_R   0.276293 0.143008 0.595440 -0.018062
C8    C     C_R   0.382482 0.074581 0.548052 -0.003568
C9    C     C_R   0.368202 0.946334 0.532274 0.023356
C10   C     C_R   0.489476 0.873675 0.502162 0.013576
C11   C     C_R   0.612347 0.932601 0.478685 -0.141649
C12   C     C_R   0.363551 0.490155 0.788821 0.002067
C13   C     C_R   0.616639 0.059916 0.482198 -0.111704
C14   C     C_R   0.501443 0.131490 0.514806 0.010898
C15   C     C_R   0.880041 0.373268 0.373879 0.424556
C16   C     C_R   0.500610 0.263868 0.505631 0.566693
C17   C     C_R   0.959062 0.352894 0.302581 0.376101
C18   C     C_R   0.101251 0.362988 0.300071 -0.207659
C19   C     C_R   0.162075 0.376026 0.370818 -0.023620
C20   C     C_R   0.084993 0.437102 0.438204 0.105635
C21   C     C_R   0.935902 0.437199 0.438690 0.084414
C22   C     C_R   0.914348 0.559333 0.558073 0.049782
C23   C     C_R   0.416142 0.532419 0.145724 -0.096511
C24   C     C_R   0.061628 0.560480 0.558736 0.100130
C25   C     C_R   0.519090 0.502945 0.349884 0.564146
C26   C     C_R   0.470034 0.533038 0.735961 -0.094513
C27   C     C_R   0.572461 0.610105 0.764665 -0.097932
C28   C     C_R   0.573769 0.644440 0.844394 -0.038735
C29   C     C_R   0.469203 0.600792 0.896683 0.021026
C30   C     C_R   0.365000 0.525342 0.869172 0.460821
C31   C     C_2   0.257344 0.270524 0.376188 0.324134
C32   C     C_2   0.117663 0.633650 0.624321 0.216376
C33   C     C_2   0.253301 0.406792 0.762736 0.323416
C34   C     C_R   0.408299 0.521455 0.225915 -0.140580
C35   C     C_2   0.387299 0.727817 0.023335 0.277492
C36   C     C_2   0.684588 0.725306 0.872315 0.286991
C37   C     C_R   0.660033 0.519333 0.221886 -0.061202
C38   C     C_R   0.667860 0.531239 0.141242 -0.073372
C39   C     C_R   0.545780 0.540155 0.103238 0.014802
C40   C     C_2   0.472506 0.623744 0.981763 0.005908
C41   C     C_2   0.553930 0.547625 0.018037 -0.152603
Cu1   Cu    Cu3+1 0.359340 0.500010 0.500010 0.950463
Cu2   Cu    Cu3+1 0.640660 0.499990 0.499990 1.033301
F1    F     F_    0.047266 0.158612 0.659634 -0.583452
F2    F     F_    0.761583 0.310348 0.380071 -0.582009
F3    F     F_    0.901144 0.301849 0.239090 -0.579206
F4    F     F_    0.265024 0.485908 0.921738 -0.550499
H1    H     H_    0.652021 0.644975 0.724118 0.191959
H2    H     H_    0.162145 0.327074 0.246940 0.161434
H3    H     H_    0.755335 0.516063 0.250580 0.160204
H4    H     H_    0.624037 0.481460 0.983000 0.159735
H5    H     H_    0.320754 0.534618 0.116799 0.165721
H6    H     H_    0.357429 0.264010 0.341844 0.121307
H7    H     H_    0.219600 0.672057 0.618169 0.159871
H8    H     H_    0.221187 0.405196 0.704119 0.143283
H9    H     H_    0.397945 0.754659 0.084504 0.111049
H10   H     H_    0.684460 0.755544 0.933861 0.123484
H11   H     H_    0.768770 0.534896 0.108670 0.154013
H12   H     H_    0.704852 0.879930 0.454735 0.145157
H13   H     H_    0.202574 0.810878 0.523456 0.143208
H14   H     H_    0.024536 0.931225 0.600934 0.156311
H15   H     H_    0.290882 0.237165 0.616949 0.134977
H16   H     H_    0.709883 0.102351 0.458099 0.199589
H17   H     H_    0.848705 0.609487 0.604511 0.164834
H18   H     H_    0.306613 0.520475 0.257382 0.131625
N1    N     N_R   0.852190 0.498790 0.499250 -0.260356
N2    N     N_R   0.148060 0.498710 0.499220 -0.263449
O1    O     O_R   0.381190 0.680360 0.500010 -0.540561
O2    O     O_2   0.048033 0.654717 0.686858 -0.473130
O3    O     O_2   0.195144 0.337732 0.807455 -0.355253
O4    O     O_2   0.305512 0.786386 0.988756 -0.423495
O5    O     O_2   0.777789 0.759494 0.826788 -0.421690
O6    O     O_R   0.618760 0.680340 0.500000 -0.517391
O7    O     O_R   0.367440 0.500030 0.613600 -0.556229
O8    O     O_R   0.605010 0.500010 0.613590 -0.494485
O9    O     O_R   0.381240 0.319660 0.500000 -0.491592
O10   O     O_R   0.618810 0.319640 0.499990 -0.416180
O11   O     O_R   0.394990 0.499990 0.386410 -0.531523
O12   O     O_R   0.632560 0.499970 0.386400 -0.451999
O13   O     O_2   0.219072 0.183977 0.413700 -0.490661

loop_
_geom_bond_atom_site_label_1
_geom_bond_atom_site_label_2
_ccdc_geom_bond_type
C27   H1    S    
Cu2   O6    S    
C33   H8    S    
C21   N1    A    
C20   N2    A    
C19   C20   A    
C19   C31   S    
C7    C8    A    
C39   C41   S    
C26   C27   A    
C29   C30   A    
C28   C29   A    
C16   O10   A    
C5    C6    A    
Cu2   O12   S    
C1    O1    A    
C18   C19   A    
C22   N1    A    
C4    O8    A    
C24   N2    A    
C38   H11   S    
C8    C9    A    
C9    C10   A    
C4    O7    A    
C3    H13   S    
C2    C34   A    
C35   O4    D    
C6    F1    S    
C13   C14   A    
Cu1   O1    S    
C11   H12   S    
C34   H18   S    
C32   H7    S    
Cu2   O8    S    
Cu1   O7    S    
C25   O11   A    
C30   F4    S    
C31   O13   D    
C17   F3    S    
C36   H10   S    
C12   C26   A    
C24   C32   S    
C7    H15   S    
C37   C38   A    
C3    C9    A    
C13   H16   S    
C23   C34   A    
C17   C18   A    
C5    H14   S    
C31   H6    S    
C32   O2    D    
C33   O3    D    
C40   C41   D    
Cu1   O11   S    
Cu1   N2    S    
C14   C16   S    
Cu1   Cu2   S    
C15   F2    S    
C15   C17   A    
C8    C14   A    
C12   C30   A    
C35   H9    S    
C16   O9    A    
C1    C10   S    
C3    C5    A    
C25   O12   A    
C4    C26   S    
C6    C7    A    
Cu2   O10   S    
Cu1   O9    S    
C1    O6    A    
C35   C40   S    
C37   H3    S    
C11   C13   A    
C2    C37   A    
C23   H5    S    
C38   C39   A    
Cu2   N1    S    
C23   C39   A    
C29   C40   S    
C2    C25   S    
C22   C24   A    
C10   C11   A    
C22   H17   S    
C15   C21   A    
C20   C21   A    
C28   C36   S    
C27   C28   A    
C12   C33   S    
C41   H4    S    
C36   O5    D    
C18   H2    S    
