data_mof_unit_57920.cif
_audit_creation_date              2012-12-10T19:48:21-0500
_audit_creation_method            fapswitch 2.2
_symmetry_space_group_name_H-M    P1
_symmetry_Int_Tables_number       1
_space_group_crystal_system       triclinic
_cell_length_a                    18.240771
_cell_length_b                    18.23448
_cell_length_c                    30.255086
_cell_angle_alpha                 90.054847
_cell_angle_beta                  89.793193
_cell_angle_gamma                 89.800576
_cell_volume                      10063.042382

loop_
_atom_site_label
_atom_site_type_symbol
_atom_type_description
_atom_site_fract_x
_atom_site_fract_y
_atom_site_fract_z
_atom_type_partial_charge
C1    C     C_R   0.141297 0.499911 0.999819 0.891912
C2    C     C_1   0.499687 0.217800 0.999998 -0.194276
C3    C     C_R   0.086054 0.603981 0.773041 0.362561
C4    C     C_R   0.451970 0.873657 0.225685 0.367446
C5    C     C_R   0.915785 0.605910 0.226611 0.361694
C6    C     C_R   0.547722 0.125725 0.225819 0.363685
C7    C     C_R   0.121120 0.432677 0.226767 0.427267
C8    C     C_3   0.922663 0.727730 0.296001 0.129413
C9    C     C_3   0.972374 0.731981 0.336687 -0.336230
C10   C     C_3   0.010533 0.806152 0.339694 -0.965664
C11   C     C_3   0.326272 0.837502 0.287953 0.123071
C12   C     C_3   0.294859 0.885609 0.325072 -0.325892
C13   C     C_1   0.782193 0.500290 0.999892 -0.204527
C14   C     C_3   0.211512 0.891084 0.322244 -0.980867
C15   C     C_3   0.224851 0.367657 0.295569 0.190547
C16   C     C_3   0.257684 0.298192 0.274812 -0.293707
C17   C     C_3   0.340606 0.294347 0.281293 -1.056032
C18   C     C_3   0.671295 0.162702 0.288959 0.140432
C19   C     C_3   0.700476 0.114027 0.326305 -0.342046
C20   C     C_3   0.783710 0.106343 0.323929 -0.967623
C21   C     C_3   0.952500 0.267445 0.709856 0.139394
C22   C     C_3   0.009238 0.267213 0.672334 -0.326981
C23   C     C_3   0.059396 0.200167 0.674935 -0.983452
C24   C     C_1   0.500238 0.782197 0.000387 -0.204018
C25   C     C_3   0.271148 0.075097 0.707283 0.132646
C26   C     C_3   0.260536 0.031513 0.664500 -0.317211
C27   C     C_3   0.186372 0.993057 0.663851 -0.973276
C28   C     C_3   0.055985 0.731206 0.711239 0.138220
C29   C     C_3   0.994684 0.731491 0.676670 -0.344538
C30   C     C_3   0.948127 0.800933 0.680058 -0.961317
C31   C     C_3   0.670890 0.806220 0.701808 0.191713
C32   C     C_3   0.743060 0.786433 0.724653 -0.317638
C33   C     C_3   0.768192 0.708799 0.713006 -1.025224
C34   C     C_3   0.352224 0.201202 0.789624 0.136884
C35   C     C_1   0.717814 0.999710 0.500127 -0.180394
C36   C     C_3   0.303756 0.243357 0.822304 -0.295723
C37   C     C_3   0.313852 0.326066 0.817734 -1.016458
C38   C     C_3   0.807648 0.340419 0.787310 0.131861
C39   C     C_3   0.767795 0.288789 0.819020 -0.286822
C40   C     C_3   0.684906 0.292000 0.812498 -1.015026
C41   C     C_3   0.554648 0.772144 0.791770 0.056571
C42   C     C_3   0.589294 0.698059 0.803254 -0.320147
C43   C     C_3   0.530927 0.639467 0.810451 -0.979255
C44   C     C_3   0.201016 0.650057 0.785518 0.127660
C45   C     C_3   0.244554 0.700884 0.815794 -0.286967
C46   C     C_1   0.999715 0.717807 0.499935 -0.184902
C47   C     C_3   0.326947 0.693626 0.807693 -1.026415
C48   C     C_3   0.465552 0.748245 0.217540 0.120450
C49   C     C_3   0.457196 0.687099 0.183309 -0.294709
C50   C     C_3   0.487198 0.614282 0.200585 -1.018685
C51   C     C_3   0.800978 0.651190 0.210107 0.147953
C52   C     C_3   0.760916 0.696551 0.175168 -0.297762
C53   C     C_3   0.678448 0.683513 0.176736 -1.033762
C54   C     C_3   0.531286 0.248361 0.212327 0.129033
C55   C     C_3   0.557407 0.311895 0.183441 -0.294126
C56   C     C_3   0.506818 0.378296 0.187877 -1.011815
C57   C     C_1   0.282185 0.000286 0.499896 -0.187319
C58   C     C_3   0.229326 0.468954 0.196942 0.061260
C59   C     C_3   0.304953 0.442571 0.181307 -0.357889
C60   C     C_3   0.342205 0.499785 0.152177 -0.923200
C61   C     C_3   0.177125 0.495717 0.367199 -0.291853
C62   C     C_3   0.467236 0.173050 0.362497 -0.190178
C63   C     C_3   0.829462 0.533553 0.358166 -0.191269
C64   C     C_3   0.529463 0.826929 0.362377 -0.188749
C65   C     C_3   0.164552 0.564380 0.635140 -0.191158
C66   C     C_3   0.530379 0.826255 0.633740 -0.304972
C67   C     C_3   0.836376 0.434507 0.637011 -0.191953
C68   C     C_1   0.000289 0.282193 0.500103 -0.177628
C69   C     C_3   0.455950 0.169817 0.639443 -0.190056
C70   C     C_3   0.564037 0.848302 0.892163 -0.218460
C71   C     C_3   0.161826 0.538365 0.876550 -0.268280
C72   C     C_3   0.470356 0.158322 0.874405 -0.287564
C73   C     C_3   0.840083 0.459503 0.875570 -0.278522
C74   C     C_3   0.457938 0.161830 0.122056 -0.300519
C75   C     C_3   0.146290 0.424032 0.105328 -0.192269
C76   C     C_3   0.543273 0.838354 0.123915 -0.299467
C77   C     C_3   0.842347 0.529183 0.127023 -0.292174
C78   C     C_R   0.001429 0.500017 0.086855 0.943719
C79   C     C_R   0.499867 0.000192 0.086578 1.011747
C80   C     C_R   0.000240 0.499937 0.913159 0.962855
C81   C     C_R   0.499890 0.141284 0.000034 0.935269
C82   C     C_R   0.500102 0.998397 0.913144 0.949137
C83   C     C_R   0.499998 0.999874 0.587000 0.996021
C84   C     C_R   0.999936 0.500188 0.586940 1.006723
C85   C     C_R   0.499695 0.999989 0.412766 0.952833
C86   C     C_R   0.000518 0.500101 0.412874 0.982120
C87   C     C_1   0.282650 0.499771 0.000160 -0.199585
C88   C     C_1   0.499722 0.282647 0.999972 -0.196729
C89   C     C_1   0.717354 0.500241 0.999836 -0.195597
C90   C     C_1   0.500220 0.717352 0.000160 -0.196154
C91   C     C_1   0.782656 0.999762 0.500166 -0.181416
C92   C     C_R   0.858708 0.500107 0.000011 0.916820
C93   C     C_1   0.999770 0.782656 0.499935 -0.185895
C94   C     C_1   0.217344 0.000228 0.499849 -0.187551
C95   C     C_1   0.000242 0.217344 0.500085 -0.180024
C96   C     C_R   0.499898 0.359179 0.999987 0.929878
C97   C     C_R   0.640823 0.500075 0.999936 0.930101
C98   C     C_R   0.500080 0.640821 0.000030 0.931069
C99   C     C_R   0.359177 0.499924 0.000067 0.931915
C100  C     C_R   0.999938 0.859182 0.499979 0.923923
C101  C     C_R   0.140819 0.000059 0.499940 0.923650
C102  C     C_R   0.000077 0.140817 0.500024 0.924665
C103  C     C_R   0.500072 0.858722 0.000596 0.919656
C104  C     C_R   0.859182 0.999928 0.500063 0.923859
C105  C     C_R   0.062901 0.470021 0.342206 0.481532
C106  C     C_R   0.517328 0.064434 0.341190 0.438039
C107  C     C_R   0.950456 0.543040 0.341476 0.426376
C108  C     C_R   0.480169 0.935852 0.341198 0.440710
C109  C     C_R   0.046444 0.548494 0.657388 0.426873
C110  C     C_R   0.538752 0.944283 0.657355 0.475922
C111  C     C_R   0.954820 0.451194 0.657660 0.424837
C112  C     C_R   0.455315 0.049254 0.658172 0.423384
C113  C     C_R   0.540709 0.942240 0.842526 0.445202
C114  C     C_R   0.641293 0.999892 0.500027 0.939080
C115  C     C_R   0.050844 0.544479 0.842822 0.475889
C116  C     C_R   0.454351 0.045991 0.842951 0.486023
C117  C     C_R   0.952279 0.453766 0.842797 0.478807
C118  C     C_R   0.514203 0.065690 0.156145 0.464226
C119  C     C_R   0.058808 0.460730 0.157161 0.436378
C120  C     C_R   0.484999 0.934755 0.156023 0.465506
C121  C     C_R   0.955126 0.547162 0.157224 0.488682
C122  C     C_R   0.003346 0.502739 0.364700 -0.351233
C123  C     C_R   0.499059 0.000063 0.364364 -0.359169
C124  C     C_R   0.000073 0.500231 0.634828 -0.340298
C125  C     C_R   0.999894 0.641286 0.499969 0.945882
C126  C     C_R   0.498954 0.998705 0.634974 -0.345035
C127  C     C_R   0.499250 0.995644 0.865334 -0.339166
C128  C     C_R   0.000977 0.499607 0.865401 -0.352985
C129  C     C_R   0.499474 0.000320 0.133856 -0.338363
C130  C     C_R   0.004753 0.501331 0.134619 -0.335225
C131  C     C_R   0.959842 0.554278 0.295826 -0.121213
C132  C     C_R   0.473371 0.938061 0.294996 -0.122817
C133  C     C_R   0.063307 0.467780 0.295868 -0.126957
C134  C     C_R   0.524346 0.062189 0.295017 -0.129440
C135  C     C_R   0.960869 0.445764 0.703841 -0.122676
C136  C     C_R   0.358705 0.000107 0.499989 0.934371
C137  C     C_R   0.446579 0.041218 0.704121 -0.118265
C138  C     C_R   0.042089 0.552870 0.703721 -0.123944
C139  C     C_R   0.541552 0.945499 0.703590 -0.119425
C140  C     C_R   0.446848 0.041004 0.796903 -0.110615
C141  C     C_R   0.957519 0.447919 0.796633 -0.114278
C142  C     C_R   0.537319 0.939848 0.796160 -0.121670
C143  C     C_R   0.046800 0.549621 0.796573 -0.115158
C144  C     C_R   0.478545 0.935397 0.202254 -0.107628
C145  C     C_R   0.960938 0.555713 0.203198 -0.108292
C146  C     C_R   0.520415 0.064555 0.202323 -0.109888
C147  C     C_R   0.000106 0.358716 0.500070 0.950417
C148  C     C_R   0.064863 0.468988 0.203165 -0.123759
C149  C     C_R   0.012562 0.512068 0.272640 -0.152082
C150  C     C_R   0.498976 0.000079 0.271808 -0.146628
C151  C     C_R   0.001655 0.499202 0.727015 -0.144194
C152  C     C_R   0.492818 0.991940 0.727077 -0.149153
C153  C     C_R   0.492000 0.990679 0.773448 -0.158865
C154  C     C_R   0.001981 0.498947 0.773425 -0.162661
C155  C     C_R   0.499169 0.000039 0.225445 -0.161915
C156  C     C_R   0.013170 0.512753 0.226277 -0.157415
C157  C     C_R   0.918856 0.607725 0.273061 0.360077
C158  C     C_1   0.217815 0.499736 0.000035 -0.212845
C159  C     C_R   0.441943 0.879201 0.271695 0.353971
C160  C     C_R   0.115901 0.425265 0.272807 0.385809
C161  C     C_R   0.556281 0.120868 0.271744 0.360480
C162  C     C_R   0.927868 0.387750 0.727171 0.355771
C163  C     C_R   0.392434 0.080763 0.727455 0.354879
C164  C     C_R   0.076862 0.609749 0.727089 0.355389
C165  C     C_R   0.590137 0.898794 0.726201 0.381592
C166  C     C_R   0.395865 0.085420 0.773797 0.363950
C167  C     C_R   0.919725 0.392483 0.773276 0.362037
C168  C     C_R   0.580296 0.888990 0.771774 0.425684
H1    H     H_    0.882965 0.774027 0.297354 0.156675
H2    H     H_    0.310015 0.861878 0.357623 0.260356
H3    H     H_    0.472664 0.236988 0.204989 0.119106
H4    H     H_    0.613817 0.327651 0.193371 0.215699
H5    H     H_    0.559063 0.294419 0.148266 0.251001
H6    H     H_    0.450766 0.363839 0.176746 0.267991
H7    H     H_    0.527659 0.423717 0.166943 0.268555
H8    H     H_    0.504504 0.397275 0.222756 0.267046
H9    H     H_    0.237156 0.503766 0.226891 0.083293
H10   H     H_    0.204199 0.504714 0.171375 0.152362
H11   H     H_    0.339900 0.431578 0.210531 0.205862
H12   H     H_    0.300234 0.390590 0.162371 0.236814
H13   H     H_    0.318383 0.941605 0.322765 0.210745
H14   H     H_    0.310088 0.508629 0.121499 0.269131
H15   H     H_    0.397887 0.480609 0.142734 0.267944
H16   H     H_    0.346712 0.552519 0.170263 0.264481
H17   H     H_    0.199340 0.507773 0.333742 0.112548
H18   H     H_    0.222896 0.474785 0.387719 0.173310
H19   H     H_    0.157406 0.547785 0.382418 0.166724
H20   H     H_    0.454558 0.190538 0.328157 0.149472
H21   H     H_    0.476984 0.223312 0.382262 0.170900
H22   H     H_    0.419108 0.144452 0.377156 0.136298
H23   H     H_    0.837591 0.476095 0.369637 0.140305
H24   H     H_    0.194976 0.915506 0.290154 0.268402
H25   H     H_    0.811581 0.533836 0.323058 0.143701
H26   H     H_    0.784489 0.557868 0.378196 0.170472
H27   H     H_    0.577890 0.855404 0.376586 0.133253
H28   H     H_    0.541888 0.808715 0.328053 0.139641
H29   H     H_    0.519448 0.777109 0.382484 0.170301
H30   H     H_    0.187680 0.567534 0.669024 0.146499
H31   H     H_    0.200334 0.597269 0.613113 0.171639
H32   H     H_    0.166541 0.506593 0.623275 0.137603
H33   H     H_    0.523311 0.803572 0.667548 0.112375
H34   H     H_    0.557569 0.783591 0.613238 0.175796
H35   H     H_    0.190534 0.926482 0.349402 0.278836
H36   H     H_    0.475342 0.836941 0.619336 0.171099
H37   H     H_    0.833501 0.492267 0.625222 0.137988
H38   H     H_    0.814484 0.431076 0.671286 0.146217
H39   H     H_    0.800162 0.401282 0.615550 0.173089
H40   H     H_    0.513436 0.164926 0.627265 0.141332
H41   H     H_    0.455675 0.189712 0.674202 0.145839
H42   H     H_    0.428047 0.211911 0.619029 0.169654
H43   H     H_    0.503043 0.849308 0.894991 0.088665
H44   H     H_    0.588545 0.854522 0.925171 0.199083
H45   H     H_    0.581254 0.793309 0.880843 0.178917
H46   H     H_    0.186556 0.835876 0.325581 0.265595
H47   H     H_    0.184818 0.511175 0.846578 0.131199
H48   H     H_    0.146317 0.496042 0.901198 0.140623
H49   H     H_    0.205894 0.571945 0.891437 0.187510
H50   H     H_    0.499771 0.175409 0.843802 0.132803
H51   H     H_    0.510862 0.142137 0.899910 0.149209
H52   H     H_    0.440372 0.206849 0.887320 0.186463
H53   H     H_    0.817909 0.485755 0.845198 0.131569
H54   H     H_    0.854273 0.502490 0.900086 0.141776
H55   H     H_    0.795815 0.425774 0.890275 0.187503
H56   H     H_    0.419896 0.163587 0.150927 0.136238
H57   H     H_    0.240611 0.368298 0.330975 0.166641
H58   H     H_    0.431196 0.132889 0.094263 0.171322
H59   H     H_    0.467317 0.219092 0.111187 0.189647
H60   H     H_    0.148844 0.484303 0.099374 0.082757
H61   H     H_    0.134922 0.395171 0.074019 0.201793
H62   H     H_    0.201115 0.404638 0.115444 0.185727
H63   H     H_    0.569644 0.821545 0.155398 0.155266
H64   H     H_    0.580787 0.875008 0.105288 0.161579
H65   H     H_    0.535371 0.788718 0.103315 0.184100
H66   H     H_    0.825735 0.500875 0.158059 0.134098
H67   H     H_    0.858669 0.487825 0.101880 0.153443
H68   H     H_    0.249432 0.417398 0.280598 0.093973
H69   H     H_    0.793476 0.558168 0.113994 0.187570
H70   H     H_    0.232387 0.249177 0.290386 0.227402
H71   H     H_    0.245531 0.296530 0.238920 0.260115
H72   H     H_    0.367735 0.342399 0.265924 0.267516
H73   H     H_    0.955656 0.735662 0.265230 0.139059
H74   H     H_    0.362501 0.243710 0.265577 0.261755
H75   H     H_    0.353938 0.292995 0.317074 0.263910
H76   H     H_    0.698601 0.216957 0.290986 0.157212
H77   H     H_    0.686787 0.139059 0.256171 0.140752
H78   H     H_    0.685027 0.138309 0.358750 0.262538
H79   H     H_    0.675765 0.058579 0.323908 0.210158
H80   H     H_    0.800391 0.081057 0.292006 0.266276
H81   H     H_    0.802995 0.070702 0.351297 0.275115
H82   H     H_    0.810083 0.160888 0.327209 0.269913
H83   H     H_    0.920487 0.215818 0.708079 0.162144
H84   H     H_    0.939130 0.723443 0.367100 0.263055
H85   H     H_    0.980694 0.266887 0.742540 0.139904
H86   H     H_    0.980577 0.267023 0.639973 0.261725
H87   H     H_    0.043367 0.317437 0.674350 0.209637
H88   H     H_    0.089593 0.199806 0.706757 0.260973
H89   H     H_    0.099856 0.201719 0.647441 0.276512
H90   H     H_    0.026893 0.148992 0.672041 0.266539
H91   H     H_    0.224963 0.114565 0.710922 0.159103
H92   H     H_    0.268036 0.037476 0.736349 0.132664
H93   H     H_    0.264007 0.069226 0.635726 0.260294
H94   H     H_    0.304687 0.989682 0.661328 0.213082
H95   H     H_    0.014824 0.688251 0.334834 0.206017
H96   H     H_    0.182001 0.954114 0.691944 0.260143
H97   H     H_    0.180562 0.961951 0.632490 0.280892
H98   H     H_    0.141188 0.033931 0.666034 0.267756
H99   H     H_    0.089110 0.781753 0.707034 0.159491
H100  H     H_    0.032135 0.733951 0.745213 0.143873
H101  H     H_    0.019019 0.728155 0.642993 0.264448
H102  H     H_    0.958688 0.683164 0.681714 0.209925
H103  H     H_    0.923777 0.805760 0.713637 0.266197
H104  H     H_    0.903112 0.798648 0.655487 0.277666
H105  H     H_    0.982112 0.850086 0.673192 0.267994
H106  H     H_    0.044547 0.815734 0.309737 0.262522
H107  H     H_    0.677349 0.794716 0.665944 0.176132
H108  H     H_    0.626046 0.770319 0.713593 0.094921
H109  H     H_    0.786206 0.825672 0.714156 0.234944
H110  H     H_    0.736478 0.790984 0.761037 0.260900
H111  H     H_    0.725816 0.668206 0.722568 0.259096
H112  H     H_    0.819622 0.695861 0.730968 0.277692
H113  H     H_    0.779079 0.704249 0.676956 0.270553
H114  H     H_    0.335104 0.216958 0.755771 0.167369
H115  H     H_    0.410326 0.217884 0.794386 0.113976
H116  H     H_    0.245338 0.229580 0.816191 0.220923
H117  H     H_    0.046688 0.807093 0.369145 0.277795
H118  H     H_    0.317385 0.226778 0.856628 0.251688
H119  H     H_    0.371568 0.341288 0.824767 0.267197
H120  H     H_    0.277539 0.354914 0.841672 0.272023
H121  H     H_    0.299341 0.344125 0.783807 0.263372
H122  H     H_    0.795573 0.322448 0.753021 0.166608
H123  H     H_    0.785891 0.397061 0.792017 0.110092
H124  H     H_    0.787171 0.231677 0.813318 0.225882
H125  H     H_    0.780677 0.304038 0.853681 0.248296
H126  H     H_    0.664114 0.348322 0.819046 0.264232
H127  H     H_    0.657770 0.253624 0.835819 0.272742
H128  H     H_    0.969416 0.850925 0.342973 0.268881
H129  H     H_    0.670587 0.275788 0.778204 0.265825
H130  H     H_    0.527147 0.766543 0.759047 0.088876
H131  H     H_    0.511252 0.785780 0.816367 0.149895
H132  H     H_    0.626071 0.680506 0.775903 0.210034
H133  H     H_    0.622951 0.702916 0.833605 0.231230
H134  H     H_    0.495023 0.654600 0.838790 0.272289
H135  H     H_    0.557778 0.586148 0.817832 0.260781
H136  H     H_    0.496946 0.633116 0.780299 0.263326
H137  H     H_    0.212725 0.666069 0.750795 0.164337
H138  H     H_    0.220191 0.592630 0.790600 0.110739
H139  H     H_    0.299407 0.782964 0.289382 0.154141
H140  H     H_    0.227564 0.758611 0.809765 0.222403
H141  H     H_    0.232489 0.687448 0.850868 0.245529
H142  H     H_    0.345432 0.636636 0.814473 0.270702
H143  H     H_    0.356848 0.731427 0.830022 0.270763
H144  H     H_    0.340580 0.708037 0.772964 0.263780
H145  H     H_    0.441526 0.727962 0.248928 0.184957
H146  H     H_    0.525180 0.758829 0.222458 0.098700
H147  H     H_    0.398309 0.680362 0.174989 0.229664
H148  H     H_    0.487143 0.701805 0.152671 0.235017
H149  H     H_    0.544027 0.620852 0.212839 0.272442
H150  H     H_    0.312210 0.861281 0.255054 0.139267
H151  H     H_    0.487722 0.573114 0.173548 0.274107
H152  H     H_    0.452161 0.593666 0.227956 0.267088
H153  H     H_    0.783749 0.671787 0.243090 0.164602
H154  H     H_    0.784237 0.592710 0.207034 0.113743
H155  H     H_    0.771907 0.755752 0.180793 0.215018
H156  H     H_    0.781694 0.682015 0.141743 0.259570
H157  H     H_    0.666287 0.624522 0.171383 0.273988
H158  H     H_    0.651454 0.715546 0.150192 0.269117
H159  H     H_    0.655852 0.701225 0.209182 0.259887
H160  H     H_    0.535534 0.265780 0.247421 0.167266
O1    O     O_R   0.107310 0.560570 0.000010 -0.608396
O2    O     O_R   0.939430 0.607310 0.500010 -0.622887
O3    O     O_R   0.392690 0.939430 0.500010 -0.626884
O4    O     O_R   0.060570 0.392690 0.500010 -0.621389
O5    O     O_R   0.607310 0.939430 0.499990 -0.621302
O6    O     O_R   0.939430 0.392690 0.499990 -0.622504
O7    O     O_R   0.392690 0.060570 0.499990 -0.622494
O8    O     O_R   0.060570 0.607310 0.499990 -0.625091
O9    O     O_R   0.999950 0.560580 0.066080 -0.592498
O10   O     O_R   0.439420 0.999950 0.066080 -0.624475
O11   O     O_R   0.000050 0.439420 0.066080 -0.610026
O12   O     O_R   0.439430 0.107310 0.000010 -0.626510
O13   O     O_R   0.560580 0.000050 0.066080 -0.621503
O14   O     O_R   0.999950 0.439420 0.933920 -0.591941
O15   O     O_R   0.439420 0.000050 0.933920 -0.593082
O16   O     O_R   0.000050 0.560580 0.933920 -0.594797
O17   O     O_R   0.560580 0.999950 0.933920 -0.605626
O18   O     O_R   0.499950 0.060580 0.566080 -0.607436
O19   O     O_R   0.939420 0.499950 0.566080 -0.616950
O20   O     O_R   0.500050 0.939420 0.566080 -0.607934
O21   O     O_R   0.060580 0.500050 0.566080 -0.617467
O22   O     O_R   0.499950 0.939420 0.433920 -0.590654
O23   O     O_R   0.892690 0.439430 0.000010 -0.613839
O24   O     O_R   0.939420 0.500050 0.433920 -0.602408
O25   O     O_R   0.500050 0.060580 0.433920 -0.588811
O26   O     O_R   0.060580 0.499950 0.433920 -0.601258
O27   O     O_R   0.499980 0.392670 0.037330 -0.620128
O28   O     O_R   0.607330 0.499980 0.037330 -0.621311
O29   O     O_R   0.500020 0.607330 0.037330 -0.618689
O30   O     O_R   0.392670 0.500020 0.037330 -0.624130
O31   O     O_R   0.499980 0.607330 0.962670 -0.623614
O32   O     O_R   0.607330 0.500020 0.962670 -0.623575
O33   O     O_R   0.500020 0.392670 0.962670 -0.623552
O34   O     O_R   0.560570 0.892690 0.000010 -0.649212
O35   O     O_R   0.392670 0.499980 0.962670 -0.621519
O36   O     O_R   0.999980 0.892670 0.537330 -0.617033
O37   O     O_R   0.107330 0.999980 0.537330 -0.621629
O38   O     O_R   0.000020 0.107330 0.537330 -0.618027
O39   O     O_R   0.892670 0.000020 0.537330 -0.613106
O40   O     O_R   0.999980 0.107330 0.462670 -0.614990
O41   O     O_R   0.107330 0.000020 0.462670 -0.620111
O42   O     O_R   0.000020 0.892670 0.462670 -0.621874
O43   O     O_R   0.892670 0.999980 0.462670 -0.623452
O44   O     O_3   0.881618 0.661877 0.296283 -0.624250
O45   O     O_R   0.107310 0.439430 0.999990 -0.648020
O46   O     O_3   0.402395 0.826112 0.294123 -0.625777
O47   O     O_3   0.147315 0.364722 0.293633 -0.593545
O48   O     O_3   0.594943 0.174773 0.293971 -0.617782
O49   O     O_3   0.902500 0.326500 0.704833 -0.621084
O50   O     O_3   0.336722 0.116347 0.704897 -0.625386
O51   O     O_3   0.103608 0.670554 0.704847 -0.621378
O52   O     O_3   0.657330 0.882275 0.706472 -0.599438
O53   O     O_3   0.342856 0.125071 0.796757 -0.595339
O54   O     O_3   0.883799 0.336969 0.795925 -0.593081
O55   O     O_3   0.609523 0.827233 0.791554 -0.607639
O56   O     O_R   0.439430 0.892690 0.999990 -0.606831
O57   O     O_3   0.125399 0.657350 0.795406 -0.591732
O58   O     O_3   0.427760 0.811887 0.202992 -0.589518
O59   O     O_3   0.877380 0.659833 0.203924 -0.600132
O60   O     O_3   0.575561 0.186076 0.203567 -0.589826
O61   O     O_3   0.183573 0.407663 0.205485 -0.613497
O62   O     O_3   0.121513 0.441751 0.365742 -0.551366
O63   O     O_3   0.530950 0.128872 0.363981 -0.551566
O64   O     O_3   0.893189 0.576026 0.364280 -0.561870
O65   O     O_3   0.466050 0.871579 0.364036 -0.550453
O66   O     O_3   0.092810 0.593746 0.633468 -0.566483
O67   O     O_R   0.892690 0.560570 0.999990 -0.616408
O68   O     O_3   0.574751 0.889809 0.633705 -0.560585
O69   O     O_3   0.908292 0.405855 0.634086 -0.566753
O70   O     O_3   0.417641 0.103029 0.635141 -0.565390
O71   O     O_3   0.594679 0.902239 0.864179 -0.545591
O72   O     O_3   0.101960 0.584683 0.866319 -0.542805
O73   O     O_3   0.419421 0.101562 0.866340 -0.547786
O74   O     O_3   0.900774 0.413597 0.866189 -0.544385
O75   O     O_3   0.526330 0.129480 0.132344 -0.556438
O76   O     O_3   0.093834 0.401557 0.136968 -0.552901
O77   O     O_3   0.474229 0.871227 0.131796 -0.549627
O78   O     O_R   0.560570 0.107310 0.999990 -0.611705
O79   O     O_3   0.898664 0.580962 0.134262 -0.553028
O80   O     O_R   0.607310 0.060570 0.500010 -0.625174
Zn1   Zn    Zn3+2 0.000000 0.580890 0.000000 1.013483
Zn2   Zn    Zn3+2 0.500000 0.500000 0.950170 0.941818
Zn3   Zn    Zn3+2 0.000000 0.000000 0.549830 0.961685
Zn4   Zn    Zn3+2 0.000000 0.000000 0.450170 0.959877
Zn5   Zn    Zn3+2 0.419110 0.000000 0.000000 1.000159
Zn6   Zn    Zn3+2 0.000000 0.419110 0.000000 0.992466
Zn7   Zn    Zn3+2 0.580890 0.000000 0.000000 0.987148
Zn8   Zn    Zn3+2 0.500000 0.080890 0.500000 0.973262
Zn9   Zn    Zn3+2 0.919110 0.500000 0.500000 0.965092
Zn10  Zn    Zn3+2 0.500000 0.919110 0.500000 0.970031
Zn11  Zn    Zn3+2 0.080890 0.500000 0.500000 0.963964
Zn12  Zn    Zn3+2 0.500000 0.500000 0.049830 0.933369

loop_
_geom_bond_atom_site_label_1
_geom_bond_atom_site_label_2
_ccdc_geom_bond_type
C62   O63   S    
C60   H16   S    
O80   Zn8   S    
C132  C150  A    
C19   C20   S    
C120  C144  A    
C36   H118  S    
C62   H22   S    
C86   O24   A    
C105  C133  A    
C6    C146  A    
C141  C154  A    
C102  O38   A    
O67   Zn1   S    
C71   H48   S    
C64   H27   S    
C139  C152  A    
C77   H67   S    
C119  C130  A    
C113  C142  A    
C75   H61   S    
C115  O72   S    
C55   H5    S    
C125  O8    A    
C65   H31   S    
C66   H33   S    
C16   H71   S    
C79   O10   A    
C49   H147  S    
C95   C102  S    
C1    O1    A    
C63   O64   S    
O33   Zn2   S    
C59   C60   S    
C21   C22   S    
C70   H45   S    
C78   O9    A    
C31   H108  S    
C15   O47   S    
C33   H113  S    
C45   C47   S    
C86   O26   A    
C68   C95   T    
C51   C52   S    
C97   O32   A    
C11   H139  S    
O10   Zn5   S    
C42   H133  S    
C143  C154  A    
C119  C148  A    
C56   H6    S    
C47   H144  S    
C44   H137  S    
C96   O33   A    
O2    Zn9   S    
C50   H152  S    
C41   H130  S    
C20   H82   S    
C12   H13   S    
C77   O79   S    
C133  C149  A    
O28   Zn12  S    
C93   C100  S    
C3    C164  A    
C80   O16   A    
C31   O52   S    
C34   H114  S    
C131  C149  A    
C83   C126  S    
C98   O31   A    
C55   H4    S    
O7    Zn8   S    
C8    H1    S    
C62   H20   S    
C43   H136  S    
O20   Zn10  S    
C110  C139  A    
C69   H40   S    
C106  O63   S    
C111  C124  A    
O29   Zn12  S    
C24   C90   T    
C4    C144  A    
C147  O6    A    
C138  C151  A    
C72   H50   S    
C25   O50   S    
C52   H156  S    
C73   H53   S    
C133  C160  A    
C29   H101  S    
O16   Zn1   S    
C118  C129  A    
C48   O58   S    
C27   H96   S    
C38   H123  S    
C85   C123  S    
C64   O65   S    
O37   Zn3   S    
C117  C128  A    
O35   Zn2   S    
C142  C168  A    
O27   Zn12  S    
C17   H75   S    
C30   H105  S    
O1    Zn1   S    
C22   C23   S    
C105  O62   S    
C2    C81   S    
O13   Zn7   S    
C107  C122  A    
C92   O23   A    
C32   H109  S    
C113  O71   S    
C79   C129  S    
C104  O43   A    
C70   H44   S    
C85   O22   A    
C40   H126  S    
C114  O5    A    
C121  C130  A    
C37   H119  S    
O24   Zn9   S    
C103  O56   A    
C15   H57   S    
C47   H142  S    
C65   O66   S    
C59   H12   S    
C38   C39   S    
C135  C151  A    
C27   H98   S    
C18   O48   S    
C139  C165  A    
C15   H68   S    
C76   H64   S    
C48   H146  S    
C98   O29   A    
C99   O35   A    
C9    C10   S    
O22   Zn10  S    
C66   H36   S    
C110  O68   S    
C16   H70   S    
C25   H92   S    
C76   O77   S    
O42   Zn4   S    
C147  O4    A    
C103  O34   A    
C72   H52   S    
C43   H134  S    
C63   H26   S    
C132  C159  A    
C5    C145  A    
O78   Zn7   S    
C73   H55   S    
C120  C129  A    
C5    O59   S    
C99   O30   A    
C30   H104  S    
C39   C40   S    
C137  C163  A    
C80   C128  S    
C25   C26   S    
C115  C128  A    
C71   O72   S    
O8    Zn11  S    
C39   H125  S    
C29   C30   S    
C101  O41   A    
C31   C32   S    
C6    C161  A    
C11   H150  S    
C53   H157  S    
C61   H17   S    
C28   O51   S    
C58   H10   S    
C83   O20   A    
O14   Zn6   S    
C22   H87   S    
C110  C126  A    
C150  C155  A    
C81   O78   A    
C164  O51   S    
C52   C53   S    
C10   H128  S    
C112  O70   S    
C54   C55   S    
C23   H88   S    
C67   H37   S    
O12   Zn5   S    
C159  O46   S    
C84   O19   A    
C140  C153  A    
C134  C161  A    
C57   C94   T    
C24   C103  S    
C78   C130  S    
C74   H58   S    
C18   H77   S    
O36   Zn3   S    
C42   H132  S    
C8    H73   S    
C71   H47   S    
C64   H28   S    
C77   H66   S    
C105  C122  A    
C34   C36   S    
C108  C132  A    
C160  O47   S    
C21   H85   S    
C65   H30   S    
C25   H91   S    
C106  C134  A    
C152  C153  A    
C37   H121  S    
C49   C50   S    
C51   O59   S    
C69   H42   S    
C119  O76   S    
C64   H29   S    
C97   O28   A    
C19   H78   S    
C117  O74   S    
C51   H154  S    
C55   C56   S    
C88   C96   S    
O23   Zn6   S    
C41   C42   S    
C46   C125  S    
C10   H117  S    
C31   H107  S    
C26   H93   S    
C26   C27   S    
C28   H99   S    
O3    Zn10  S    
C28   C29   S    
C51   H153  S    
C4    C159  A    
C18   H76   S    
O34   Zn7   S    
C67   O69   S    
C74   H56   S    
C61   H19   S    
C81   O12   A    
O9    Zn1   S    
C14   H46   S    
C161  O48   S    
C47   H143  S    
C18   C19   S    
C44   H138  S    
C131  C157  A    
C83   O18   A    
C3    O57   S    
C145  C156  A    
C146  C155  A    
C23   H90   S    
C16   C17   S    
C116  C127  A    
C86   C122  S    
C104  O39   A    
C137  C152  A    
C75   O76   S    
C112  C126  A    
C73   O74   S    
C60   H15   S    
C34   H115  S    
C77   H69   S    
C10   H106  S    
C34   O53   S    
C78   O11   A    
O17   Zn7   S    
C62   H21   S    
C84   O21   A    
C21   O49   S    
C141  C167  A    
C85   O25   A    
C8    O44   S    
C163  C166  A    
C54   H160  S    
C7    C160  A    
C40   H129  S    
C58   C59   S    
C92   O67   A    
C43   H135  S    
O15   Zn5   S    
C75   H62   S    
C117  C141  A    
C65   H32   S    
C114  O80   A    
C9    H84   S    
C53   H159  S    
C3    C143  A    
C167  O54   S    
C120  O77   S    
C67   H38   S    
C113  C127  A    
C48   C49   S    
C140  C166  A    
C56   H8    S    
C17   H74   S    
C7    O61   S    
C5    C157  A    
C13   C92   S    
C116  O73   S    
C125  O2    A    
C42   C43   S    
C108  C123  A    
C82   O15   A    
C96   O27   A    
C32   H110  S    
C44   C45   S    
O5    Zn10  S    
C36   C37   S    
C80   O14   A    
C39   H124  S    
C168  O55   S    
C112  C137  A    
C165  O52   S    
C71   H49   S    
C32   C33   S    
C59   H11   S    
C45   H141  S    
C50   H151  S    
C41   H131  S    
C111  C135  A    
C20   H81   S    
C27   H97   S    
C63   H23   S    
C157  O44   S    
C100  O36   A    
C17   H72   S    
C74   O75   S    
C166  O53   S    
C100  O42   A    
C6    O60   S    
O40   Zn4   S    
C4    O58   S    
C148  C156  A    
C45   H140  S    
O39   Zn3   S    
C109  O66   S    
C1    C158  S    
C107  O64   S    
O43   Zn4   S    
C136  O7    A    
C79   O13   A    
C91   C104  S    
O26   Zn11  S    
C19   H79   S    
C109  C138  A    
C1    O45   A    
O11   Zn6   S    
C52   H155  S    
C73   H54   S    
C29   H102  S    
C75   H60   S    
C149  C156  A    
O21   Zn11  S    
C15   C16   S    
C134  C150  A    
C38   H122  S    
C35   C114  S    
C151  C154  A    
O38   Zn3   S    
C94   C101  S    
C8    C9    S    
C106  C123  A    
C63   H25   S    
C57   C136  S    
C2    C88   T    
C76   H65   S    
C58   H9    S    
C54   O60   S    
C142  C153  A    
C70   H43   S    
C37   H120  S    
O56   Zn5   S    
C87   C99   S    
C60   H14   S    
C115  C143  A    
C111  O69   S    
C56   H7    S    
O25   Zn8   S    
C118  C146  A    
C66   O68   S    
C36   H116  S    
C107  C131  A    
C50   H149  S    
C12   H2    S    
C11   O46   S    
C89   C97   S    
C66   H34   S    
C74   H59   S    
C41   O55   S    
O31   Zn2   S    
C102  O40   A    
C14   H35   S    
C76   H63   S    
C70   O71   S    
C48   H145  S    
C49   H148  S    
C82   O17   A    
C12   C14   S    
C165  C168  A    
C108  O65   S    
C135  C162  A    
C121  C145  A    
C69   H41   S    
O41   Zn4   S    
C101  O37   A    
C72   O73   S    
C67   H39   S    
C7    C148  A    
C33   H111  S    
C72   H51   S    
C118  O75   S    
C13   C89   T    
O45   Zn6   S    
C54   H3    S    
C136  O3    A    
C30   H103  S    
O4    Zn11  S    
C21   H83   S    
C11   C12   S    
C109  C124  A    
C26   H94   S    
C84   C124  S    
C28   H100  S    
C87   C158  T    
C144  C155  A    
C69   O70   S    
C14   H24   S    
C46   C93   T    
C53   H158  S    
C9    H95   S    
C61   H18   S    
C38   O54   S    
C90   C98   S    
C61   O62   S    
C162  O49   S    
C58   O61   S    
O18   Zn8   S    
C82   C127  S    
C22   H86   S    
C162  C167  A    
C20   H80   S    
C23   H89   S    
O6    Zn9   S    
O30   Zn12  S    
O19   Zn9   S    
C40   H127  S    
C138  C164  A    
O32   Zn2   S    
C44   O57   S    
C33   H112  S    
C163  O50   S    
C121  O79   S    
C68   C147  S    
C116  C140  A    
C35   C91   T    
