data_mof_unit_7540.cif
_audit_creation_date              2012-12-10T18:02:11-0500
_audit_creation_method            fapswitch 2.2
_symmetry_space_group_name_H-M    P1
_symmetry_Int_Tables_number       1
_space_group_crystal_system       triclinic
_cell_length_a                    10.825751
_cell_length_b                    9.499009
_cell_length_c                    23.632524
_cell_angle_alpha                 90.067666
_cell_angle_beta                  90.33666
_cell_angle_gamma                 90.054108
_cell_volume                      2430.18000939

loop_
_atom_site_label
_atom_site_type_symbol
_atom_type_description
_atom_site_fract_x
_atom_site_fract_y
_atom_site_fract_z
_atom_type_partial_charge
C1    C     C_R   0.262009 0.499961 0.499871 0.804674
C2    C     C_R   0.737988 0.500036 0.499945 0.789002
C3    C     C_R   0.574485 0.395229 0.238828 -0.008506
C4    C     C_R   0.461770 0.375262 0.763220 -0.013320
C5    C     C_R   0.576361 0.397336 0.298947 -0.118965
C6    C     C_R   0.458106 0.375926 0.703082 -0.124255
C7    C     C_R   0.504281 0.498712 0.328457 -0.202004
C8    C     C_R   0.495684 0.498944 0.672665 -0.215869
C9    C     C_R   0.431429 0.595436 0.297668 0.246888
C10   C     C_R   0.533931 0.619345 0.703827 0.255735
C11   C     C_R   0.432000 0.593384 0.238955 -0.075720
C12   C     C_R   0.531809 0.618210 0.762529 -0.084600
C13   C     C_R   0.501853 0.494802 0.209325 0.189627
C14   C     C_R   0.497159 0.498545 0.792412 0.188158
C15   C     C_R   0.063747 0.372010 0.499634 -0.165453
C16   C     C_R   0.936242 0.627977 0.499712 -0.151960
C17   C     C_R   0.936004 0.372053 0.499657 -0.165172
C18   C     C_R   0.063983 0.627934 0.499637 -0.142843
C19   C     C_R   0.871788 0.500040 0.499771 -0.023705
C20   C     C_R   0.128202 0.499950 0.499695 -0.019948
C21   C     C_R   0.410705 0.074312 0.471515 0.000771
C22   C     C_R   0.589874 0.925791 0.528067 0.042494
C23   C     C_R   0.589421 0.074670 0.528398 0.019741
C24   C     C_R   0.410405 0.925419 0.471733 0.020414
C25   C     C_R   0.500835 0.499829 0.390989 0.828518
C26   C     C_R   0.498811 0.499941 0.609410 0.821772
C27   C     C_R   0.604630 0.522678 0.881859 0.556041
C28   C     C_R   0.393498 0.472252 0.119902 0.559994
C29   C     C_R   0.385392 0.495121 0.881195 0.525988
C30   C     C_R   0.606673 0.535676 0.120427 0.518133
C31   C     C_R   0.381801 0.495669 0.941170 -0.096487
C32   C     C_R   0.611572 0.528498 0.060657 -0.101526
C33   C     C_R   0.495574 0.510198 0.970967 -0.005529
C34   C     C_R   0.498928 0.506677 0.030802 -0.001707
C35   C     C_R   0.606542 0.527764 0.941026 -0.053788
C36   C     C_R   0.389310 0.480876 0.060782 -0.053414
C37   C     C_R   0.270860 0.477274 0.972593 -0.039763
C38   C     C_R   0.722890 0.545347 0.029608 -0.037225
C39   C     C_R   0.277309 0.465515 0.031558 -0.108208
C40   C     C_R   0.718164 0.545899 0.970426 -0.107601
Cu1   Cu    Cu3+1 0.500000 0.640660 0.500000 1.010012
Cu2   Cu    Cu3+1 0.500000 0.359340 0.500000 0.965658
H1    H     H_    0.192639 0.449694 0.055025 0.223951
H2    H     H_    0.803625 0.556555 0.947108 0.224631
H3    H     H_    0.376557 0.668947 0.215765 0.188926
H4    H     H_    0.559152 0.711815 0.785691 0.190700
H5    H     H_    0.111735 0.271985 0.499612 0.151579
H6    H     H_    0.888257 0.728004 0.499762 0.153295
H7    H     H_    0.887831 0.272040 0.499642 0.152947
H8    H     H_    0.112153 0.727950 0.499598 0.154568
H9    H     H_    0.339378 0.130296 0.448567 0.137638
H10   H     H_    0.662203 0.869917 0.550329 0.151492
H11   H     H_    0.660793 0.130923 0.551324 0.136328
H12   H     H_    0.338449 0.869276 0.449234 0.160824
N1    N     N_R   0.495652 0.505184 0.853325 -0.460460
N2    N     N_R   0.500926 0.499743 0.148427 -0.461346
N3    N     N_R   0.500000 0.852070 0.500000 -0.171198
N4    N     N_R   0.500000 0.147930 0.500000 -0.176423
O1    O     O_R   0.319640 0.618740 0.500000 -0.584841
O2    O     O_R   0.680360 0.381260 0.500000 -0.600544
O3    O     O_R   0.680360 0.618740 0.500000 -0.590314
O4    O     O_R   0.319640 0.381260 0.500000 -0.601267
O5    O     O_R   0.499960 0.618810 0.417880 -0.532331
O6    O     O_R   0.500040 0.381190 0.582120 -0.596108
O7    O     O_R   0.500040 0.618810 0.582120 -0.526215
O8    O     O_R   0.499960 0.381190 0.417880 -0.588008
O9    O     O_2   0.711348 0.533114 0.852865 -0.512385
O10   O     O_2   0.290761 0.437405 0.148831 -0.507512
O11   O     O_2   0.280855 0.481773 0.850450 -0.537407
O12   O     O_2   0.704718 0.581537 0.150677 -0.523670
C41   C     C_2   0.145684 0.473998 0.946650 0.516223
H13   H     H_    0.121258 0.545275 0.912631 0.134409
O13   O     O_2   0.066680 0.393919 0.964496 -0.520893
C42   C     C_2   0.847113 0.550436 0.056550 0.509756
H14   H     H_    0.866836 0.490271 0.094472 0.130525
O14   O     O_2   0.930260 0.619602 0.035611 -0.525845
C43   C     C_2   0.648119 0.292510 0.205493 0.516461
H15   H     H_    0.612285 0.252912 0.165539 0.048412
O15   O     O_2   0.751512 0.256897 0.220551 -0.478415
C44   C     C_2   0.428790 0.248445 0.797017 0.533153
H16   H     H_    0.475064 0.229038 0.837120 0.051941
O16   O     O_2   0.346206 0.168717 0.782177 -0.485219
C45   C     C_2   0.652762 0.294918 0.331325 0.529500
H17   H     H_    0.707337 0.330377 0.367304 0.045894
O17   O     O_2   0.650958 0.169640 0.319720 -0.487931
C46   C     C_2   0.414492 0.248671 0.672367 0.537742
H18   H     H_    0.340650 0.257302 0.641297 0.058406
O18   O     O_2   0.463612 0.134626 0.680181 -0.477607
Br1   Br    Br    0.320931 0.727216 0.332737 -0.478766
Br2   Br    Br    0.597730 0.789693 0.671111 -0.440653

loop_
_geom_bond_atom_site_label_1
_geom_bond_atom_site_label_2
_ccdc_geom_bond_type
C23   N4    A    
C30   C32   A    
C8    C26   S    
Cu1   Cu2   S    
C15   H5    S    
C1    O4    A    
C16   H6    S    
C22   N3    A    
C28   N2    A    
C43   H15   S    
C42   O14   D    
C6    C8    A    
C22   H10   S    
C28   O10   S    
C4    C44   S    
C1    O1    A    
C5    C45   S    
C27   N1    A    
C24   H12   S    
C15   C17   A    
C25   O5    A    
C26   O6    A    
C33   C35   A    
C17   H7    S    
C24   N3    A    
C31   C33   A    
C32   C38   A    
Cu2   O4    S    
C18   C20   A    
C3    C13   A    
C2    O3    A    
C13   N2    S    
C14   N1    S    
Cu2   N4    S    
C2    O2    A    
C30   O12   S    
C23   H11   S    
C29   O11   S    
C43   O15   D    
C15   C20   A    
C42   H14   S    
C46   O18   D    
Cu1   O1    S    
C44   O16   D    
C9    Br1   S    
C5    C7    A    
C46   H18   S    
Cu1   O7    S    
C29   N1    A    
C27   C35   A    
C30   N2    A    
Cu1   O3    S    
C31   C37   A    
C12   H4    S    
C32   C34   A    
C45   H17   S    
C29   C31   A    
C33   C34   A    
C9    C11   A    
C10   Br2   S    
C10   C12   A    
C8    C10   A    
C45   O17   D    
C12   C14   A    
C37   C41   S    
C11   H3    S    
C4    C6    A    
Cu1   O5    S    
Cu2   O2    S    
C3    C43   S    
Cu2   O6    S    
C21   H9    S    
C18   H8    S    
C41   O13   D    
C38   C42   S    
C7    C9    A    
C1    C20   S    
C2    C19   S    
C26   O7    A    
C36   C39   A    
C25   O8    A    
C44   H16   S    
C3    C5    A    
C7    C25   S    
C39   H1    S    
C6    C46   S    
C35   C40   A    
Cu1   N3    S    
C21   N4    A    
C37   C39   A    
C38   C40   A    
C11   C13   A    
C16   C19   A    
C17   C19   A    
C34   C36   A    
C4    C14   A    
C27   O9    S    
C40   H2    S    
C41   H13   S    
C28   C36   A    
C16   C18   A    
C21   C24   A    
Cu2   O8    S    
C22   C23   A    
