data_mof_unit_41527.cif
_audit_creation_date              2013-03-05T15:52:19-0500
_audit_creation_method            fapswitch 2.2
_symmetry_space_group_name_H-M    P1
_symmetry_Int_Tables_number       1
_space_group_crystal_system       triclinic
_cell_length_a                    10.65258
_cell_length_b                    10.717425
_cell_length_c                    16.96069
_cell_angle_alpha                 80.562416
_cell_angle_beta                  99.001483
_cell_angle_gamma                 118.74793
_cell_volume                      1667.97000744

loop_
_atom_site_label
_atom_site_type_symbol
_atom_site_description
_atom_site_fract_x
_atom_site_fract_y
_atom_site_fract_z
_atom_type_partial_charge
O1    O     O_R   0.754020 0.497590 0.609930 -0.508951
O2    O     O_R   0.481420 0.271390 0.600630 -0.482058
C1    C     C_R   0.384781 0.285669 0.631738 0.532743
O3    O     O_R   0.263810 0.254550 0.589590 -0.504403
O4    O     O_R   0.300820 0.531200 0.560890 -0.511398
C2    C     C_R   0.413713 0.619832 0.601706 0.543093
O5    O     O_R   0.491480 0.744020 0.564270 -0.499585
O6    O     O_R   0.726290 0.693800 0.583010 -0.510911
C3    C     C_R   0.777330 0.619157 0.626667 0.541848
O7    O     O_R   0.747830 0.500190 0.434090 -0.515860
O8    O     O_R   0.475680 0.273800 0.437630 -0.514618
C4    C     C_R   0.351232 0.224723 0.400633 0.541860
O9    O     O_R   0.257620 0.257160 0.413750 -0.464137
O10   O     O_R   0.295080 0.533620 0.397890 -0.447008
C5    C     C_R   0.362581 0.657281 0.361849 0.555655
O11   O     O_R   0.485280 0.746620 0.388440 -0.526433
O12   O     O_R   0.720550 0.696220 0.420010 -0.502551
C6    C     C_R   0.699096 0.582088 0.389990 0.569184
Cr1   Cr    Cr6+3 0.608440 0.389080 0.519680 1.020936
Cr2   Cr    Cr6+3 0.288640 0.400090 0.490760 1.073702
Cr3   Cr    Cr6+3 0.602940 0.710800 0.489510 1.024854
O13   O     O_3   0.500010 0.499990 0.499980 -0.325558
C7    C     C_R   0.354262 0.651158 0.837827 0.015287
C8    C     C_R   0.249617 0.537940 0.795887 0.012949
C9    C     C_R   0.272167 0.520634 0.721275 0.008443
C10   C     C_R   0.515080 0.710539 0.734819 -0.157254
C11   C     C_R   0.492998 0.726965 0.810800 -0.144498
C12   C     C_3   0.094198 0.494515 0.771891 -0.249543
C13   C     C_3   0.118784 0.474846 0.690072 -0.244398
C14   C     C_R   0.399284 0.617029 0.686092 -0.000315
H1    H     H_    0.618641 0.779536 0.711712 0.142815
H2    H     H_    0.580035 0.809998 0.843865 0.145078
H3    H     H_    0.067718 0.583415 0.770146 0.157524
H4    H     H_    0.022535 0.392470 0.805678 0.150764
H5    H     H_    0.061880 0.361319 0.676827 0.155214
H6    H     H_    0.105681 0.551956 0.641301 0.163232
C15   C     C_1   0.822978 0.656811 0.705938 -0.056161
C16   C     C_1   0.850251 0.684610 0.773827 -0.053290
C17   C     C_1   0.365461 0.236170 0.714418 -0.037808
C18   C     C_1   0.334699 0.188955 0.781899 -0.034471
C19   C     C_1   0.318898 0.683431 0.280512 -0.010220
C20   C     C_1   0.296901 0.706604 0.209839 -0.026350
C21   C     C_R   0.789793 0.644794 0.147848 0.011607
C22   C     C_R   0.763397 0.516050 0.195344 0.002781
C23   C     C_R   0.726039 0.492918 0.272243 -0.002117
C24   C     C_R   0.695394 0.704160 0.249650 -0.157260
C25   C     C_R   0.741580 0.732693 0.172123 -0.151296
C26   C     C_3   0.858811 0.447064 0.219129 -0.201052
C27   C     C_3   0.819921 0.424434 0.303753 -0.208624
C28   C     C_R   0.706803 0.593928 0.303645 0.002195
H7    H     H_    0.664849 0.775947 0.269477 0.147135
H8    H     H_    0.750747 0.828354 0.134772 0.133790
H9    H     H_    0.974054 0.523809 0.213022 0.186710
H10   H     H_    0.817447 0.345670 0.191486 0.167500
H11   H     H_    0.758699 0.310085 0.325892 0.174049
H12   H     H_    0.913332 0.489248 0.344953 0.176625
C29   C     C_R   0.324610 0.167075 0.159682 0.008573
C30   C     C_R   0.227014 0.195851 0.189039 0.001547
C31   C     C_R   0.231738 0.199408 0.269069 0.087182
C32   C     C_R   0.441043 0.163702 0.294346 -0.164142
C33   C     C_R   0.437794 0.159338 0.212245 -0.158736
C34   C     C_3   0.064571 0.125801 0.180517 -0.226328
C35   C     C_3   0.072585 0.131833 0.270253 0.177052
C36   C     C_R   0.333280 0.178542 0.323306 -0.019106
H13   H     H_    0.524821 0.152940 0.335114 0.143005
H14   H     H_    0.516187 0.138406 0.191297 0.143464
H15   H     H_    0.013439 0.014937 0.163265 0.130404
H16   H     H_    0.023589 0.195847 0.142606 0.158300
O14   O     O_R   0.163320 0.092900 0.874450 -0.503647
O15   O     O_R   0.934650 0.822080 0.882840 -0.492072
C37   C     C_R   0.891004 0.701703 0.856091 0.550832
O16   O     O_R   0.915520 0.604140 0.893670 -0.515816
O17   O     O_R   0.191760 0.638110 0.923230 -0.495944
C38   C     C_R   0.316562 0.705966 0.898700 0.556885
O18   O     O_R   0.406180 0.826930 0.920660 -0.514642
O19   O     O_R   0.358620 0.062870 0.901950 -0.491150
C39   C     C_R   0.287188 0.119448 0.858683 0.555951
O20   O     O_R   0.163910 0.085460 0.050210 -0.522196
O21   O     O_R   0.935200 0.815170 0.045770 -0.511111
C40   C     C_R   0.881501 0.688207 0.082262 0.527227
O22   O     O_R   0.916120 0.596690 0.069430 -0.526318
O23   O     O_R   0.192310 0.631200 0.086170 -0.476963
C41   C     C_R   0.284349 0.738309 0.125605 0.559628
O24   O     O_R   0.406770 0.819480 0.096420 -0.514489
O25   O     O_R   0.359170 0.055960 0.064880 -0.524479
C42   C     C_R   0.285835 0.108611 0.084396 0.543698
Cr4   Cr    Cr6+3 0.052530 0.947560 0.964210 1.009595
Cr5   Cr    Cr6+3 0.059970 0.626800 0.992920 1.024375
Cr6   Cr    Cr6+3 0.373320 0.938440 0.995370 1.015541
O26   O     O_3   0.161940 0.837600 0.984160 -0.270857
N1    N     N_R   0.027328 0.231877 0.289511 0.098394
O27   O     O_R   0.091779 0.365725 0.261073 -0.376758
O28   O     O_R   0.933103 0.191914 0.341070 -0.378985
C43   C     C_3   0.007545 0.985119 0.320156 -0.344753
H17   H     H_    0.046332 0.996521 0.384511 0.169093
H18   H     H_    0.889482 0.939955 0.315005 0.165345
H19   H     H_    0.036347 0.909658 0.299497 0.092954

loop_
_geom_bond_atom_site_label_1
_geom_bond_atom_site_label_2
_geom_bond_distance
_ccdc_geom_bond_type
O20   Cr4   2.048964 S    
C30   C34   1.512158 S    
O11   Cr3   2.057081 S    
C19   C20   1.193254 T    
O14   C39   1.271974 A    
O21   Cr4   1.918443 S    
O4    Cr2   1.931467 S    
O25   C42   1.266676 A    
C26   H10   1.112069 S    
C13   H6    1.112357 S    
O8    Cr1   1.931427 S    
C31   C36   1.385681 A    
C15   C16   1.193134 T    
C34   H15   1.111614 S    
C12   C13   1.517082 S    
O4    C2    1.297725 A    
C4    C36   1.430020 S    
C5    O11   1.257745 A    
C29   C42   1.429009 S    
O17   C38   1.270157 A    
C24   C25   1.410816 A    
C33   H14   1.083108 S    
O6    C3    1.257778 A    
C7    C8    1.398137 A    
O15   C37   1.278824 A    
C7    C11   1.410402 A    
O14   Cr4   2.037912 S    
O19   Cr6   1.934878 S    
O20   C42   1.259449 A    
O2    Cr1   1.917959 S    
C1    C17   1.425324 S    
C10   H1    1.083042 S    
Cr3   O13   1.970990 S    
O15   Cr4   1.931841 S    
O16   Cr5   2.055356 S    
O6    Cr3   1.938582 S    
C9    C13   1.494624 S    
C26   H9    1.111261 S    
O1    Cr1   2.051012 S    
C38   O18   1.259917 A    
O10   Cr2   1.932338 S    
Cr1   O13   1.982024 S    
O1    C3    1.275843 A    
C8    C9    1.381469 A    
C5    C19   1.412785 S    
N1    O27   1.300449 A    
O25   Cr6   1.929812 S    
C43   H19   1.111869 S    
C30   C31   1.356536 A    
C27   H11   1.106860 S    
C24   H7    1.082021 S    
O12   Cr3   1.922078 S    
C32   C33   1.395400 A    
C21   C22   1.401790 A    
O17   Cr5   1.921281 S    
C34   C35   1.521244 S    
N1    O28   1.301520 A    
C41   O24   1.293058 A    
C35   C43   1.538812 S    
C23   C27   1.494890 S    
O7    Cr1   2.033944 S    
C3    C15   1.411232 S    
O12   C6    1.306383 A    
C10   C11   1.398625 A    
O19   C39   1.268222 A    
C43   H18   1.103441 S    
C25   H8    1.082608 S    
C26   C27   1.505236 S    
C2    C14   1.457157 S    
Cr2   O13   1.966325 S    
C32   H13   1.080566 S    
C10   C14   1.404437 A    
O24   Cr6   2.054053 S    
C7    C38   1.458710 S    
C1    O3    1.288174 A    
C17   C18   1.200547 T    
C22   C23   1.372005 A    
C6    C28   1.460881 S    
C9    C14   1.400733 A    
C13   H5    1.111700 S    
C16   C37   1.409441 S    
O9    Cr2   2.048396 S    
C11   H2    1.083222 S    
C18   C39   1.425667 S    
C20   C41   1.413906 S    
C8    C12   1.494455 S    
Cr5   O26   1.971280 S    
C40   O22   1.260338 A    
C12   H3    1.111257 S    
O8    C4    1.266910 A    
C29   C33   1.411015 A    
C2    O5    1.299138 A    
C27   H12   1.112513 S    
C24   C28   1.413376 A    
C31   C35   1.491333 S    
C34   H16   1.112069 S    
C32   C36   1.400725 A    
O2    C1    1.307505 A    
C21   C40   1.463332 S    
C37   O16   1.248918 A    
O5    Cr3   2.042080 S    
C29   C30   1.394508 A    
C23   C28   1.390767 A    
O7    C6    1.304177 A    
O23   Cr5   1.937492 S    
C43   H17   1.109545 S    
O22   Cr5   2.036045 S    
O18   Cr6   2.047986 S    
C12   H4    1.111535 S    
O21   C40   1.283629 A    
O3    Cr2   2.048693 S    
C4    O9    1.262155 A    
O23   C41   1.300136 A    
Cr4   O26   1.982109 S    
C35   N1    1.466324 S    
O10   C5    1.265847 A    
Cr6   O26   1.966480 S    
C21   C25   1.406964 A    
C22   C26   1.496394 S    
