data_mof_unit_57590.cif
_audit_creation_date              2012-12-11T15:48:39-0500
_audit_creation_method            fapswitch 2.2
_symmetry_space_group_name_H-M    P1
_symmetry_Int_Tables_number       1
_space_group_crystal_system       triclinic
_cell_length_a                    10.923009
_cell_length_b                    10.965528
_cell_length_c                    18.790597
_cell_angle_alpha                 90.730199
_cell_angle_beta                  90.250773
_cell_angle_gamma                 60.366156
_cell_volume                      1956.12816357

loop_
_atom_site_label
_atom_site_type_symbol
_atom_type_description
_atom_site_fract_x
_atom_site_fract_y
_atom_site_fract_z
_atom_type_partial_charge
C1    C     C_R   0.240067 0.645473 0.610515 0.542797
C2    C     C_3   0.667317 0.553203 0.799596 -0.253204
C3    C     C_3   0.698481 0.673700 0.812231 0.051089
C4    C     C_3   0.669907 0.648236 0.676180 0.057826
C5    C     C_3   0.817255 0.629167 0.690623 -0.247188
C6    C     C_3   0.651177 0.537859 0.719336 -0.213625
C7    C     C_R   0.682953 0.151559 0.822255 0.016754
C8    C     C_R   0.780518 0.173373 0.784865 -0.007418
C9    C     C_R   0.774478 0.182672 0.710746 0.009648
C10   C     C_R   0.578396 0.140820 0.709528 -0.182038
C11   C     C_R   0.575112 0.146897 0.782729 -0.172043
C12   C     C_R   0.654006 0.622506 0.600771 0.537779
C13   C     C_3   0.936441 0.091124 0.785791 -0.272635
C14   C     C_3   0.931284 0.099168 0.705240 -0.276518
C15   C     C_R   0.674706 0.163920 0.671983 0.015170
C16   C     C_R   0.182075 0.666616 0.835331 0.013451
C17   C     C_R   0.154819 0.575797 0.794038 0.019033
C18   C     C_R   0.163284 0.573774 0.720225 -0.004623
C19   C     C_R   0.216973 0.761517 0.726550 -0.172652
C20   C     C_R   0.216185 0.758075 0.800457 -0.179455
C21   C     C_3   0.228679 0.419737 0.797012 -0.283604
C22   C     C_3   0.235541 0.418051 0.716516 -0.270229
C23   C     C_R   0.630360 0.225582 0.601825 0.549620
C24   C     C_R   0.196397 0.665126 0.685081 0.011308
C25   C     C_R   0.673969 0.681406 0.173957 0.013795
C26   C     C_R   0.793700 0.615745 0.217101 0.037532
C27   C     C_R   0.786437 0.613919 0.289723 0.002167
C28   C     C_R   0.533510 0.753524 0.281773 -0.153047
C29   C     C_R   0.542819 0.759556 0.207416 -0.178452
C30   C     C_3   0.919511 0.472344 0.213345 -0.249103
C31   C     C_3   0.917635 0.474007 0.294039 -0.265920
C32   C     C_R   0.655850 0.670530 0.322876 0.008741
C33   C     C_R   0.629205 0.196208 0.167399 0.015025
C34   C     C_R   0.221556 0.648426 0.401768 0.543297
C35   C     C_R   0.513357 0.208413 0.204933 0.013202
C36   C     C_R   0.496440 0.243309 0.275931 -0.002328
C37   C     C_R   0.691183 0.286733 0.271388 -0.151408
C38   C     C_R   0.711109 0.247953 0.199143 -0.169212
C39   C     C_3   0.465681 0.103128 0.214427 -0.253687
C40   C     C_3   0.447738 0.141181 0.292696 -0.249440
C41   C     C_R   0.591050 0.272499 0.311752 0.014531
C42   C     C_R   0.141747 0.683656 0.184203 0.020476
C43   C     C_R   0.117564 0.799265 0.226590 0.016539
C44   C     C_R   0.133152 0.788984 0.298260 0.028913
C45   C     C_R   0.641987 0.623948 0.392782 0.537292
C46   C     C_R   0.205797 0.543017 0.288884 -0.166184
C47   C     C_R   0.195724 0.552210 0.215002 -0.170170
C48   C     C_3   0.991514 0.943347 0.231743 -0.244199
C49   C     C_3   0.010920 0.932018 0.311900 -0.066914
C50   C     C_R   0.168286 0.663770 0.331080 -0.006734
C51   C     C_R   0.702235 0.099797 0.895242 0.541779
C52   C     C_R   0.723032 0.687801 0.888319 0.542967
C53   C     C_R   0.119454 0.705356 0.906127 0.537633
C54   C     C_R   0.672572 0.111561 0.102679 0.539644
C55   C     C_R   0.697722 0.691475 0.098667 0.543725
C56   C     C_R   0.578959 0.295423 0.388420 0.565929
C57   C     C_R   0.092112 0.711330 0.112642 0.547357
C58   C     C_3   0.573720 0.810887 0.782352 -0.232734
C59   C     C_3   0.558589 0.796976 0.701825 -0.240006
C60   C     C_3   0.834115 0.642921 0.770849 -0.217132
Cr1   Cr    Cr6+3 0.392960 0.397920 0.502240 1.001679
Cr2   Cr    Cr6+3 0.398340 0.708480 0.501250 1.029208
Cr3   Cr    Cr6+3 0.708670 0.393570 0.496460 1.029765
Cr4   Cr    Cr6+3 0.937650 0.938540 0.007610 1.006457
Cr5   Cr    Cr6+3 0.625330 0.937370 0.994520 1.003378
Cr6   Cr    Cr6+3 0.937940 0.625230 0.001190 1.006229
H1    H     H_    0.593940 0.898816 0.792297 0.145539
H2    H     H_    0.733070 0.431520 0.702313 0.148230
H3    H     H_    0.923796 0.542788 0.789490 0.143197
H4    H     H_    0.900950 0.524205 0.671694 0.133581
H5    H     H_    0.496786 0.129347 0.682467 0.130059
H6    H     H_    0.492363 0.135431 0.807752 0.137653
H7    H     H_    0.973264 0.984421 0.806207 0.174374
H8    H     H_    0.983968 0.150056 0.811114 0.127966
H9    H     H_    0.976854 0.162193 0.683855 0.134978
H10   H     H_    0.967674 0.996215 0.678125 0.150499
H11   H     H_    0.238708 0.837429 0.702143 0.133920
H12   H     H_    0.473739 0.835728 0.809754 0.116502
H13   H     H_    0.232300 0.834380 0.830085 0.129758
H14   H     H_    0.160583 0.379559 0.817992 0.131721
H15   H     H_    0.332502 0.377491 0.823542 0.143263
H16   H     H_    0.343478 0.374271 0.695336 0.179119
H17   H     H_    0.169772 0.378959 0.690509 0.124780
H18   H     H_    0.429830 0.803924 0.305903 0.186721
H19   H     H_    0.448365 0.820428 0.176412 0.139629
H20   H     H_    0.011814 0.471735 0.189698 0.157199
H21   H     H_    0.894587 0.393979 0.189623 0.133153
H22   H     H_    0.905597 0.388514 0.316942 0.168946
H23   H     H_    0.450742 0.817082 0.690433 0.135927
H24   H     H_    0.004983 0.483486 0.318345 0.140353
H25   H     H_    0.760483 0.316538 0.296897 0.146313
H26   H     H_    0.797880 0.245556 0.170447 0.118819
H27   H     H_    0.551911 0.994780 0.203599 0.161197
H28   H     H_    0.364609 0.133527 0.186747 0.148931
H29   H     H_    0.336059 0.193267 0.310390 0.161298
H30   H     H_    0.522913 0.053755 0.326846 0.163321
H31   H     H_    0.243325 0.442112 0.313122 0.141152
H32   H     H_    0.223396 0.459554 0.182817 0.122685
H33   H     H_    0.893440 0.944761 0.214304 0.130397
H34   H     H_    0.572708 0.877219 0.673099 0.115101
H35   H     H_    0.011167 0.023349 0.206624 0.163798
H36   H     H_    0.923185 0.929978 0.340751 0.115460
H37   H     H_    0.859287 0.728388 0.781071 0.126722
H38   H     H_    0.831025 0.709574 0.661702 0.117692
H39   H     H_    0.754455 0.453328 0.820691 0.131026
H40   H     H_    0.568854 0.575293 0.827752 0.119311
H41   H     H_    0.546385 0.547618 0.708418 0.126880
O1    O     O_R   0.507380 0.255700 0.581440 -0.533219
O2    O     O_R   0.524480 0.695810 0.424040 -0.504279
O3    O     O_R   0.736390 0.504290 0.414790 -0.533264
O4    O     O_R   0.691300 0.277290 0.422170 -0.460704
O5    O     O_3   0.499990 0.499990 0.499980 -0.279320
O6    O     O_R   0.089400 0.825690 0.930570 -0.530928
O7    O     O_R   0.818460 0.054440 0.929850 -0.500098
O8    O     O_R   0.606060 0.077150 0.915510 -0.536369
O9    O     O_R   0.646550 0.806680 0.917570 -0.510815
O10   O     O_R   0.837170 0.593410 0.915250 -0.527082
O11   O     O_R   0.065200 0.635530 0.931570 -0.499727
O12   O     O_R   0.280320 0.527350 0.578930 -0.504494
O13   O     O_R   0.068260 0.828890 0.091840 -0.520212
O14   O     O_R   0.798870 0.057410 0.079340 -0.511485
O15   O     O_R   0.584930 0.080350 0.076780 -0.518606
O16   O     O_R   0.626960 0.809650 0.067060 -0.505188
O17   O     O_R   0.816040 0.596610 0.076510 -0.519581
O18   O     O_R   0.045610 0.638500 0.081060 -0.510644
O19   O     O_3   0.833640 0.833710 0.001100 -0.249183
O20   O     O_R   0.260510 0.739590 0.584590 -0.525266
O21   O     O_R   0.532300 0.695080 0.573820 -0.508957
O22   O     O_R   0.744840 0.503500 0.576370 -0.529386
O23   O     O_R   0.699120 0.276560 0.571960 -0.487016
O24   O     O_R   0.498940 0.256500 0.419860 -0.522493
O25   O     O_R   0.272500 0.528080 0.429150 -0.528855
O26   O     O_R   0.252060 0.740380 0.423010 -0.489324
C61   C     C_2   0.055005 0.030974 0.344335 0.582424
O27   O     O_2   0.147208 0.046923 0.316539 -0.561357
O28   O     O_R   0.990610 0.103243 0.407193 -0.674016
H42   H     H_    0.027771 0.167037 0.424010 0.322440

loop_
_geom_bond_atom_site_label_1
_geom_bond_atom_site_label_2
_ccdc_geom_bond_type
C44   C49   S    
C49   C61   S    
C8    C13   S    
Cr1   O12   S    
C32   C45   S    
C19   C20   A    
C9    C14   S    
C7    C8    A    
C41   C56   S    
C7    C11   A    
C26   C27   A    
C5    H4    S    
C47   H32   S    
C18   C24   A    
C22   H16   S    
Cr2   O26   S    
C28   C29   A    
C10   C15   A    
C57   O18   A    
C30   C31   S    
C45   O2    A    
C28   H18   S    
C48   H35   S    
Cr4   O14   S    
C38   H26   S    
C4    C59   S    
C59   H23   S    
Cr3   O23   S    
Cr3   O5    S    
C19   H11   S    
Cr1   O1    S    
C16   C53   S    
C39   H27   S    
Cr1   O25   S    
C55   O17   A    
C35   C36   A    
C8    C9    A    
Cr6   O10   S    
C6    H41   S    
C31   H22   S    
C30   H20   S    
C60   H37   S    
C43   C48   S    
C56   O4    A    
C29   H19   S    
C20   H13   S    
C3    C60   S    
C15   C23   S    
C54   O15   A    
C5    H38   S    
C34   O25   A    
C21   C22   S    
C37   C41   A    
C59   H34   S    
Cr5   O8    S    
C36   C41   A    
C2    C6    S    
C40   H30   S    
C42   C57   S    
C53   O6    A    
C52   O9    A    
C25   C29   A    
C55   O16   A    
C34   C50   S    
C51   O7    A    
Cr4   O7    S    
C12   O22   A    
C37   H25   S    
C27   C31   S    
C1    O20   A    
C28   C32   A    
C4    C6    S    
C49   H36   S    
C58   H12   S    
C11   H6    S    
C16   C17   A    
C61   O28   S    
C34   O26   A    
C25   C26   A    
C2    H40   S    
C51   O8    A    
Cr6   O19   S    
C23   O23   A    
C14   H10   S    
C35   C39   S    
C43   C44   A    
C39   H28   S    
C1    O12   A    
C37   C38   A    
C36   C40   S    
C16   C20   A    
C31   H24   S    
C45   O3    A    
C17   C18   A    
Cr5   O15   S    
C57   O13   A    
C53   O11   A    
C48   C49   S    
C46   H31   S    
C13   H7    S    
C26   C30   S    
Cr4   O19   S    
Cr5   O9    S    
Cr6   O17   S    
C4    C12   S    
C42   C43   A    
C40   H29   S    
C39   C40   S    
C44   C50   A    
C33   C54   S    
C48   H33   S    
C46   C47   A    
Cr4   O6    S    
C5    C60   S    
C27   C32   A    
C18   C22   S    
Cr5   O16   S    
C54   O14   A    
C25   C55   S    
C21   H15   S    
O28   H42   S    
C3    C52   S    
C61   O27   D    
C12   O21   A    
C14   H9    S    
C46   C50   A    
C2    H39   S    
C33   C38   A    
Cr4   O13   S    
Cr6   O18   S    
Cr5   O19   S    
Cr3   O3    S    
C19   C24   A    
C58   C59   S    
C7    C51   S    
C22   H17   S    
Cr2   O21   S    
Cr2   O20   S    
Cr2   O2    S    
C60   H3    S    
C23   O1    A    
C21   H14   S    
C6    H2    S    
C33   C35   A    
C2    C3    S    
C42   C47   A    
Cr3   O22   S    
Cr3   O4    S    
C17   C21   S    
C56   O24   A    
C10   C11   A    
Cr1   O24   S    
C10   H5    S    
C3    C58   S    
C58   H1    S    
C4    C5    S    
Cr2   O5    S    
C13   H8    S    
C1    C24   S    
Cr6   O11   S    
C52   O10   A    
C30   H21   S    
C13   C14   S    
Cr1   O5    S    
C9    C15   A    
