data_mof_unit_31328.cif
_audit_creation_date              2012-12-11T15:16:47-0500
_audit_creation_method            fapswitch 2.2
_symmetry_space_group_name_H-M    P1
_symmetry_Int_Tables_number       1
_space_group_crystal_system       triclinic
_cell_length_a                    25.183157
_cell_length_b                    7.229871
_cell_length_c                    21.941066
_cell_angle_alpha                 90.00217
_cell_angle_beta                  110.105358
_cell_angle_gamma                 90.001067
_cell_volume                      3751.39471879

loop_
_atom_site_label
_atom_site_type_symbol
_atom_type_description
_atom_site_fract_x
_atom_site_fract_y
_atom_site_fract_z
_atom_type_partial_charge
O1    O     O_R   0.554350 0.505270 0.581390 -0.529871
O2    O     O_R   0.445650 0.005270 0.418610 -0.529841
O3    O     O_R   0.553380 0.177580 0.454800 -0.540092
O4    O     O_R   0.446620 0.677580 0.545200 -0.540105
C1    C     C_R   0.565218 0.344498 0.437622 0.779408
C2    C     C_R   0.434780 0.844499 0.562376 0.779373
O5    O     O_R   0.560970 0.175640 0.583140 -0.538548
O6    O     O_R   0.439030 0.675640 0.416860 -0.538560
O7    O     O_R   0.453290 0.004120 0.547860 -0.535778
O8    O     O_R   0.546710 0.504120 0.452140 -0.535786
C3    C     C_R   0.576278 0.344084 0.607346 0.857161
C4    C     C_R   0.423721 0.844074 0.392654 0.857130
O9    O     O_3   0.464660 0.338800 0.488280 -0.384599
O10   O     O_3   0.535340 0.838800 0.511720 -0.384610
V1    V     V_3+5 0.506560 0.064420 0.502170 1.500253
V2    V     V_3+5 0.493440 0.564420 0.497830 1.500233
C5    C     C_R   0.146072 0.968442 0.289290 -0.230952
C6    C     C_R   0.853944 0.468089 0.710705 -0.230945
C7    C     C_R   0.119870 0.941594 0.172731 -0.075134
C8    C     C_R   0.880133 0.441546 0.827270 -0.075127
C9    C     C_R   0.395873 0.821564 0.274011 0.318083
C10   C     C_R   0.604116 0.321812 0.725993 0.318062
C11   C     C_R   0.355766 0.822655 0.211352 -0.182756
C12   C     C_R   0.644219 0.322993 0.788654 -0.182749
C13   C     C_R   0.298833 0.851650 0.201140 -0.173499
C14   C     C_R   0.701157 0.351895 0.798864 -0.173497
C15   C     C_R   0.279135 0.881408 0.253341 0.035997
C16   C     C_R   0.720863 0.381460 0.746660 0.035996
C17   C     C_R   0.319892 0.882118 0.318184 -0.033001
C18   C     C_R   0.680110 0.382060 0.681815 -0.032995
C19   C     C_R   0.220128 0.910034 0.242795 0.093186
C20   C     C_R   0.779874 0.410000 0.757205 0.093188
C21   C     C_R   0.203166 0.939290 0.297201 0.060319
C22   C     C_R   0.796845 0.439047 0.702796 0.060313
C23   C     C_R   0.242967 0.940008 0.359725 -0.241948
C24   C     C_R   0.757048 0.439658 0.640269 -0.241939
C25   C     C_R   0.300658 0.912170 0.371140 0.318623
C26   C     C_R   0.699353 0.411911 0.628856 0.318624
C27   C     C_R   0.177039 0.911208 0.180245 -0.281612
C28   C     C_R   0.822959 0.411281 0.819758 -0.281617
C29   C     C_R   0.104314 0.970255 0.227437 0.360759
C30   C     C_R   0.895698 0.469988 0.772560 0.360762
C31   C     C_R   0.378646 0.851390 0.327732 -0.119632
C32   C     C_R   0.621352 0.351437 0.672268 -0.119628
C33   C     C_R   0.104190 0.786315 0.859477 0.313784
C34   C     C_R   0.895814 0.286346 0.140527 0.313791
C35   C     C_R   0.140340 0.782072 0.822760 -0.311098
C36   C     C_R   0.859663 0.282106 0.177243 -0.311103
H1    H     H_    0.137793 0.666690 0.790355 0.169747
H2    H     H_    0.862216 0.166748 0.209656 0.169744
C37   C     C_R   0.180328 0.921319 0.828079 -0.070192
C38   C     C_R   0.819666 0.421325 0.171913 -0.070192
C39   C     C_R   0.184317 0.069548 0.871282 0.289464
C40   C     C_R   0.815669 0.569518 0.128698 0.289480
C41   C     C_R   0.145652 0.081888 0.905839 0.193603
C42   C     C_R   0.854336 0.581859 0.094144 0.193569
C43   C     C_R   0.106152 0.937707 0.901180 -0.141542
C44   C     C_R   0.893846 0.437709 0.098816 -0.141531
N1    N     N_R   0.270798 0.981475 0.809555 -0.205140
N2    N     N_R   0.729194 0.481462 0.190435 -0.205128
N3    N     N_R   0.303860 0.970959 0.773487 -0.260576
N4    N     N_R   0.696131 0.470944 0.226502 -0.260573
C45   C     C_R   0.285428 0.887431 0.714379 0.540793
C46   C     C_R   0.714564 0.387434 0.285610 0.540793
N5    N     N_R   0.232872 0.811349 0.693594 -0.220436
N6    N     N_R   0.767121 0.311376 0.306398 -0.220443
N7    N     N_R   0.199912 0.821064 0.729832 -0.289872
N8    N     N_R   0.800082 0.321094 0.270160 -0.289881
C47   C     C_R   0.217907 0.907967 0.788372 0.588450
C48   C     C_R   0.782087 0.407976 0.211620 0.588443
C49   C     C_R   0.323669 0.717564 0.638020 0.384339
C50   C     C_R   0.676325 0.217570 0.361969 0.384341
C51   C     C_R   0.360804 0.706511 0.602325 -0.240641
C52   C     C_R   0.639192 0.206515 0.397667 -0.240706
C53   C     C_R   0.396043 0.855253 0.600580 -0.168696
C54   C     C_R   0.603952 0.355249 0.399414 -0.168709
C55   C     C_R   0.393573 0.016853 0.634945 -0.148438
C56   C     C_R   0.606420 0.516842 0.365048 -0.148401
C57   C     C_R   0.356768 0.032434 0.670135 0.307948
C58   C     C_R   0.643222 0.532424 0.329855 0.307941
C59   C     C_R   0.321996 0.880117 0.673311 -0.114762
C60   C     C_R   0.677995 0.380116 0.326678 -0.114750
O11   O     O_R   0.953220 0.285790 0.047790 -0.512255
O12   O     O_R   0.046780 0.785790 0.952210 -0.512260
O13   O     O_R   0.939020 0.617570 0.916840 -0.529311
O14   O     O_R   0.060980 0.117570 0.083160 -0.529294
C61   C     C_R   0.923947 0.448582 0.892601 0.750087
C62   C     C_R   0.076053 0.948591 0.107399 0.750065
O15   O     O_R   0.946600 0.615450 0.045180 -0.513185
O16   O     O_R   0.053400 0.115450 0.954820 -0.513167
O17   O     O_R   0.054370 0.786770 0.081410 -0.545005
O18   O     O_R   0.945630 0.286770 0.918590 -0.544993
C63   C     C_R   0.933923 0.446968 0.061437 0.766089
C64   C     C_R   0.066076 0.946967 0.938562 0.766078
O19   O     O_3   0.035300 0.454160 0.011680 -0.375174
O20   O     O_3   0.964700 0.954160 0.988320 -0.375182
V3    V     V_3+5 0.993450 0.728620 0.997830 1.572156
V4    V     V_3+5 0.006550 0.228620 0.002170 1.572208
O21   O     O_3   0.048084 0.999287 0.219265 -0.633618
H3    H     H_    0.044233 0.017311 0.262359 0.292423
O22   O     O_3   0.951934 0.498896 0.780732 -0.633636
H4    H     H_    0.955792 0.516776 0.737634 0.292414
O23   O     O_3   0.225751 0.201251 0.878409 -0.622448
H5    H     H_    0.237158 0.252852 0.922867 0.307248
O24   O     O_3   0.774224 0.701182 0.121555 -0.622441
H6    H     H_    0.762818 0.752740 0.077092 0.307254
O25   O     O_3   0.146008 0.232803 0.944577 -0.633108
H7    H     H_    0.156786 0.343999 0.925139 0.305782
O26   O     O_3   0.853971 0.732743 0.055394 -0.633125
H8    H     H_    0.843191 0.843947 0.074827 0.305784
O27   O     O_3   0.289541 0.569734 0.639997 -0.616473
H9    H     H_    0.294469 0.469935 0.611393 0.299842
O28   O     O_3   0.710453 0.069747 0.359991 -0.616476
H10   H     H_    0.705526 0.969951 0.388593 0.299844
H11   H     H_    0.361927 0.581353 0.575650 0.141257
H12   H     H_    0.638070 0.081362 0.424342 0.141277
H13   H     H_    0.420015 0.134323 0.634031 0.174983
H14   H     H_    0.579976 0.634306 0.365963 0.174987
O29   O     O_3   0.355622 0.200377 0.699512 -0.615730
H15   H     H_    0.317762 0.218032 0.702831 0.324725
O30   O     O_3   0.644364 0.700359 0.300476 -0.615732
H16   H     H_    0.682225 0.718028 0.297158 0.324722
H17   H     H_    0.228878 0.962777 0.400611 0.124321
H18   H     H_    0.771144 0.462269 0.599380 0.124327
H19   H     H_    0.133895 0.990518 0.331577 0.119106
H20   H     H_    0.866128 0.490001 0.668415 0.119109
H21   H     H_    0.186221 0.890672 0.136269 0.114684
H22   H     H_    0.813770 0.390906 0.863736 0.114688
O31   O     O_3   0.452523 0.791641 0.284119 -0.654135
H23   H     H_    0.457613 0.772749 0.241692 0.303771
O32   O     O_3   0.547461 0.291992 0.715886 -0.654134
H24   H     H_    0.542364 0.273238 0.758315 0.303780
H25   H     H_    0.271231 0.849573 0.151265 0.133431
H26   H     H_    0.728755 0.349902 0.848741 0.133437
H27   H     H_    0.368683 0.800206 0.169662 0.131825
H28   H     H_    0.631295 0.300695 0.830347 0.131829
O33   O     O_3   0.338402 0.914455 0.434045 -0.666193
H29   H     H_    0.318031 0.938420 0.464720 0.277550
O34   O     O_3   0.661614 0.414085 0.565948 -0.666215
H30   H     H_    0.681992 0.437899 0.535270 0.277547
O35   O     O_3   0.065593 0.645715 0.853696 -0.605554
H31   H     H_    0.070602 0.549199 0.824007 0.309851
O36   O     O_3   0.934418 0.145770 0.146317 -0.605549
H32   H     H_    0.929414 0.049273 0.176013 0.309845

loop_
_geom_bond_atom_site_label_1
_geom_bond_atom_site_label_2
_ccdc_geom_bond_type
N6    N8    A    
C45   N5    A    
O22   H4    S    
C10   O32   S    
C15   C17   A    
O27   H9    S    
O1    C3    A    
O2    C4    A    
C2    O7    A    
O19   V4    S    
O18   V4    S    
C2    C53   S    
C35   H1    S    
O5    C3    A    
C33   C43   A    
C52   C54   A    
C45   C59   S    
O12   V3    S    
C10   C12   A    
C24   H18   S    
C44   C63   S    
C12   C14   A    
O31   H23   S    
C4    C31   S    
C55   H13   S    
C6    C30   A    
C8    C28   A    
C56   C58   A    
O36   H32   S    
C28   H22   S    
C8    C61   S    
C18   C26   A    
N2    N4    A    
N3    C45   A    
N4    C46   A    
C9    C31   A    
O35   H31   S    
C10   C32   A    
C42   C44   A    
N5    N7    A    
O11   V4    S    
C49   O27   S    
C46   C60   S    
O25   H7    S    
C29   O21   S    
C13   H25   S    
C22   C24   A    
C12   H28   S    
C33   C35   A    
O6    V2    S    
C25   O33   S    
C61   O18   A    
C34   C44   A    
C33   O35   S    
C51   C53   A    
C18   C32   A    
C5    C21   A    
C38   C40   A    
O16   C64   A    
C34   C36   A    
C58   O30   S    
C39   C41   A    
C9    C11   A    
O34   H30   S    
C40   C42   A    
N1    N3    A    
C27   H21   S    
O13   C61   A    
C15   C19   A    
C16   C20   A    
C38   C48   S    
C58   C60   A    
C7    C62   S    
C49   C51   A    
C35   C37   A    
O5    V1    S    
C50   O28   S    
C41   O25   S    
N7    C47   A    
C46   N6    A    
O4    V2    S    
C14   H26   S    
C6    C22   A    
O21   H3    S    
C62   O17   A    
N2    C48   A    
O6    C4    A    
C52   H12   S    
O20   V3    S    
C19   C21   A    
C55   C57   A    
C3    C32   S    
O1    V2    S    
O12   C64   A    
O17   V3    S    
O2    V1    S    
C53   C55   A    
C9    O31   S    
O30   H16   S    
C7    C27   A    
N1    C47   A    
C50   C52   A    
C43   C64   S    
C41   C43   A    
C57   O29   S    
O4    C2    A    
C17   C25   A    
O32   H24   S    
C30   O22   S    
C42   O26   S    
O3    V1    S    
C23   C25   A    
C57   C59   A    
O28   H10   S    
O24   H6    S    
C26   O34   S    
C40   O24   S    
C56   H14   S    
C54   C56   A    
O3    C1    A    
C8    C30   A    
O29   H15   S    
C34   O36   S    
C13   C15   A    
O33   H29   S    
C14   C16   A    
C51   H11   S    
C11   H27   S    
C1    C54   S    
C23   H17   S    
O7    V1    S    
C16   C18   A    
O8    V2    S    
O26   H8    S    
C6    H20   S    
C24   C26   A    
C5    H19   S    
C39   O23   S    
C50   C60   A    
C36   H2    S    
C21   C23   A    
C19   C27   A    
O14   C62   A    
C20   C28   A    
O15   C63   A    
O14   V4    S    
C5    C29   A    
O13   V3    S    
C1    O8    A    
C11   C13   A    
N8    C48   A    
O9    V2    S    
O15   V3    S    
O23   H5    S    
O10   V1    S    
C37   C47   S    
C37   C39   A    
C36   C38   A    
O16   V4    S    
C17   C31   A    
C7    C29   A    
C20   C22   A    
C49   C59   A    
O11   C63   A    
