data_mof_unit_43891.cif
_audit_creation_date              2012-12-10T20:27:59-0500
_audit_creation_method            fapswitch 2.2
_symmetry_space_group_name_H-M    P1
_symmetry_Int_Tables_number       1
_space_group_crystal_system       triclinic
_cell_length_a                    12.846598
_cell_length_b                    10.68027
_cell_length_c                    9.876791
_cell_angle_alpha                 89.625607
_cell_angle_beta                  97.578588
_cell_angle_gamma                 89.956557
_cell_volume                      1343.278628

loop_
_atom_site_label
_atom_site_type_symbol
_atom_type_description
_atom_site_fract_x
_atom_site_fract_y
_atom_site_fract_z
_atom_type_partial_charge
C1    C     C_R   0.500330 0.260268 0.500456 0.883530
C2    C     C_R   0.431198 0.937913 0.388691 0.201251
C3    C     C_R   0.487006 0.871642 0.499195 -0.110122
C4    C     C_R   0.298120 0.497532 0.472656 0.860765
C5    C     C_R   0.532731 0.934421 0.614863 0.069097
C6    C     C_3   0.642064 0.922237 0.686959 -0.429948
C7    C     C_3   0.646377 0.063786 0.686205 -0.492404
C8    C     C_R   0.479231 0.392687 0.068533 0.190528
C9    C     C_R   0.510377 0.608415 0.072928 -0.041261
C10   C     C_R   0.510516 0.608416 0.929261 -0.127154
C11   C     C_R   0.479232 0.392757 0.926005 0.216933
C12   C     C_R   0.027817 0.479889 0.557167 0.121511
C13   C     C_3   0.542691 0.275702 0.932491 -0.512050
C14   C     C_3   0.542391 0.275242 0.085870 -0.475796
C15   C     C_R   0.496612 0.739674 0.499094 0.943898
C16   C     C_R   0.701667 0.506445 0.527122 0.947845
C17   C     C_R   0.814170 0.514595 0.545116 -0.194968
C18   C     C_R   0.185691 0.499545 0.454630 -0.042356
C19   C     C_R   0.023502 0.570581 0.329212 -0.101228
C20   C     C_R   0.129977 0.548385 0.335019 -0.249069
C21   C     C_R   0.134325 0.460394 0.562792 -0.233997
C22   C     C_3   0.271861 0.833564 0.297171 -0.744652
C23   C     C_R   0.972128 0.542426 0.442729 0.050475
C24   C     C_R   0.866418 0.571928 0.444111 0.382122
C25   C     C_R   0.869705 0.452341 0.657186 -0.256372
C26   C     C_R   0.977015 0.438789 0.665429 -0.202930
C27   C     C_R   0.535803 0.062134 0.615816 0.115302
C28   C     C_R   0.492582 0.128624 0.500837 -0.110156
C29   C     C_R   0.434926 0.067881 0.390358 -0.293995
H1    H     H_    0.696968 0.878232 0.623195 0.241189
H2    H     H_    0.829664 0.410644 0.736270 0.182440
H3    H     H_    0.982428 0.608372 0.235270 0.208801
H4    H     H_    0.019378 0.390720 0.752876 0.151307
H5    H     H_    0.169245 0.573974 0.248412 0.164215
H6    H     H_    0.177764 0.417095 0.652789 0.151634
H7    H     H_    0.394603 0.120878 0.305176 0.156743
H8    H     H_    0.643719 0.881287 0.791000 0.201900
H9    H     H_    0.852657 0.855978 0.231502 0.380428
H10   H     H_    0.373738 0.923755 0.183760 0.217850
H11   H     H_    0.221371 0.915126 0.313819 0.242369
H12   H     H_    0.653188 0.103315 0.790405 0.203514
H13   H     H_    0.277005 0.769932 0.387179 0.236370
H14   H     H_    0.235188 0.782024 0.205971 0.232735
H15   H     H_    0.702863 0.102489 0.620637 0.208996
H16   H     H_    0.521836 0.695536 0.127946 0.180435
H17   H     H_    0.522029 0.695592 0.877138 0.153230
H18   H     H_    0.497809 0.196595 0.880843 0.205315
H19   H     H_    0.621885 0.291722 0.901896 0.213291
H20   H     H_    0.497241 0.195888 0.122059 0.196193
H21   H     H_    0.621452 0.289767 0.144488 0.227526
N1    N     N_R   0.499290 0.499140 0.142710 -0.107516
N2    N     N_R   0.499290 0.499180 0.857070 -0.108871
N3    N     N_2   0.375210 0.875437 0.274816 -0.300476
O1    O     O_R   0.500010 0.316790 0.614690 -0.622282
O2    O     O_2   0.715441 0.749783 0.390072 -0.337440
O3    O     O_3   0.890964 0.800491 0.301950 -0.579387
O4    O     O_R   0.500000 0.316760 0.385350 -0.630751
O5    O     O_R   0.346360 0.499990 0.595720 -0.621908
O6    O     O_R   0.346350 0.499960 0.366370 -0.628300
O7    O     O_R   0.500000 0.683240 0.614650 -0.643321
O8    O     O_R   0.499990 0.683210 0.385310 -0.569644
O9    O     O_R   0.653650 0.500040 0.633630 -0.626466
O10   O     O_R   0.653640 0.500010 0.404280 -0.555699
O11   O     O_2   0.762501 0.628268 0.196991 -0.327417
S1    S     S_3+6 0.804088 0.688597 0.330268 -0.012008
Zn1   Zn    Zn3+2 0.500010 0.500020 0.653130 0.950048
Zn2   Zn    Zn3+2 0.499990 0.499980 0.346870 1.000158

loop_
_geom_bond_atom_site_label_1
_geom_bond_atom_site_label_2
_ccdc_geom_bond_type
C25   H2    S    
C13   H19   S    
C19   C23   A    
C23   C24   A    
C9    H16   S    
C6    C7    S    
C21   H6    S    
C16   O10   A    
C1    O4    A    
C1    C28   S    
C18   C21   A    
C9    C10   A    
O8    Zn2   S    
C26   H4    S    
C22   H14   S    
C8    N1    A    
C7    C27   S    
C8    C11   A    
C1    O1    A    
C10   N2    A    
O11   S1    D    
N1    Zn2   S    
C2    C3    A    
C15   O8    A    
C6    H8    S    
C3    C15   S    
C14   H21   S    
C7    H15   S    
C11   C13   S    
C29   H7    S    
C22   H13   S    
C16   O9    A    
C24   S1    S    
O4    Zn2   S    
C2    C29   A    
O1    Zn1   S    
C19   H3    S    
C12   C21   A    
C4    O6    A    
C28   C29   A    
C6    H1    S    
H10   N3    S    
C22   N3    S    
C18   C20   A    
O6    Zn2   S    
C7    H12   S    
C5    C6    S    
O10   Zn2   S    
C17   C24   A    
O9    Zn1   S    
O7    Zn1   S    
O3    S1    S    
C14   H20   S    
C10   H17   S    
N2    Zn1   S    
H9    O3    S    
C15   O7    A    
C20   H5    S    
C4    O5    A    
C27   C28   A    
C13   H18   S    
C22   H11   S    
C16   C17   S    
C12   C23   A    
C11   N2    A    
C8    C14   S    
C13   C14   S    
O2    S1    D    
C25   C26   A    
C5    C27   A    
C4    C18   S    
O5    Zn1   S    
C19   C20   A    
C12   C26   A    
C17   C25   A    
C3    C5    A    
C2    N3    S    
C9    N1    A    
