data_mof_unit_56459.cif
_audit_creation_date              2013-03-05T16:19:46-0500
_audit_creation_method            fapswitch 2.2
_symmetry_space_group_name_H-M    P1
_symmetry_Int_Tables_number       1
_space_group_crystal_system       triclinic
_cell_length_a                    10.625816
_cell_length_b                    9.678272
_cell_length_c                    27.668311
_cell_angle_alpha                 89.811424
_cell_angle_beta                  90.084157
_cell_angle_gamma                 90.077681
_cell_volume                      2845.37522859

loop_
_atom_site_label
_atom_site_type_symbol
_atom_site_description
_atom_site_fract_x
_atom_site_fract_y
_atom_site_fract_z
_atom_type_partial_charge
O1    O     O_R   0.314910 0.616040 0.499990 -0.626673
O2    O     O_R   0.314910 0.383960 0.499990 -0.633364
C1    C     C_R   0.258110 0.499574 0.503094 0.835805
O3    O     O_R   0.500140 0.616020 0.428740 -0.624470
O4    O     O_R   0.500140 0.383980 0.428740 -0.625195
C2    C     C_R   0.499626 0.500227 0.405868 0.886534
Zn1   Zn    Zn3+2 0.500150 0.654960 0.499980 0.902076
Zn2   Zn    Zn3+2 0.500150 0.345040 0.499980 0.904801
O5    O     O_R   0.685320 0.616040 0.499970 -0.637250
O6    O     O_R   0.685320 0.383960 0.499970 -0.634688
O7    O     O_R   0.500090 0.616050 0.571230 -0.635527
O8    O     O_R   0.500090 0.383950 0.571230 -0.625489
C3    C     C_R   0.742560 0.499911 0.501551 0.869992
C4    C     C_R   0.502590 0.499773 0.593974 0.849364
C5    C     C_R   0.370485 0.528399 0.178039 0.503935
O9    O     O_2   0.265789 0.554149 0.204061 -0.554808
N1    N     N_R   0.481702 0.501983 0.201042 -0.358620
C6    C     C_R   0.589873 0.476088 0.176123 0.514459
C7    C     C_R   0.480707 0.626541 0.277595 -0.099919
C8    C     C_R   0.486199 0.626343 0.327769 -0.225618
C9    C     C_R   0.500715 0.375687 0.327606 -0.226177
C10   C     C_R   0.495530 0.376313 0.277438 -0.101038
C11   C     C_R   0.485371 0.501614 0.252493 0.322427
C12   C     C_R   0.474718 0.498675 0.100975 -0.053446
C13   C     C_R   0.364928 0.527974 0.127514 -0.017649
C14   C     C_R   0.252354 0.555389 0.103222 -0.133146
C15   C     C_R   0.588464 0.473934 0.125585 -0.042516
C16   C     C_R   0.496095 0.500796 0.353099 -0.047418
H1    H     H_    0.508295 0.277591 0.346339 0.150302
H2    H     H_    0.499284 0.279703 0.257858 0.136488
H3    H     H_    0.166393 0.576410 0.122874 0.193907
C17   C     C_R   0.494860 0.498230 0.646507 -0.072103
C18   C     C_R   0.356426 0.534785 0.974369 0.043671
C19   C     C_R   0.568522 0.432352 0.973496 0.039466
C20   C     C_R   0.460441 0.480884 0.948684 0.078248
C21   C     C_R   0.255067 0.592068 0.947902 -0.205742
C22   C     C_R   0.255006 0.592336 0.897669 -0.131455
C23   C     C_R   0.354859 0.533579 0.872190 -0.024533
C24   C     C_R   0.456593 0.475094 0.897670 -0.055302
C25   C     C_R   0.555107 0.411539 0.872107 -0.024662
C26   C     C_R   0.553069 0.413466 0.821656 0.510514
N2    N     N_R   0.456786 0.477399 0.797689 -0.351920
C27   C     C_R   0.357344 0.534515 0.821588 0.510904
C28   C     C_R   0.391111 0.404241 0.717278 -0.095360
C29   C     C_R   0.406286 0.408698 0.667557 -0.280548
C30   C     C_R   0.571546 0.583177 0.676096 0.152244
C31   C     C_R   0.552139 0.579835 0.726087 -0.119188
C32   C     C_R   0.464140 0.489595 0.746468 0.276307
O10   O     O_2   0.262673 0.593790 0.796454 -0.563820
C33   C     C_R   0.357373 0.529236 0.025482 0.052680
C34   C     C_R   0.470786 0.494523 0.049932 0.061788
C35   C     C_R   0.580432 0.456784 0.023784 -0.012562
C36   C     C_R   0.248582 0.556834 0.053097 -0.211070
H4    H     H_    0.348628 0.341732 0.645444 0.150331
H5    H     H_    0.324034 0.333191 0.733212 0.148991
H6    H     H_    0.176235 0.639105 0.878882 0.191217
H7    H     H_    0.176336 0.642012 0.965054 0.152332
H8    H     H_    0.157907 0.575884 0.036911 0.160672
O11   O     O_2   0.698346 0.453055 0.200298 -0.554102
C37   C     C_R   0.699030 0.453027 0.099466 -0.176633
H9    H     H_    0.482233 0.724118 0.346640 0.150161
H10   H     H_    0.473333 0.723482 0.258144 0.136900
H11   H     H_    0.788461 0.443939 0.118191 0.195790
C38   C     C_R   0.658063 0.355312 0.947396 -0.198217
C39   C     C_R   0.652680 0.347069 0.897396 -0.137595
O12   O     O_2   0.647139 0.353508 0.796583 -0.559738
C40   C     C_R   0.697157 0.448643 0.049185 -0.015992
H12   H     H_    0.730955 0.296542 0.965195 0.162812
H13   H     H_    0.725713 0.290565 0.878675 0.192082
H14   H     H_    0.608467 0.644173 0.749725 0.142141
C41   C     C_3   0.070650 0.617799 0.538881 0.012905
C42   C     C_3   0.070278 0.352297 0.522079 0.024130
H15   H     H_    0.092471 0.716136 0.519421 0.174130
H16   H     H_    0.104099 0.275804 0.494974 0.164625
C43   C     C_3   0.925983 0.606182 0.541247 -0.433443
C44   C     C_3   0.926231 0.353477 0.518738 -0.406108
H17   H     H_    0.893770 0.573282 0.577675 0.172742
H18   H     H_    0.881807 0.323054 0.553643 0.175007
H19   H     H_    0.884921 0.710145 0.534291 0.165234
H20   H     H_    0.896470 0.275205 0.491552 0.159352
H21   H     H_    0.114249 0.624120 0.438988 0.182102
H22   H     H_    0.104980 0.441713 0.429033 0.181035
H23   H     H_    0.901277 0.642119 0.442609 0.180426
H24   H     H_    0.891882 0.463406 0.425387 0.175596
C45   C     C_3   0.074191 0.526092 0.453609 -0.480083
C46   C     C_3   0.121774 0.498222 0.506015 0.047926
C47   C     C_3   0.878803 0.499164 0.503582 0.107830
C48   C     C_3   0.930368 0.535561 0.453001 -0.418783
C49   C     C_3   0.394637 0.081495 0.469569 -0.235250
C50   C     C_3   0.393207 0.918704 0.470326 -0.235224
H25   H     H_    0.402515 0.118888 0.431632 0.147229
H26   H     H_    0.397194 0.878870 0.432701 0.147299
H27   H     H_    0.303400 0.120823 0.483281 0.146213
H28   H     H_    0.302369 0.882176 0.485718 0.143815
H29   H     H_    0.632349 0.122240 0.441226 0.146843
H30   H     H_    0.628704 0.881611 0.440128 0.147031
C51   C     C_3   0.618158 0.081734 0.478499 -0.234106
C52   C     C_3   0.617383 0.919019 0.477848 -0.234258
C53   C     C_3   0.486765 0.080787 0.548514 -0.232722
C54   C     C_3   0.488707 0.918305 0.548581 -0.228704
N3    N     N_3   0.499750 0.138610 0.498940 -0.033404
N4    N     N_3   0.499750 0.861390 0.498940 -0.033360
H31   H     H_    0.564471 0.119843 0.571759 0.155254
H32   H     H_    0.568775 0.881412 0.571109 0.144067
H33   H     H_    0.397742 0.118051 0.565032 0.156325
H34   H     H_    0.401819 0.878169 0.565980 0.155600
H35   H     H_    0.699922 0.117897 0.500180 0.143870
H36   H     H_    0.700208 0.880345 0.498408 0.143631
C55   C     C_3   0.678211 0.672063 0.656850 -0.461263
C56   C     C_3   0.805773 0.619974 0.674851 -0.843476
H37   H     H_    0.812005 0.624745 0.714852 0.278970
H38   H     H_    0.821094 0.511740 0.662970 0.257765
H39   H     H_    0.881715 0.685821 0.659766 0.251150
H40   H     H_    0.682433 0.673964 0.616934 0.218363
H41   H     H_    0.664337 0.780390 0.668914 0.211968
C57   C     C_1   0.818442 0.455764 0.025595 0.150999
N5    N     N_1   0.915700 0.461906 0.006905 -0.218604
C58   C     C_3   0.130850 0.630724 0.590029 -0.407083
C59   C     C_3   0.125825 0.779238 0.608463 -0.895173
H42   H     H_    0.182970 0.847562 0.584853 0.249757
H43   H     H_    0.027367 0.817445 0.608922 0.261320
H44   H     H_    0.164619 0.783927 0.645711 0.271877
H45   H     H_    0.081941 0.564939 0.616882 0.213620
H46   H     H_    0.230931 0.598557 0.589802 0.214001
C60   C     C_3   0.115119 0.300614 0.572480 -0.393811
C61   C     C_3   0.103706 0.143712 0.577462 -0.936571
H47   H     H_    0.004205 0.110459 0.573414 0.264022
H48   H     H_    0.161598 0.091128 0.549755 0.244889
H49   H     H_    0.137625 0.111311 0.613745 0.263824
H50   H     H_    0.214653 0.329033 0.578878 0.211334
H51   H     H_    0.058234 0.347119 0.601701 0.211567

loop_
_geom_bond_atom_site_label_1
_geom_bond_atom_site_label_2
_geom_bond_distance
_ccdc_geom_bond_type
C53   H31   1.112421 S    
C47   C48   1.543174 S    
C61   H47   1.110376 S    
C36   H8    1.077740 S    
C17   C29   1.404261 A    
C20   C24   1.413280 A    
C7    C8    1.389354 A    
C12   C15   1.406793 A    
C42   C44   1.533323 S    
C51   C52   1.574971 S    
C45   C46   1.557741 S    
Zn1   O7    2.005799 S    
N1    C11   1.424035 S    
C37   H11   1.085208 S    
C38   H12   1.078976 S    
C21   C22   1.389839 A    
C44   H18   1.114127 S    
C15   C37   1.395557 A    
C23   C24   1.408113 A    
O7    C4    1.287836 A    
C59   H44   1.110453 S    
C7    H10   1.082960 S    
C5    O9    1.349950 S    
C54   H32   1.112489 S    
C18   C21   1.414293 A    
C52   H36   1.111875 S    
C57   N5    1.157652 T    
C5    N1    1.365486 A    
C19   C20   1.416998 A    
C26   N2    1.366132 A    
C8    H9    1.083185 S    
O5    C3    1.279261 A    
C56   H37   1.109757 S    
C50   N4    1.487392 S    
C58   C59   1.527777 S    
C22   H6    1.083449 S    
C60   H50   1.106592 S    
C2    C16   1.460449 S    
C53   C54   1.572704 S    
C37   C40   1.392103 A    
Zn1   N4    1.998009 S    
H30   C52   1.112539 S    
C49   H25   1.112394 S    
Zn2   N3    1.998187 S    
H21   C45   1.114368 S    
C12   C34   1.413535 A    
H23   C48   1.113758 S    
C14   H3    1.083524 S    
C9    C10   1.389064 A    
C1    C46   1.451093 S    
O3    Zn1   2.008014 S    
C54   N4    1.486360 S    
C50   H28   1.112341 S    
C59   H43   1.110207 S    
C53   H33   1.112223 S    
C33   C36   1.412877 A    
C34   C35   1.421119 A    
C44   H20   1.114473 S    
C12   C13   1.409023 A    
C42   H16   1.115704 S    
C21   H7    1.078199 S    
C24   C25   1.407538 A    
C41   H15   1.116176 S    
C27   O10   1.349651 S    
N2    C32   1.423964 S    
C8    C16   1.404692 A    
C61   H49   1.110498 S    
C33   C34   1.421265 A    
C18   C33   1.415072 A    
C52   N4    1.487324 S    
C9    H1    1.083214 S    
O1    C1    1.280572 A    
C7    C11   1.397314 A    
C40   C57   1.446907 S    
C31   H14   1.083626 S    
C22   C23   1.397359 A    
C41   C46   1.572065 S    
C60   H51   1.107348 S    
C50   H26   1.112181 S    
C31   C32   1.396862 A    
C44   C47   1.554126 S    
Zn2   O8    2.008234 S    
C3    C47   1.448737 S    
C19   C38   1.410734 A    
N1    C6    1.365135 A    
C58   H46   1.108512 S    
C43   H17   1.110400 S    
C56   H39   1.108763 S    
C35   C40   1.426815 A    
C55   H40   1.105485 S    
C43   C47   1.553808 S    
C25   C26   1.396096 A    
C53   N3    1.486235 S    
C9    C16   1.404251 A    
O8    C4    1.287551 A    
C29   H4    1.081742 S    
C25   C39   1.396653 A    
C60   C61   1.528998 S    
O3    C2    1.288823 A    
N2    C27   1.365793 A    
C14   C36   1.387436 A    
C28   C29   1.385884 A    
C45   C48   1.531165 S    
Zn1   O5    2.003816 S    
C30   C31   1.399015 A    
C61   H48   1.109011 S    
C10   H2    1.082974 S    
C41   C58   1.557521 S    
C49   N3    1.487300 S    
O1    Zn1   2.003543 S    
C17   C30   1.418021 A    
O2    Zn2   2.004546 S    
C6    C15   1.398577 A    
H24   C48   1.113773 S    
C4    C17   1.455952 S    
O6    C3    1.276552 A    
O4    Zn2   2.005577 S    
C42   C46   1.576720 S    
C59   H42   1.109022 S    
H29   C51   1.112462 S    
C26   O12   1.350331 S    
C54   H34   1.110922 S    
H22   C45   1.114150 S    
C19   C35   1.417547 A    
C42   C60   1.554333 S    
C38   C39   1.387062 A    
O2    C1    1.275265 A    
C13   C14   1.396538 A    
C23   C27   1.400348 A    
C55   C56   1.528941 S    
C41   C43   1.542627 S    
C28   H5    1.082970 S    
O4    C2    1.289038 A    
C39   H13   1.083413 S    
C18   C20   1.416017 A    
C58   H45   1.106623 S    
C49   H27   1.109816 S    
C56   H38   1.111190 S    
C5    C13   1.399142 A    
C55   H41   1.111401 S    
C51   H35   1.111852 S    
C6    O11   1.350217 S    
Zn2   O6    2.002812 S    
C30   C55   1.517993 S    
C10   C11   1.397590 A    
C49   C50   1.575660 S    
C43   H19   1.113320 S    
C51   N3    1.487249 S    
C28   C32   1.391996 A    
