data_mof_unit_34443.cif
_audit_creation_date              2012-12-10T17:47:01-0500
_audit_creation_method            fapswitch 2.2
_symmetry_space_group_name_H-M    P1
_symmetry_Int_Tables_number       1
_space_group_crystal_system       triclinic
_cell_length_a                    9.937641
_cell_length_b                    10.637138
_cell_length_c                    13.619359
_cell_angle_alpha                 91.599493
_cell_angle_beta                  83.021536
_cell_angle_gamma                 89.940652
_cell_volume                      1428.43970519

loop_
_atom_site_label
_atom_site_type_symbol
_atom_type_description
_atom_site_fract_x
_atom_site_fract_y
_atom_site_fract_z
_atom_type_partial_charge
C1    C     C_R   0.500333 0.739244 0.497373 0.846125
C2    C     C_R   0.559048 0.938048 0.564051 -0.216288
C3    C     C_R   0.559306 0.066501 0.563894 -0.199152
C4    C     C_R   0.475691 0.500412 0.685566 0.879983
C5    C     C_R   0.502158 0.128005 0.490156 -0.099457
C6    C     C_R   0.839601 0.667109 0.628317 -0.145280
C7    C     C_R   0.899541 0.748476 0.691755 -0.199212
C8    C     C_R   0.038672 0.746844 0.692550 -0.186632
C9    C     C_R   0.118831 0.664239 0.629563 -0.144820
C10   C     C_R   0.061848 0.581369 0.563589 0.161939
C11   C     C_R   0.917467 0.581997 0.563247 0.172801
C12   C     C_1   0.457241 0.501861 0.789438 -0.186270
C13   C     C_R   0.938789 0.421726 0.439374 -0.112622
C14   C     C_R   0.081741 0.421878 0.439302 -0.105343
C15   C     C_R   0.500589 0.260593 0.497028 0.866398
C16   C     C_R   0.524297 0.499711 0.314433 0.866704
C17   C     C_1   0.542643 0.500550 0.210615 -0.188617
C18   C     C_2   0.558321 0.502405 0.018885 -0.162449
C19   C     C_2   0.441416 0.504206 0.981273 -0.171100
C20   C     C_1   0.445309 0.503144 0.877309 0.006053
C21   C     C_1   0.554459 0.501446 0.122797 0.005483
C22   C     C_R   0.398799 0.863152 0.333367 -0.172338
C23   C     C_R   0.348951 0.926093 0.256818 -0.132713
C24   C     C_R   0.349191 0.056877 0.256707 -0.139507
C25   C     C_R   0.399337 0.125195 0.333120 -0.188966
C26   C     C_R   0.448580 0.062847 0.412125 0.095468
C27   C     C_R   0.448305 0.931001 0.412269 0.098014
C28   C     C_R   0.501659 0.871338 0.490452 -0.086068
H1    H     H_    0.344319 0.505548 0.027717 0.157101
H2    H     H_    0.311404 0.873169 0.196854 0.138495
H3    H     H_    0.311814 0.105564 0.196668 0.136692
H4    H     H_    0.401023 0.226487 0.328589 0.141794
H5    H     H_    0.601369 0.118359 0.622663 0.154234
H6    H     H_    0.893604 0.357659 0.389817 0.148021
H7    H     H_    0.732275 0.673911 0.632796 0.195925
H8    H     H_    0.837358 0.812914 0.740894 0.146284
H9    H     H_    0.084932 0.809842 0.742398 0.149657
H10   H     H_    0.224758 0.667619 0.634877 0.201428
H11   H     H_    0.143607 0.357884 0.389680 0.145877
H12   H     H_    0.655412 0.500799 0.972429 0.161196
H13   H     H_    0.600969 0.890412 0.622926 0.138047
H14   H     H_    0.399983 0.761589 0.329014 0.153130
N1    N     N_R   0.857120 0.501200 0.500900 -0.119548
N2    N     N_R   0.142720 0.501280 0.500940 -0.119821
O1    O     O_R   0.385310 0.683220 0.500000 -0.638727
O2    O     O_R   0.614640 0.683250 0.500010 -0.628154
O3    O     O_R   0.368830 0.499960 0.640340 -0.623958
O4    O     O_R   0.598160 0.499980 0.640350 -0.626606
O5    O     O_R   0.385360 0.316750 0.499990 -0.613342
O6    O     O_R   0.614690 0.316780 0.500000 -0.609877
O7    O     O_R   0.401840 0.500020 0.359650 -0.622152
O8    O     O_R   0.631170 0.500040 0.359660 -0.601103
Zn1   Zn    Zn3+2 0.346870 0.499980 0.499990 0.931965
Zn2   Zn    Zn3+2 0.653130 0.500020 0.500010 0.941306

loop_
_geom_bond_atom_site_label_1
_geom_bond_atom_site_label_2
_ccdc_geom_bond_type
C1    C28   S    
C23   C24   A    
C11   N1    A    
C6    C7    A    
C8    H9    S    
C4    C12   S    
C18   C21   S    
C9    C10   A    
N1    Zn2   S    
C19   C20   S    
C16   O7    A    
O3    Zn1   S    
O2    Zn2   S    
C25   H4    S    
C2    C3    A    
C14   H11   S    
C24   H3    S    
O1    Zn1   S    
C13   H6    S    
O6    Zn2   S    
C13   C14   A    
C24   C25   A    
O4    Zn2   S    
C1    O1    A    
C26   C27   A    
C22   H14   S    
C12   C20   T    
O5    Zn1   S    
C9    H10   S    
O8    Zn2   S    
C22   C27   A    
C15   O5    A    
C4    O4    A    
C1    O2    A    
C5    C15   S    
C7    C8    A    
C10   C11   A    
C3    H5    S    
C2    H13   S    
C10   N2    A    
C5    C26   A    
C19   H1    S    
C23   H2    S    
C3    C5    A    
C13   N1    A    
C6    H7    S    
C14   N2    A    
C18   C19   D    
C7    H8    S    
C15   O6    A    
C6    C11   A    
C18   H12   S    
C22   C23   A    
C16   C17   S    
C2    C28   A    
O7    Zn1   S    
C25   C26   A    
N2    Zn1   S    
C17   C21   T    
C16   O8    A    
C8    C9    A    
C27   C28   A    
C4    O3    A    
