data_mof_unit_7892.cif
_audit_creation_date              2012-12-11T14:08:33-0500
_audit_creation_method            fapswitch 2.2
_symmetry_space_group_name_H-M    P1
_symmetry_Int_Tables_number       1
_space_group_crystal_system       triclinic
_cell_length_a                    10.937335
_cell_length_b                    10.967291
_cell_length_c                    18.704357
_cell_angle_alpha                 90.05836
_cell_angle_beta                  89.538348
_cell_angle_gamma                 60.323125
_cell_volume                      1949.25145739

loop_
_atom_site_label
_atom_site_type_symbol
_atom_type_description
_atom_site_fract_x
_atom_site_fract_y
_atom_site_fract_z
_atom_type_partial_charge
C1    C     C_R   0.231798 0.646717 0.606996 0.543949
C2    C     C_2   0.780054 0.158151 0.707060 -0.174566
C3    C     C_2   0.163937 0.664447 0.676187 -0.126128
C4    C     C_R   0.655135 0.623849 0.600310 0.548981
C5    C     C_2   0.186511 0.671168 0.836008 0.001367
C6    C     C_2   0.184749 0.568293 0.797367 -0.218934
C7    C     C_2   0.211991 0.552741 0.720049 -0.195507
C8    C     C_2   0.662340 0.652510 0.321073 0.033456
C9    C     C_2   0.626175 0.666027 0.156755 -0.125546
C10   C     C_2   0.699616 0.556427 0.198689 -0.188971
C11   C     C_2   0.656838 0.563305 0.272882 -0.185498
C12   C     C_3   0.652639 0.569523 0.800551 -0.247237
C13   C     C_2   0.669528 0.144002 0.331834 -0.064106
C14   C     C_2   0.649156 0.152299 0.177520 -0.107027
C15   C     C_2   0.597215 0.090224 0.220266 -0.157326
C16   C     C_R   0.627805 0.228089 0.602091 0.550520
C17   C     C_2   0.581827 0.115075 0.296186 -0.108387
C18   C     C_2   0.122250 0.680937 0.345261 -0.075771
C19   C     C_2   0.111902 0.691421 0.190931 -0.097878
C20   C     C_2   0.041895 0.804079 0.234350 -0.142332
C21   C     C_2   0.075205 0.799731 0.309373 -0.134811
C22   C     C_R   0.703264 0.102467 0.897667 0.541173
C23   C     C_3   0.699180 0.679521 0.811332 0.067960
C24   C     C_R   0.725014 0.690079 0.887631 0.568357
C25   C     C_R   0.115890 0.708933 0.906036 0.567877
C26   C     C_R   0.674989 0.106711 0.104430 0.547212
C27   C     C_R   0.691435 0.688602 0.094201 0.552144
C28   C     C_R   0.215746 0.651285 0.404602 0.553276
C29   C     C_R   0.085563 0.713743 0.115491 0.551318
C30   C     C_R   0.644766 0.624075 0.394752 0.605640
C31   C     C_R   0.620531 0.224005 0.397054 0.559681
C32   C     C_3   0.588801 0.825317 0.777445 -0.090302
C33   C     C_3   0.567817 0.803906 0.697892 -0.252577
C34   C     C_3   0.671984 0.650741 0.675238 0.048877
C35   C     C_3   0.841443 0.629778 0.770404 -0.249770
C36   C     C_2   0.236475 0.762880 0.803941 0.258950
C37   C     C_2   0.445945 0.907250 0.813890 0.254120
C38   C     C_2   0.712098 0.753127 0.304565 0.194086
C39   C     C_3   0.823484 0.619883 0.689773 -0.250452
C40   C     C_3   0.640737 0.549516 0.720407 -0.224801
C41   C     C_2   0.674604 0.157460 0.670948 -0.124174
C42   C     C_2   0.688160 0.168386 0.828151 -0.131084
C43   C     C_2   0.799219 0.125638 0.783832 -0.172715
Cr1   Cr    Cr6+3 0.393010 0.398050 0.501480 1.025276
Cr2   Cr    Cr6+3 0.398820 0.707980 0.501630 1.032088
Cr3   Cr    Cr6+3 0.708140 0.393940 0.496850 1.021217
Cr4   Cr    Cr6+3 0.937950 0.938450 0.008940 1.057749
Cr5   Cr    Cr6+3 0.626180 0.937030 0.994750 1.060990
Cr6   Cr    Cr6+3 0.937790 0.625760 0.001410 1.021669
H1    H     H_    0.635666 0.895223 0.779830 0.094889
H2    H     H_    0.525845 0.752153 0.175427 0.116007
H3    H     H_    0.559871 0.022342 0.198960 0.151356
H4    H     H_    0.489132 0.120992 0.321373 0.166971
H5    H     H_    0.687440 0.220069 0.197628 0.085681
H6    H     H_    0.969931 0.907033 0.212799 0.156845
H7    H     H_    0.457954 0.826842 0.688419 0.145952
H8    H     H_    0.079089 0.889301 0.331633 0.150470
H9    H     H_    0.185196 0.587175 0.210228 0.090390
H10   H     H_    0.109572 0.595320 0.324333 0.115686
H11   H     H_    0.584983 0.878180 0.664475 0.103855
H12   H     H_    0.922728 0.524625 0.789559 0.145268
H13   H     H_    0.844365 0.696497 0.660874 0.123280
H14   H     H_    0.730738 0.467442 0.824302 0.130761
H15   H     H_    0.550448 0.602486 0.827883 0.150713
H16   H     H_    0.534125 0.566050 0.708509 0.112669
H17   H     H_    0.717041 0.438919 0.706024 0.144775
H18   H     H_    0.905437 0.062310 0.803385 0.208599
H19   H     H_    0.326732 0.718653 0.768238 0.103313
H20   H     H_    0.371306 0.010197 0.793615 0.110597
H21   H     H_    0.092099 0.770079 0.695172 0.126551
H22   H     H_    0.633608 0.482182 0.290292 0.137577
H23   H     H_    0.902460 0.513048 0.670654 0.148210
H24   H     H_    0.734262 0.770509 0.250138 0.115007
H25   H     H_    0.766672 0.129311 0.307665 0.090767
H26   H     H_    0.881275 0.704035 0.780381 0.122978
H27   H     H_    0.851094 0.186889 0.680905 0.156545
H28   H     H_    0.582086 0.233299 0.808184 0.106913
H29   H     H_    0.608987 0.121365 0.696826 0.098455
H30   H     H_    0.156975 0.495737 0.822186 0.149754
H31   H     H_    0.280579 0.446884 0.700206 0.162824
H32   H     H_    0.799724 0.468203 0.181764 0.165254
O1    O     O_R   0.507110 0.256280 0.580300 -0.519089
O2    O     O_R   0.837080 0.593860 0.915300 -0.535699
O3    O     O_R   0.064770 0.636080 0.932550 -0.523181
O4    O     O_R   0.280830 0.527190 0.577940 -0.500087
O5    O     O_R   0.068250 0.829200 0.092940 -0.512666
O6    O     O_R   0.799650 0.057040 0.080330 -0.506719
O7    O     O_R   0.586130 0.079760 0.077080 -0.511523
O8    O     O_R   0.627700 0.809630 0.066580 -0.496105
O9    O     O_R   0.816140 0.597180 0.075920 -0.508724
O10   O     O_R   0.045360 0.639170 0.081440 -0.495198
O11   O     O_3   0.833980 0.833750 0.001700 -0.273303
O12   O     O_R   0.524640 0.695370 0.425100 -0.489439
O13   O     O_R   0.261360 0.738990 0.584270 -0.514271
O14   O     O_R   0.532590 0.694780 0.574370 -0.506223
O15   O     O_R   0.744470 0.503750 0.577000 -0.527871
O16   O     O_R   0.698520 0.277230 0.571620 -0.498975
O17   O     O_R   0.498530 0.256920 0.419280 -0.511481
O18   O     O_R   0.272880 0.527780 0.428680 -0.502440
O19   O     O_R   0.252780 0.739630 0.423250 -0.513885
O20   O     O_2   0.171578 0.889741 0.813270 -0.491711
O21   O     O_2   0.412501 0.861924 0.865506 -0.462031
O22   O     O_2   0.731847 0.816268 0.352808 -0.518367
O23   O     O_R   0.735890 0.504390 0.415980 -0.517240
O24   O     O_R   0.690560 0.277820 0.422350 -0.508783
O25   O     O_3   0.499990 0.499990 0.499980 -0.258763
O26   O     O_R   0.089190 0.825870 0.932320 -0.445683
O27   O     O_R   0.819070 0.053960 0.931440 -0.487730
O28   O     O_R   0.607070 0.076440 0.916460 -0.518051
O29   O     O_R   0.647110 0.806550 0.917690 -0.455705

loop_
_geom_bond_atom_site_label_1
_geom_bond_atom_site_label_2
_ccdc_geom_bond_type
Cr5   O29   S    
C5    C36   S    
C37   H20   S    
C18   C21   D    
Cr4   O11   S    
C19   C20   D    
C9    H2    S    
Cr6   O9    S    
Cr2   O12   S    
C12   C23   S    
C35   H26   S    
C34   C40   S    
Cr6   O3    S    
C24   O2    A    
C30   O12   A    
C3    C7    D    
C5    C6    D    
C12   H15   S    
Cr1   O18   S    
C11   H22   S    
C16   O16   A    
C2    C41   D    
Cr3   O24   S    
C27   O9    A    
C31   O17   A    
C4    O15   A    
Cr1   O17   S    
C26   O6    A    
C25   O3    A    
C39   H23   S    
Cr5   O7    S    
C9    C10   D    
C9    C27   S    
C28   O19   A    
C33   H7    S    
Cr5   O28   S    
C40   H17   S    
C31   O24   A    
C8    C38   S    
Cr6   O10   S    
C20   H6    S    
Cr2   O13   S    
C19   H9    S    
C1    O4    A    
C4    C34   S    
C34   C39   S    
Cr4   O5    S    
C3    H21   S    
C18   C28   S    
C41   H29   S    
C12   H14   S    
C1    O13   A    
C15   H3    S    
Cr3   O23   S    
C37   O21   D    
C36   O20   D    
C1    C3    S    
Cr4   O6    S    
C12   C40   S    
C35   C39   S    
C21   H8    S    
C38   O22   D    
C4    O14   A    
C2    C43   S    
C23   C24   S    
C22   O28   A    
C16   O1    A    
C33   C34   S    
C24   O29   A    
C35   H12   S    
C32   C37   S    
C14   C26   S    
C32   H1    S    
C29   O5    A    
C5    C25   S    
C28   O18   A    
C43   H18   S    
C14   H5    S    
Cr3   O16   S    
C33   H11   S    
C23   C35   S    
Cr5   O8    S    
C42   C43   D    
Cr6   O11   S    
Cr1   O4    S    
Cr2   O14   S    
C17   H4    S    
C29   O10   A    
C2    H27   S    
Cr2   O25   S    
C25   O26   A    
C15   C17   S    
C39   H13   S    
C13   C31   S    
Cr2   O19   S    
C36   H19   S    
C6    C7    S    
Cr1   O25   S    
C10   H32   S    
Cr1   O1    S    
C13   C17   D    
C40   H16   S    
C8    C30   S    
C23   C32   S    
Cr6   O2    S    
C32   C33   S    
C6    H30   S    
C22   C42   S    
Cr4   O26   S    
C8    C11   D    
C22   O27   A    
Cr3   O25   S    
C27   O8    A    
C10   C11   S    
C18   H10   S    
Cr3   O15   S    
C20   C21   S    
C42   H28   S    
C26   O7    A    
Cr4   O27   S    
Cr5   O11   S    
C30   O23   A    
C14   C15   D    
C7    H31   S    
C16   C41   S    
C13   H25   S    
C38   H24   S    
C19   C29   S    
