data_mof_unit_54556.cif
_audit_creation_date              2012-12-10T18:21:17-0500
_audit_creation_method            fapswitch 2.2
_symmetry_space_group_name_H-M    P1
_symmetry_Int_Tables_number       1
_space_group_crystal_system       triclinic
_cell_length_a                    9.417521
_cell_length_b                    10.634658
_cell_length_c                    17.27847
_cell_angle_alpha                 87.886765
_cell_angle_beta                  85.535985
_cell_angle_gamma                 90.033957
_cell_volume                      1724.04203455

loop_
_atom_site_label
_atom_site_type_symbol
_atom_type_description
_atom_site_fract_x
_atom_site_fract_y
_atom_site_fract_z
_atom_type_partial_charge
C1    C     C_R   0.500085 0.740634 0.499935 0.768971
C2    C     C_R   0.499914 0.259366 0.500065 0.768971
C3    C     C_3   0.370573 0.959476 0.484554 -0.142697
C4    C     C_3   0.629427 0.040524 0.515446 -0.142698
C5    C     C_3   0.468308 0.046327 0.430098 -0.174254
C6    C     C_3   0.531692 0.953673 0.569902 -0.174253
C7    C     C_3   0.499751 0.122368 0.500312 0.035415
C8    C     C_3   0.500248 0.877632 0.499688 0.035414
C9    C     C_3   0.401898 0.037771 0.554794 -0.164942
C10   C     C_3   0.598102 0.962229 0.445206 -0.164943
C11   C     C_3   0.957506 0.438308 0.442529 -0.027130
C12   C     C_3   0.042493 0.561692 0.557471 -0.027129
C13   C     C_3   0.049469 0.386479 0.506087 -0.047532
C14   C     C_3   0.950531 0.613521 0.493913 -0.047532
C15   C     C_3   0.059574 0.551846 0.436380 -0.037272
C16   C     C_3   0.940426 0.448153 0.563620 -0.037272
C17   C     C_R   0.480827 0.495271 0.649730 0.811008
C18   C     C_R   0.519173 0.504729 0.350269 0.811008
C19   C     C_R   0.469675 0.478924 0.734472 -0.109047
C20   C     C_R   0.530325 0.521076 0.265528 -0.109047
C21   C     C_R   0.510652 0.363375 0.770540 0.096471
C22   C     C_R   0.489348 0.636624 0.229460 0.096471
C23   C     C_R   0.516831 0.355925 0.852487 0.206532
C24   C     C_R   0.483169 0.644075 0.147512 0.206532
C25   C     C_R   0.469566 0.458982 0.896451 0.080380
C26   C     C_R   0.530435 0.541018 0.103549 0.080380
C27   C     C_R   0.420344 0.568478 0.860145 -0.198669
C28   C     C_R   0.579656 0.431522 0.139855 -0.198669
C29   C     C_R   0.421846 0.580357 0.779619 0.130607
C30   C     C_R   0.578154 0.419643 0.220381 0.130608
C31   C     C_2   0.471917 0.453195 0.981444 -0.207247
C32   C     C_2   0.528083 0.546805 0.018556 -0.207248
Cu1   Cu    Cu3+1 0.356850 0.500010 0.499980 0.926485
Cu2   Cu    Cu3+1 0.643150 0.499990 0.500020 0.926485
H1    H     H_    0.916862 0.386200 0.394263 0.112510
H2    H     H_    0.083138 0.613800 0.605737 0.112510
H3    H     H_    0.114416 0.595839 0.382911 0.113652
H4    H     H_    0.885584 0.404161 0.617089 0.113652
H5    H     H_    0.567692 0.630977 0.986359 0.163461
H6    H     H_    0.432308 0.369023 0.013641 0.163461
H7    H     H_    0.382043 0.645833 0.895145 0.150674
H8    H     H_    0.617957 0.354167 0.104855 0.150674
H9    H     H_    0.439495 0.086965 0.373477 0.119164
H10   H     H_    0.560505 0.913035 0.626523 0.119164
H11   H     H_    0.264429 0.923750 0.471736 0.129425
H12   H     H_    0.735571 0.076250 0.528264 0.129425
H13   H     H_    0.318691 0.071085 0.598111 0.132777
H14   H     H_    0.681309 0.928915 0.401889 0.132777
H15   H     H_    0.095139 0.290628 0.511325 0.116462
H16   H     H_    0.904861 0.709372 0.488675 0.116462
N1    N     N_3   0.141720 0.500030 0.499940 -0.154407
N2    N     N_3   0.858280 0.499970 0.500060 -0.154407
O1    O     O_R   0.379130 0.683150 0.499960 -0.591528
O2    O     O_R   0.620870 0.316850 0.500040 -0.591529
O3    O     O_R   0.620910 0.683140 0.500000 -0.584580
O4    O     O_R   0.379090 0.316860 0.500000 -0.584580
O5    O     O_R   0.365090 0.500030 0.613580 -0.574070
O6    O     O_R   0.634910 0.499970 0.386420 -0.574071
O7    O     O_R   0.606870 0.500020 0.613610 -0.588600
O8    O     O_R   0.393130 0.499980 0.386390 -0.588600
C33   C     C_3   0.538343 0.246841 0.722915 -0.379883
C34   C     C_3   0.420045 0.149198 0.741744 -0.852430
H17   H     H_    0.399867 0.129125 0.805002 0.264482
H18   H     H_    0.319498 0.183754 0.719015 0.244300
H19   H     H_    0.450628 0.059452 0.714754 0.237424
H20   H     H_    0.542684 0.267746 0.659640 0.193695
H21   H     H_    0.644289 0.206481 0.732655 0.191467
C35   C     C_3   0.461657 0.753159 0.277085 -0.379883
C36   C     C_3   0.579954 0.850802 0.258256 -0.852430
H22   H     H_    0.680501 0.816246 0.280985 0.244300
H23   H     H_    0.600132 0.870875 0.194998 0.264482
H24   H     H_    0.549371 0.940548 0.285246 0.237424
H25   H     H_    0.355711 0.793519 0.267345 0.191467
H26   H     H_    0.457316 0.732254 0.340360 0.193695
C37   C     C_3   0.625999 0.297738 0.257362 -0.866954
H27   H     H_    0.538371 0.257976 0.297432 0.215631
H28   H     H_    0.655796 0.226658 0.213494 0.224314
H29   H     H_    0.720156 0.314852 0.290427 0.239520
C38   C     C_3   0.374001 0.702262 0.742638 -0.866955
H30   H     H_    0.279844 0.685148 0.709573 0.239520
H31   H     H_    0.344204 0.773342 0.786506 0.224314
H32   H     H_    0.461629 0.742024 0.702568 0.215631
C39   C     C_3   0.422771 0.757636 0.105300 -0.899652
H33   H     H_    0.374539 0.829473 0.143558 0.240680
H34   H     H_    0.508347 0.804424 0.066746 0.221827
H35   H     H_    0.337266 0.726622 0.069430 0.233558
C40   C     C_3   0.577228 0.242364 0.894700 -0.899651
H36   H     H_    0.625460 0.170527 0.856442 0.240679
H37   H     H_    0.662733 0.273378 0.930570 0.233558
H38   H     H_    0.491653 0.195576 0.933253 0.221827

loop_
_geom_bond_atom_site_label_1
_geom_bond_atom_site_label_2
_ccdc_geom_bond_type
C25   C31   S    
C40   H36   S    
C26   C32   S    
C27   C29   A    
C1    C8    S    
C2    C7    S    
C6    C9    S    
C20   C30   A    
C11   H1    S    
C19   C21   A    
C24   C39   S    
C24   C26   A    
C4    H12   S    
C35   H26   S    
C31   H6    S    
C32   H5    S    
C36   H23   S    
C33   H21   S    
C15   H3    S    
C1    O1    A    
C11   N2    S    
C13   N1    S    
C11   C15   S    
C33   H20   S    
C18   O6    A    
C14   N2    S    
C12   C16   S    
C35   C36   S    
C34   H18   S    
C15   N1    S    
C12   H2    S    
C21   C33   S    
Cu1   O4    S    
C5    H9    S    
Cu2   O3    S    
C6    H10   S    
C36   H22   S    
C4    C7    S    
Cu1   O1    S    
C4    C6    S    
C3    C8    S    
C2    O2    A    
C38   H31   S    
C6    C8    S    
C35   H25   S    
C3    H11   S    
C36   H24   S    
C37   H27   S    
C34   H17   S    
C3    C9    S    
C27   H7    S    
C39   H33   S    
C29   C38   S    
Cu1   Cu2   S    
C37   H28   S    
C22   C35   S    
C17   O7    A    
C13   H15   S    
C18   O8    A    
C39   H34   S    
C20   C22   A    
Cu2   O2    S    
Cu1   O8    S    
C40   H37   S    
C10   H14   S    
Cu2   O7    S    
C22   C24   A    
C13   C16   S    
C25   C27   A    
C4    C10   S    
C19   C29   A    
C12   N1    S    
C5    C7    S    
C7    C9    S    
Cu1   O5    S    
C34   H19   S    
Cu2   N2    S    
C31   C32   D    
C16   N2    S    
C12   C14   S    
C3    C5    S    
C38   H32   S    
C9    H13   S    
Cu1   N1    S    
C26   C28   A    
C21   C23   A    
C1    O3    A    
C28   C30   A    
C2    O4    A    
C30   C37   S    
C11   C13   S    
C14   H16   S    
C28   H8    S    
C17   C19   S    
C18   C20   S    
C23   C25   A    
C33   C34   S    
C37   H29   S    
C38   H30   S    
C5    C10   S    
C39   H35   S    
C8    C10   S    
C40   H38   S    
C17   O5    A    
Cu2   O6    S    
C14   C15   S    
C23   C40   S    
C16   H4    S    
