data_mof_unit_9499.cif
_audit_creation_date              2012-12-10T16:46:41-0500
_audit_creation_method            fapswitch 2.2
_symmetry_space_group_name_H-M    P1
_symmetry_Int_Tables_number       1
_space_group_crystal_system       triclinic
_cell_length_a                    15.862207
_cell_length_b                    8.734328
_cell_length_c                    7.494582
_cell_angle_alpha                 103.649653
_cell_angle_beta                  91.272084
_cell_angle_gamma                 92.383016
_cell_volume                      1007.59547848

loop_
_atom_site_label
_atom_site_type_symbol
_atom_type_description
_atom_site_fract_x
_atom_site_fract_y
_atom_site_fract_z
_atom_type_partial_charge
C1    C     C_R   0.496566 0.199969 0.453775 0.901861
C2    C     C_3   0.941799 0.454159 0.667911 -0.210337
C3    C     C_3   0.916468 0.498526 0.481495 0.018417
C4    C     C_3   0.955881 0.667468 0.485593 0.155161
C5    C     C_3   0.054456 0.671504 0.518445 -0.166600
C6    C     C_1   0.823717 0.499018 0.467161 0.031949
C7    C     C_1   0.176262 0.498895 0.532065 0.023589
C8    C     C_1   0.251660 0.499375 0.524966 -0.114802
C9    C     C_2   0.496736 0.031982 0.431499 -0.377028
C10   C     C_2   0.490589 0.967653 0.577042 0.249509
C11   C     C_R   0.340681 0.499604 0.507123 0.813096
C12   C     C_R   0.498811 0.799660 0.547951 0.746953
C13   C     C_R   0.659322 0.500307 0.492861 0.811277
C14   C     C_3   0.041174 0.446380 0.683103 -0.283324
C15   C     C_3   0.052081 0.375543 0.333139 0.249850
C16   C     C_3   0.952460 0.373174 0.318592 0.167356
C17   C     C_1   0.748346 0.499667 0.474807 -0.141426
C18   C     C_3   0.083168 0.497923 0.516776 -0.003604
Cu1   Cu    Cu3+1 0.509300 0.517380 0.684380 1.005088
Cu2   Cu    Cu3+1 0.490700 0.482620 0.315620 0.996434
H1    H     H_    0.064814 0.530959 0.810384 0.172081
H2    H     H_    0.504999 0.960633 0.293616 0.136296
H3    H     H_    0.434610 0.379629 0.951294 0.260335
H4    H     H_    0.565266 0.620613 0.048779 0.229504
H5    H     H_    0.928149 0.255863 0.333959 0.175871
H6    H     H_    0.928323 0.754071 0.601297 0.132352
N1    N     N_2   0.476670 0.456430 0.038530 -0.194842
N2    N     N_2   0.523330 0.543570 0.961470 -0.212159
O1    O     O_R   0.506050 0.286130 0.619770 -0.514285
O2    O     O_R   0.490330 0.256780 0.308370 -0.584413
O3    O     O_R   0.387300 0.514690 0.655770 -0.585392
O4    O     O_R   0.371580 0.485340 0.344370 -0.562710
O5    O     O_R   0.509670 0.743220 0.691630 -0.589957
O6    O     O_R   0.493950 0.713870 0.380230 -0.605786
O7    O     O_R   0.628420 0.514660 0.655630 -0.565607
O8    O     O_R   0.612700 0.485310 0.344230 -0.575670
C19   C     C_1   0.897154 0.304343 0.682140 0.297198
N3    N     N_1   0.862417 0.187868 0.693116 -0.244707
C20   C     C_1   0.912275 0.576515 0.823482 0.239531
N4    N     N_1   0.888372 0.673844 0.941815 -0.216974
O9    O     O_3   0.934090 0.714791 0.324205 -0.706286
H7    H     H_    0.875615 0.751548 0.336214 0.348143
O10   O     O_3   0.474882 0.059045 0.750479 -0.704094
H8    H     H_    0.464420 0.990870 0.836872 0.339299
C21   C     C_1   0.070091 0.292000 0.704705 0.442372
N5    N     N_1   0.092799 0.171803 0.721275 -0.220117
C22   C     C_1   0.096604 0.416029 0.177679 0.270434
N6    N     N_1   0.136080 0.448907 0.063390 -0.300804
O11   O     O_3   0.077009 0.223246 0.337653 -0.721677
H9    H     H_    0.055022 0.148069 0.223263 0.353028
O12   O     O_3   0.920064 0.383148 0.145811 -0.704103
H10   H     H_    0.949281 0.473399 0.112276 0.370866
C23   C     C_1   0.077736 0.780418 0.698302 0.218838
N7    N     N_1   0.095859 0.864323 0.839315 -0.211430
C24   C     C_1   0.099054 0.742779 0.383649 0.380241
N8    N     N_1   0.133785 0.799729 0.279434 -0.218797

loop_
_geom_bond_atom_site_label_1
_geom_bond_atom_site_label_2
_ccdc_geom_bond_type
C15   C18   S    
C4    H6    S    
O10   H8    S    
C19   N3    T    
Cu2   N1    S    
H3    N1    S    
C9    C10   D    
C14   C18   S    
Cu1   Cu2   S    
C16   O12   S    
C13   C17   S    
C24   N8    T    
C3    C6    S    
Cu1   O3    S    
C7    C18   S    
C1    O1    A    
C2    C3    S    
C10   O10   S    
C11   O3    A    
C7    C8    T    
Cu1   O7    S    
C23   N7    T    
Cu1   N2    S    
C2    C19   S    
C10   C12   S    
C8    C11   S    
C14   H1    S    
C5    C23   S    
C1    O2    A    
C11   O4    A    
C13   O7    A    
C14   C21   S    
C15   O11   S    
Cu2   O4    S    
C2    C14   S    
C9    H2    S    
C4    O9    S    
C3    C16   S    
C12   O6    A    
O12   H10   S    
Cu1   O1    S    
C22   N6    T    
H4    N2    S    
C20   N4    T    
C1    C9    S    
C13   O8    A    
O11   H9    S    
O9    H7    S    
Cu2   O6    S    
C16   H5    S    
C6    C17   T    
C15   C22   S    
Cu2   O2    S    
C5    C18   S    
C12   O5    A    
C21   N5    T    
C2    C20   S    
C5    C24   S    
C3    C4    S    
C15   C16   S    
Cu1   O5    S    
C4    C5    S    
N1    N2    D    
Cu2   O8    S    
