data_mof_unit_39850.cif
_audit_creation_date              2012-12-10T17:47:16-0500
_audit_creation_method            fapswitch 2.2
_symmetry_space_group_name_H-M    P1
_symmetry_Int_Tables_number       1
_space_group_crystal_system       triclinic
_cell_length_a                    11.706023
_cell_length_b                    14.716587
_cell_length_c                    14.5657
_cell_angle_alpha                 65.13957
_cell_angle_beta                  103.358135
_cell_angle_gamma                 102.67204
_cell_volume                      2193.81260276

loop_
_atom_site_label
_atom_site_type_symbol
_atom_type_description
_atom_site_fract_x
_atom_site_fract_y
_atom_site_fract_z
_atom_type_partial_charge
C1    C     C_R   0.478413 0.119647 0.311095 0.795182
C2    C     C_R   0.520621 0.880185 0.689221 0.838365
C3    C     C_R   0.378000 0.327970 0.004809 -0.068187
C4    C     C_R   0.523714 0.678313 0.006335 0.037215
C5    C     C_R   0.470673 0.467990 0.057411 0.021161
C6    C     C_R   0.447967 0.536813 0.953842 -0.152325
C7    C     C_R   0.371912 0.500278 0.881120 0.415573
C8    C     C_R   0.501795 0.506951 0.135610 0.488639
C9    C     C_R   0.339304 0.396892 0.907400 -0.187608
C10   C     C_R   0.524934 0.611949 0.108567 -0.310648
C11   C     C_R   0.705742 0.288946 0.661602 -0.308183
C12   C     C_R   0.289266 0.707683 0.343952 -0.307681
C13   C     C_R   0.671302 0.206035 0.634111 0.078221
C14   C     C_R   0.326025 0.792066 0.368812 0.076415
C15   C     C_R   0.511643 0.283172 0.512476 0.056942
C16   C     C_R   0.487902 0.716539 0.488170 0.068119
C17   C     C_R   0.541624 0.369999 0.537371 -0.027146
C18   C     C_R   0.454309 0.627382 0.467309 -0.022698
C19   C     C_R   0.641686 0.371250 0.613351 0.162732
C20   C     C_R   0.352712 0.625091 0.392965 0.155648
C21   C     C_R   0.477240 0.455066 0.489719 0.060236
C22   C     C_R   0.516857 0.541205 0.517024 0.082267
C23   C     C_R   0.284121 0.000306 0.499973 0.815017
C24   C     C_R   0.715873 0.999737 0.499955 0.813222
C25   C     C_R   0.617044 0.537929 0.593459 -0.211423
C26   C     C_R   0.374375 0.456715 0.416165 -0.225888
C27   C     C_R   0.677533 0.454496 0.640675 -0.191276
C28   C     C_R   0.314084 0.540188 0.368658 -0.186885
C29   C     C_1   0.162567 0.000697 0.500042 -0.178577
C30   C     C_1   0.837422 0.999397 0.499798 -0.179441
C31   C     C_1   0.059991 0.000387 0.499962 0.001183
C32   C     C_1   0.939994 0.999732 0.499832 0.000915
C33   C     C_R   0.454239 0.186991 0.200987 -0.215636
C34   C     C_R   0.528818 0.812942 0.800317 -0.133074
C35   C     C_R   0.342279 0.224677 0.029095 -0.173766
C36   C     C_R   0.548604 0.782407 0.981164 -0.169218
C37   C     C_R   0.373570 0.153973 0.128045 0.140006
C38   C     C_R   0.545476 0.850670 0.878851 0.095638
C39   C     C_R   0.502703 0.290516 0.170335 0.409563
C40   C     C_R   0.516595 0.707274 0.828574 0.335218
C41   C     C_R   0.449780 0.362453 0.079216 0.055719
C42   C     C_R   0.494961 0.640476 0.928559 -0.043099
Cu1   Cu    Cu3+1 0.469550 0.918260 0.475690 0.962957
Cu2   Cu    Cu3+1 0.530450 0.081740 0.524310 0.949615
H1    H     H_    0.280876 0.370490 0.851388 0.167429
H2    H     H_    0.544278 0.641893 0.167831 0.138452
H3    H     H_    0.651086 0.598729 0.619314 0.145864
H4    H     H_    0.337579 0.394250 0.393308 0.157716
H5    H     H_    0.284346 0.199595 0.971940 0.146641
H6    H     H_    0.566873 0.810613 0.041687 0.146225
H7    H     H_    0.753901 0.455447 0.699056 0.145468
H8    H     H_    0.235879 0.538073 0.312242 0.149349
H9    H     H_    0.563895 0.725280 0.543125 0.145656
H10   H     H_    0.438226 0.276103 0.454776 0.142531
H11   H     H_    0.275397 0.854643 0.332851 0.127255
H12   H     H_    0.720939 0.142624 0.671021 0.123838
H13   H     H_    0.782279 0.288851 0.720055 0.140645
H14   H     H_    0.210885 0.706590 0.287473 0.141940
N1    N     N_R   0.576230 0.204580 0.560790 -0.179562
N2    N     N_R   0.423770 0.795420 0.439210 -0.181798
O1    O     O_R   0.459870 0.022090 0.338120 -0.581478
O2    O     O_R   0.540130 0.977910 0.661880 -0.598256
O3    O     O_R   0.511290 0.160150 0.379180 -0.547537
O4    O     O_R   0.488710 0.839850 0.620820 -0.511192
O5    O     O_R   0.311490 0.930960 0.479480 -0.577509
O6    O     O_R   0.688510 0.069040 0.520520 -0.577906
O7    O     O_R   0.362910 0.069020 0.520540 -0.582753
O8    O     O_R   0.637090 0.930980 0.479460 -0.582401
O9    O     O_3   0.532899 0.671382 0.759306 -0.701076
H15   H     H_    0.560709 0.604436 0.797501 0.331333
O10   O     O_3   0.607419 0.321932 0.222723 -0.680736
H16   H     H_    0.653195 0.264254 0.261068 0.317139
C43   C     C_3   0.562795 0.961938 0.858027 -0.801967
H17   H     H_    0.484180 0.996680 0.806905 0.245226
H18   H     H_    0.573698 0.975440 0.929288 0.213049
H19   H     H_    0.644215 0.000135 0.823182 0.231933
C44   C     C_3   0.317078 0.045689 0.152758 -0.820720
H20   H     H_    0.386234 0.996046 0.175261 0.243299
H21   H     H_    0.264054 0.022003 0.215095 0.227857
H22   H     H_    0.255814 0.035479 0.086065 0.212197
O11   O     O_3   0.317709 0.562562 0.787635 -0.691530
H23   H     H_    0.304391 0.623347 0.794700 0.332474
O12   O     O_3   0.494508 0.442998 0.236406 -0.703051
H24   H     H_    0.525625 0.481595 0.280799 0.322948

loop_
_geom_bond_atom_site_label_1
_geom_bond_atom_site_label_2
_ccdc_geom_bond_type
C21   C26   A    
C4    C36   A    
C9    H1    S    
C8    O12   S    
C11   C13   A    
C43   H17   S    
Cu2   O6    S    
O11   H23   S    
C1    C33   S    
C39   C41   A    
C44   H20   S    
C11   C19   A    
C33   C39   A    
C34   C40   A    
C23   C29   S    
C35   C37   A    
C5    C6    A    
Cu2   N1    S    
C7    C9    A    
C16   N2    A    
C23   O7    A    
C16   H9    S    
O12   H24   S    
C2    O4    A    
Cu1   O8    S    
C22   C25   A    
C10   H2    S    
C19   C27   A    
C25   H3    S    
C24   O6    A    
C13   H12   S    
C12   H14   S    
C2    C34   S    
C40   C42   A    
C14   H11   S    
C34   C38   A    
C21   C22   A    
C43   H18   S    
C1    O3    A    
C27   H7    S    
Cu1   O4    S    
C24   C30   S    
C44   H21   S    
Cu2   O3    S    
C40   O9    S    
C15   H10   S    
C20   C28   A    
Cu2   O2    S    
C37   C44   S    
C33   C37   A    
Cu1   Cu2   S    
C35   H5    S    
C3    C9    A    
C31   C32   S    
C3    C35   A    
Cu1   O5    S    
C12   C20   A    
Cu1   N2    S    
C16   C18   A    
C7    O11   S    
C12   C14   A    
C43   H19   S    
C4    C10   A    
C36   H6    S    
Cu1   O1    S    
C44   H22   S    
C15   C17   A    
C5    C41   A    
C3    C41   A    
C18   C22   A    
C15   N1    A    
C1    O1    A    
C5    C8    A    
C6    C7    A    
C13   N1    A    
C26   H4    S    
C25   C27   A    
C14   N2    A    
C26   C28   A    
C23   O5    A    
C36   C38   A    
O10   H16   S    
C29   C31   T    
C30   C32   T    
C28   H8    S    
C4    C42   A    
C17   C19   A    
C18   C20   A    
O9    H15   S    
C17   C21   A    
C24   O8    A    
C8    C10   A    
C6    C42   A    
C39   O10   S    
Cu2   O7    S    
C11   H13   S    
C2    O2    A    
C38   C43   S    
