data_mof_unit_18558.cif
_audit_creation_date              2012-12-11T14:45:54-0500
_audit_creation_method            fapswitch 2.2
_symmetry_space_group_name_H-M    P1
_symmetry_Int_Tables_number       1
_space_group_crystal_system       triclinic
_cell_length_a                    11.06571
_cell_length_b                    11.065271
_cell_length_c                    18.797515
_cell_angle_alpha                 90.061044
_cell_angle_beta                  89.352608
_cell_angle_gamma                 120.797716
_cell_volume                      1976.92733558

loop_
_atom_site_label
_atom_site_type_symbol
_atom_type_description
_atom_site_fract_x
_atom_site_fract_y
_atom_site_fract_z
_atom_type_partial_charge
C1    C     C_R   0.863561 0.638445 0.602727 0.575603
C2    C     C_R   0.425516 0.608629 0.774619 -0.110578
C3    C     C_R   0.397844 0.595689 0.702769 0.122787
C4    C     C_R   0.350003 0.679620 0.670484 0.043228
C5    C     C_R   0.872119 0.195065 0.830571 0.022403
C6    C     C_R   0.085717 0.182722 0.816114 0.186202
C7    C     C_R   0.167139 0.147159 0.774298 -0.090111
C8    C     C_R   0.132885 0.108797 0.703812 -0.068641
C9    C     C_R   0.018298 0.106467 0.673048 0.172983
C10   C     C_R   0.940225 0.153584 0.712675 -0.024407
C11   C     C_R   0.965239 0.175772 0.787194 -0.030415
C12   C     C_R   0.274762 0.634326 0.602588 0.580966
C13   C     C_R   0.754796 0.211499 0.726856 -0.051698
C14   C     C_R   0.790204 0.242820 0.799172 -0.029663
C15   C     C_R   0.631770 0.208311 0.704032 -0.093547
C16   C     C_R   0.558156 0.249227 0.748623 -0.108434
C17   C     C_R   0.605461 0.296963 0.816791 0.173966
C18   C     C_R   0.726223 0.301807 0.841359 0.190941
C19   C     C_R   0.840622 0.181169 0.681015 -0.006991
C20   C     C_R   0.878776 0.606183 0.729004 -0.107926
C21   C     C_R   0.863498 0.633808 0.799290 -0.075202
C22   C     C_R   0.790869 0.702644 0.816203 0.036225
C23   C     C_R   0.861189 0.231108 0.605256 0.574708
C24   C     C_R   0.747287 0.757731 0.761955 -0.152403
C25   C     C_R   0.763183 0.730961 0.691036 -0.071590
C26   C     C_R   0.826940 0.652980 0.674846 0.073359
C27   C     C_R   0.409484 0.632684 0.296872 0.098590
C28   C     C_R   0.398151 0.606334 0.224280 -0.045365
C29   C     C_R   0.354516 0.681689 0.179519 0.011079
C30   C     C_R   0.290913 0.750882 0.209977 0.095942
C31   C     C_R   0.273502 0.745914 0.283322 -0.152642
C32   C     C_R   0.330696 0.684456 0.326545 -0.001505
C33   C     C_R   0.716340 0.107492 0.296410 -0.137611
C34   C     C_R   0.874304 0.635303 0.394032 0.599836
C35   C     C_R   0.705722 0.112675 0.223628 -0.018102
C36   C     C_R   0.822660 0.138936 0.179556 -0.000258
C37   C     C_R   0.949749 0.172731 0.210872 -0.115978
C38   C     C_R   0.965551 0.187931 0.284653 -0.012812
C39   C     C_R   0.847290 0.161742 0.327293 -0.006859
C40   C     C_R   0.921293 0.792496 0.290560 0.136363
C41   C     C_R   0.886871 0.814980 0.224218 -0.085086
C42   C     C_R   0.792368 0.701985 0.183483 -0.037178
C43   C     C_R   0.729208 0.565264 0.209426 -0.104394
C44   C     C_R   0.746191 0.542005 0.279824 0.139066
C45   C     C_R   0.272143 0.636476 0.397129 0.582352
C46   C     C_R   0.842231 0.656946 0.322113 0.056170
C47   C     C_R   0.812407 0.108920 0.896793 0.570944
C48   C     C_R   0.455315 0.723328 0.889445 0.521814
C49   C     C_R   0.775437 0.731524 0.889938 0.524486
C50   C     C_R   0.801834 0.099995 0.104479 0.558998
C51   C     C_R   0.397912 0.702999 0.104774 0.580804
C52   C     C_R   0.775677 0.731074 0.111474 0.530902
C53   C     C_R   0.862577 0.226630 0.396902 0.555752
C54   C     C_R   0.354004 0.790156 0.710316 0.107167
C55   C     C_R   0.391689 0.807206 0.781454 -0.108539
C56   C     C_R   0.420695 0.712208 0.814509 -0.045457
Cr1   Cr    Cr6+3 0.791660 0.390250 0.499930 1.124835
Cr2   Cr    Cr6+3 0.098520 0.708290 0.500540 1.134211
Cr3   Cr    Cr6+3 0.109770 0.401430 0.499480 1.125164
Cr4   Cr    Cr6+3 0.874790 0.925890 0.000070 1.118943
Cr5   Cr    Cr6+3 0.574120 0.948670 0.999300 1.131371
Cr6   Cr    Cr6+3 0.551420 0.625320 0.000920 1.163361
H1    H     H_    0.462482 0.241336 0.730042 0.180857
H2    H     H_    0.582879 0.163388 0.654021 0.211570
H3    H     H_    0.935766 0.552932 0.716612 0.117478
H4    H     H_    0.912052 0.605476 0.840206 0.182060
H5    H     H_    0.702841 0.822606 0.774482 0.084185
H6    H     H_    0.727340 0.771828 0.649228 0.169273
H7    H     H_    0.393349 0.891869 0.811301 0.184593
H8    H     H_    0.208805 0.782836 0.306151 0.208882
H9    H     H_    0.625133 0.082135 0.329449 0.167334
H10   H     H_    0.036531 0.186991 0.177384 0.217030
H11   H     H_    0.943906 0.919952 0.201575 0.175343
H12   H     H_    0.663173 0.476726 0.175643 0.205216
H13   H     H_    0.456598 0.540309 0.798980 0.203768
H14   H     H_    0.257201 0.148688 0.796498 0.180840
H15   H     H_    0.197524 0.083718 0.671607 0.214435
O1    O     O_R   0.766500 0.250040 0.579790 -0.526880
O2    O     O_R   0.218690 0.701900 0.425960 -0.513077
O3    O     O_R   0.249490 0.516440 0.419420 -0.457765
O4    O     O_R   0.982880 0.281910 0.424890 -0.530621
O5    O     O_3   0.999980 0.499990 0.499980 -0.315018
O6    O     O_R   0.895110 0.806860 0.920430 -0.469230
O7    O     O_R   0.872260 0.046970 0.925000 -0.488362
O8    O     O_R   0.691430 0.085060 0.918550 -0.485418
O9    O     O_R   0.451490 0.822460 0.925250 -0.484729
O10   O     O_R   0.413330 0.603360 0.920440 -0.437862
O11   O     O_R   0.676110 0.626250 0.926750 -0.435214
O12   O     O_R   0.798570 0.516780 0.574780 -0.489147
O13   O     O_R   0.895350 0.809870 0.080950 -0.441349
O14   O     O_R   0.872490 0.049760 0.073800 -0.514070
O15   O     O_R   0.691680 0.088070 0.079070 -0.434710
O16   O     O_R   0.451720 0.825250 0.074050 -0.471812
O17   O     O_R   0.413580 0.606370 0.080960 -0.459281
O18   O     O_R   0.676340 0.629040 0.075550 -0.470275
O19   O     O_3   0.666780 0.833290 0.000090 -0.376498
O20   O     O_R   0.984000 0.732950 0.581090 -0.445595
O21   O     O_R   0.218600 0.700890 0.574760 -0.459203
O22   O     O_R   0.249390 0.515350 0.579940 -0.453822
O23   O     O_R   0.982790 0.280900 0.573700 -0.451759
O24   O     O_R   0.766600 0.251130 0.419260 -0.467588
O25   O     O_R   0.798660 0.517790 0.425980 -0.442307
O26   O     O_R   0.984100 0.734040 0.420570 -0.468307
Br1   Br    Br    0.305006 0.919282 0.673439 -0.565480
Br2   Br    Br    0.491707 0.333303 0.879204 -0.402843
Br3   Br    Br    0.516557 0.585248 0.358924 -0.458862
C57   C     C_2   0.405267 0.481275 0.201334 0.339301
H16   H     H_    0.466186 0.448749 0.230976 0.186074
O27   O     O_2   0.326277 0.399824 0.156551 -0.403780
Br4   Br    Br    0.207445 0.832916 0.153374 -0.381063
C58   C     C_2   0.572792 0.100564 0.199205 0.329552
H17   H     H_    0.474819 0.027361 0.225699 0.141887
O28   O     O_2   0.573378 0.183576 0.156230 -0.397928
C59   C     C_2   0.104177 0.225807 0.314918 0.320157
H18   H     H_    0.118347 0.215162 0.370787 0.194796
O29   O     O_2   0.204711 0.255978 0.276424 -0.437364
Br5   Br    Br    0.093305 0.947947 0.325959 -0.434569
Br6   Br    Br    0.626555 0.352483 0.313054 -0.407471
Br7   Br    Br    0.431376 0.461015 0.654543 -0.502966
Br8   Br    Br    0.159849 0.269468 0.906657 -0.345165
Br9   Br    Br    0.965301 0.015924 0.581417 -0.459500
Br10  Br    Br    0.800740 0.385128 0.933682 -0.355870

loop_
_geom_bond_atom_site_label_1
_geom_bond_atom_site_label_2
_ccdc_geom_bond_type
C55   C56   A    
Cr6   O19   S    
C21   H4    S    
Cr3   O22   S    
C41   C42   A    
C14   C18   A    
C52   O13   A    
C35   C36   A    
Cr2   O21   S    
Cr3   O5    S    
Cr2   O20   S    
C59   H18   S    
Cr5   O19   S    
C35   C58   S    
C7    C8    A    
C39   C53   S    
C40   C46   A    
Cr1   O25   S    
C5    C47   S    
C29   C30   A    
Cr1   O12   S    
C30   Br4   S    
C47   O8    A    
C54   Br1   S    
C28   C29   A    
C5    C11   A    
Cr2   O5    S    
C38   C39   A    
C38   C59   S    
Cr4   O6    S    
Cr5   O16   S    
C28   C57   S    
C15   C16   A    
C52   O18   A    
C53   O4    A    
C32   C45   S    
C12   O22   A    
C24   H5    S    
C33   C39   A    
C31   H8    S    
C58   H17   S    
C53   O24   A    
C8    C9    A    
C9    Br9   S    
C57   H16   S    
C34   C46   S    
C16   H1    S    
C4    C12   S    
C9    C10   A    
C7    H14   S    
C12   O21   A    
Cr5   O15   S    
C43   H12   S    
C40   Br5   S    
C13   C14   A    
Cr3   O23   S    
C57   O27   D    
C49   O11   A    
C25   H6    S    
C6    Br8   S    
C44   C46   A    
C1    C26   S    
C13   C19   A    
C20   H3    S    
C24   C25   A    
C58   O28   D    
C10   C11   A    
C1    O20   A    
C6    C11   A    
C16   C17   A    
C27   Br3   S    
C25   C26   A    
Cr6   O11   S    
C19   C23   S    
C43   C44   A    
C37   C38   A    
C17   Br2   S    
C31   C32   A    
C44   Br6   S    
C10   C19   A    
C15   H2    S    
C17   C18   A    
C48   O10   A    
C45   O2    A    
C34   O25   A    
C47   O7    A    
C5    C14   A    
C55   H7    S    
C3    Br7   S    
Cr2   O2    S    
C51   O16   A    
C22   C49   S    
Cr4   O19   S    
C50   O15   A    
C40   C41   A    
C18   Br10  S    
C13   C15   A    
C8    H15   S    
C22   C24   A    
C42   C43   A    
C3    C4    A    
C36   C50   S    
C29   C51   S    
Cr4   O14   S    
C48   C56   S    
C54   C55   A    
C36   C37   A    
C1    O12   A    
Cr6   O18   S    
C4    C54   A    
C27   C32   A    
Cr1   O1    S    
Cr3   O4    S    
Cr3   O3    S    
C59   O29   D    
C6    C7    A    
Cr4   O13   S    
Cr1   O24   S    
Cr6   O10   S    
C34   O26   A    
C23   O23   A    
C49   O6    A    
Cr6   O17   S    
Cr5   O8    S    
C2    C56   A    
Cr4   O7    S    
C30   C31   A    
C20   C26   A    
C33   C35   A    
C2    C3    A    
C45   O3    A    
C48   O9    A    
C23   O1    A    
Cr5   O9    S    
C33   H9    S    
C51   O17   A    
C41   H11   S    
C50   O14   A    
C20   C21   A    
C37   H10   S    
C27   C28   A    
Cr1   O5    S    
Cr2   O26   S    
C21   C22   A    
C2    H13   S    
C42   C52   S    
