data_mof_unit_38708.cif
_audit_creation_date              2012-10-26T19:52:59-0400
_audit_creation_method            fapswitch 2.2
_symmetry_space_group_name_H-M    P1
_symmetry_Int_Tables_number       1
_space_group_crystal_system       triclinic
_cell_length_a                    11.000755
_cell_length_b                    9.088196
_cell_length_c                    7.784522
_cell_angle_alpha                 90.000017
_cell_angle_beta                  89.999988
_cell_angle_gamma                 89.63802
_cell_volume                      778.257761008

loop_
_atom_site_label
_atom_site_type_symbol
_atom_type_description
_atom_site_fract_x
_atom_site_fract_y
_atom_site_fract_z
_atom_type_partial_charge
C1    C     C_R   0.500041 0.220020 0.499908 0.535996
C2    C     C_1   0.500021 0.934607 0.499555 -0.066405
C3    C     C_3   0.860263 0.748420 0.671864 -0.002360
C4    C     C_3   0.857347 0.857563 0.520943 -0.307252
C5    C     C_3   0.820139 0.011125 0.581708 -0.465355
C6    C     C_3   0.139737 0.251580 0.671866 -0.002359
C7    C     C_3   0.142657 0.142437 0.520945 -0.307252
C8    C     C_3   0.179865 0.988875 0.581713 -0.465354
C9    C     C_R   0.499959 0.779980 0.499908 0.535996
C10   C     C_R   0.265202 0.491810 0.499783 0.541016
C11   C     C_R   0.734798 0.508190 0.499783 0.541016
C12   C     C_2   0.934644 0.484423 0.368013 0.109140
C13   C     C_2   0.065356 0.515577 0.368013 0.109140
C14   C     C_2   0.865324 0.537038 0.497921 0.315742
C15   C     C_2   0.134676 0.462962 0.497921 0.315741
C16   C     C_1   0.499979 0.065393 0.499555 -0.066405
Cu1   Cu    Cu3+1 0.500000 0.500000 0.669080 1.014007
Cu2   Cu    Cu3+1 0.500000 0.500000 0.330920 1.027418
H1    H     H_    0.951985 0.374804 0.139375 0.244049
H2    H     H_    0.810265 0.085517 0.469490 0.146260
H3    H     H_    0.890035 0.056607 0.669411 0.156918
H4    H     H_    0.088194 0.200586 0.778954 0.156001
H5    H     H_    0.232513 0.269908 0.722915 0.163323
H6    H     H_    0.051615 0.137270 0.459697 0.168908
H7    H     H_    0.209019 0.180025 0.422957 0.153440
H8    H     H_    0.267771 0.993039 0.651315 0.161299
H9    H     H_    0.189742 0.914484 0.469495 0.146261
H10   H     H_    0.109967 0.943393 0.669413 0.156918
H11   H     H_    0.857078 0.298296 0.280442 0.213417
H12   H     H_    0.048016 0.625197 0.139375 0.244049
H13   H     H_    0.142921 0.701706 0.280443 0.213416
H14   H     H_    0.911805 0.799414 0.778953 0.156002
H15   H     H_    0.767487 0.730094 0.722910 0.163322
H16   H     H_    0.948390 0.862729 0.459698 0.168908
H17   H     H_    0.790986 0.819975 0.422953 0.153441
H18   H     H_    0.732231 0.006963 0.651307 0.161299
N1    N     N_1   0.500000 0.500000 0.076820 -0.067309
N2    N     N_1   0.500000 0.500000 0.923180 -0.076666
N3    N     N_3   0.884204 0.399247 0.229339 -0.615754
N4    N     N_3   0.115796 0.600755 0.229340 -0.615754
O1    O     O_R   0.500000 0.288390 0.642760 -0.508277
O2    O     O_3   0.078883 0.385012 0.630823 -0.553850
O3    O     O_R   0.500000 0.711610 0.642760 -0.508277
O4    O     O_R   0.500000 0.288370 0.357190 -0.497818
O5    O     O_R   0.500000 0.711630 0.357190 -0.497817
O6    O     O_R   0.321940 0.500000 0.642750 -0.501559
O7    O     O_R   0.678060 0.500000 0.642750 -0.501558
O8    O     O_R   0.321930 0.500000 0.357180 -0.495606
O9    O     O_R   0.678070 0.500000 0.357180 -0.495607
O10   O     O_3   0.921116 0.614987 0.630824 -0.553849

loop_
_geom_bond_atom_site_label_1
_geom_bond_atom_site_label_2
_ccdc_geom_bond_type
C10   O6    A    
Cu1   O3    S    
C9    O5    A    
C6    C7    S    
C11   O9    A    
Cu2   O4    S    
C8    H8    S    
C1    O4    A    
C11   O7    A    
C7    H7    S    
C10   C15   S    
C5    H18   S    
H11   N3    S    
C12   N3    S    
Cu1   Cu2   S    
C4    H17   S    
H12   N4    S    
C7    C8    S    
C1    C16   S    
Cu1   O6    S    
C14   O10   S    
H1    N3    S    
C6    H5    S    
C1    O1    A    
N1    N2    T    
C12   C14   D    
C4    H16   S    
Cu1   N2    S    
C13   C15   D    
C10   O8    A    
C3    H14   S    
C8    H10   S    
C11   C14   S    
Cu1   O1    S    
C9    O3    A    
C3    H15   S    
C3    C4    S    
C6    H4    S    
Cu2   O5    S    
C2    C16   T    
C12   C13   S    
Cu2   O9    S    
C7    H6    S    
C6    O2    S    
C5    H2    S    
C8    H9    S    
C13   N4    S    
H13   N4    S    
C2    C9    S    
C3    O10   S    
Cu1   O7    S    
C15   O2    S    
Cu2   N1    S    
C4    C5    S    
C5    H3    S    
Cu2   O8    S    
