data_mof_unit_22368.cif
_audit_creation_date              2012-12-11T20:37:32-0500
_audit_creation_method            fapswitch 2.2
_symmetry_space_group_name_H-M    P1
_symmetry_Int_Tables_number       1
_space_group_crystal_system       triclinic
_cell_length_a                    8.351966
_cell_length_b                    18.915546
_cell_length_c                    22.853821
_cell_angle_alpha                 98.117952
_cell_angle_beta                  89.876693
_cell_angle_gamma                 93.646246
_cell_volume                      3566.99260526

loop_
_atom_site_label
_atom_site_type_symbol
_atom_type_description
_atom_site_fract_x
_atom_site_fract_y
_atom_site_fract_z
_atom_type_partial_charge
Ba1   Ba    Ba6+2 0.849480 0.533290 0.473010 1.653237
Ba2   Ba    Ba6+2 0.340340 0.466770 0.527000 1.663070
C1    C     C_3   0.703140 0.797823 0.340583 -0.364610
C2    C     C_R   0.102856 0.560202 0.941246 -0.030098
C3    C     C_R   0.057337 0.558086 0.881188 0.607313
C4    C     C_3   0.119367 0.698512 0.318978 0.325392
C5    C     C_R   0.951387 0.436577 0.877817 0.575272
C6    C     C_R   0.997184 0.436796 0.937579 -0.020323
C7    C     C_R   0.072612 0.499118 0.969494 -0.051225
C8    C     C_R   0.177006 0.622287 0.973943 -0.067516
C9    C     C_R   0.219695 0.623768 0.033325 -0.072431
C10   C     C_R   0.190801 0.563060 0.062091 -0.019843
C11   C     C_R   0.117539 0.500437 0.029962 -0.050462
C12   C     C_3   0.684478 0.721290 0.354603 0.320203
C13   C     C_R   0.969107 0.375989 0.966264 -0.068947
C14   C     C_R   0.014891 0.377043 0.025321 -0.072970
C15   C     C_R   0.089210 0.439130 0.058031 -0.026455
C16   C     C_3   0.055941 0.718110 0.260971 -0.354951
C17   C     C_R   0.136548 0.441025 0.117929 0.591968
C18   C     C_R   0.233257 0.563906 0.122233 0.578357
C19   C     C_2   0.777167 0.479568 0.771178 -0.062428
C20   C     C_3   0.726174 0.483263 0.707913 -0.004421
C21   C     C_1   0.005245 0.513076 0.685696 0.027518
C22   C     C_2   0.051518 0.514902 0.741869 -0.114123
C23   C     C_3   0.461832 0.330007 0.341488 0.344089
C24   C     C_2   0.932629 0.496173 0.788241 0.191311
C25   C     C_R   0.408893 0.533088 0.231933 -0.108855
C26   C     C_R   0.451445 0.539551 0.291978 -0.004205
C27   C     C_R   0.192452 0.484378 0.314193 0.019592
C28   C     C_3   0.203702 0.685834 0.606098 0.301913
C29   C     C_R   0.147158 0.479671 0.254101 -0.098986
C30   C     C_R   0.254159 0.505023 0.212071 0.207833
C31   C     C_2   0.868273 0.479140 0.666770 -0.319034
C32   C     C_2   0.405612 0.704849 0.482110 -0.292981
C33   C     C_3   0.275912 0.755824 0.479414 0.005942
C34   C     C_3   0.358023 0.270276 0.304952 -0.307702
C35   C     C_2   0.346606 0.827943 0.468329 -0.147101
C36   C     C_2   0.492843 0.851007 0.492003 -0.067825
C37   C     C_2   0.582655 0.799557 0.523177 0.002851
C38   C     C_1   0.534457 0.729440 0.513987 0.079453
C39   C     C_R   0.658873 0.067541 0.501760 0.458143
C40   C     C_3   0.234243 0.765061 0.629319 -0.384386
C41   C     C_R   0.553811 0.926917 0.491673 0.448817
C42   C     C_R   0.616189 0.193096 0.486437 -0.141482
C43   C     C_R   0.664571 0.265752 0.491974 0.020020
C44   C     C_R   0.907585 0.244027 0.542217 0.074112
C45   C     C_3   0.092913 0.316434 0.688938 0.279248
C46   C     C_R   0.861168 0.170547 0.536056 -0.161382
C47   C     C_R   0.713199 0.144584 0.508602 -0.069684
C48   C     C_R   0.806889 0.291178 0.521357 -0.194299
C49   C     C_3   0.965808 0.312888 0.388960 0.656094
C50   C     C_3   0.896630 0.240906 0.356608 -0.366995
C51   C     C_3   0.710339 0.631183 0.651274 0.297617
C52   C     C_3   0.726277 0.656981 0.717612 0.175102
C53   C     C_3   0.556395 0.373341 0.300029 -0.370265
C54   C     C_3   0.912700 0.310536 0.696825 -0.314757
C55   C     C_3   0.300786 0.697606 0.315750 -0.323822
C56   C     C_3   0.172832 0.309738 0.747892 -0.287801
C57   C     C_3   0.683206 0.829349 0.577351 -0.339343
C58   C     C_3   0.530027 0.281773 0.648258 0.415421
C59   C     C_3   0.529255 0.205065 0.662372 0.237417
C60   C     C_R   0.342711 0.515756 0.332486 -0.289870
H1    H     H_    0.791064 0.710211 0.379000 0.127516
H2    H     H_    0.638318 0.579346 0.643290 0.048518
H3    H     H_    0.697596 0.835825 0.382141 0.098208
H4    H     H_    0.774377 0.713838 0.725491 0.069947
H5    H     H_    0.813288 0.625478 0.737589 0.055543
H6    H     H_    0.579336 0.717397 0.383609 -0.010410
H7    H     H_    0.606136 0.808058 0.310412 0.118409
H8    H     H_    0.382603 0.366235 0.368924 0.056415
H9    H     H_    0.290695 0.237793 0.334712 0.092872
H10   H     H_    0.271521 0.292865 0.276925 0.113235
H11   H     H_    0.434321 0.234379 0.275845 0.114743
H12   H     H_    0.313342 0.771750 0.668990 0.133030
H13   H     H_    0.820168 0.808292 0.319585 0.142761
H14   H     H_    0.093038 0.679634 0.222980 0.135999
H15   H     H_    0.131150 0.370110 0.677810 0.091033
H16   H     H_    0.304415 0.314973 0.744126 0.189770
H17   H     H_    0.138597 0.353309 0.782492 0.103480
H18   H     H_    0.137410 0.257254 0.762233 0.141543
H19   H     H_    0.619693 0.286955 0.613407 -0.127859
H20   H     H_    0.412444 0.290466 0.630088 0.088461
H21   H     H_    0.652481 0.191765 0.672149 0.065501
H22   H     H_    0.487747 0.167266 0.622583 -0.006671
H23   H     H_    0.293613 0.794077 0.595666 0.062824
H24   H     H_    0.065227 0.644290 0.323410 0.081637
H25   H     H_    0.991138 0.328914 0.045395 0.125237
H26   H     H_    0.911725 0.327085 0.943034 0.129038
H27   H     H_    0.275974 0.672852 0.056671 0.125342
H28   H     H_    0.494903 0.551586 0.201076 0.118052
H29   H     H_    0.201903 0.670249 0.953744 0.129091
H30   H     H_    0.175712 0.529256 0.754488 0.144350
H31   H     H_    0.686763 0.468363 0.803392 0.111899
H32   H     H_    0.029312 0.456316 0.240252 0.123044
H33   H     H_    0.377355 0.519890 0.378494 0.083679
H34   H     H_    0.118752 0.789150 0.641448 0.121049
H35   H     H_    0.856631 0.450721 0.622103 0.076459
H36   H     H_    0.274056 0.862872 0.447189 0.117209
H37   H     H_    0.506227 0.174203 0.462606 0.103635
H38   H     H_    0.939519 0.134236 0.552490 0.102732
H39   H     H_    0.400070 0.652958 0.454715 0.065177
H40   H     H_    0.843870 0.347504 0.524881 0.073537
H41   H     H_    0.923617 0.715160 0.260455 0.148602
H42   H     H_    0.101337 0.773032 0.254734 0.129921
H43   H     H_    0.319299 0.663050 0.593114 0.026254
H44   H     H_    0.121342 0.679580 0.567371 0.042838
H45   H     H_    0.865033 0.344737 0.405937 0.038743
H46   H     H_    0.136918 0.265356 0.421830 0.301410
H47   H     H_    0.513085 0.688173 0.735764 0.325905
H48   H     H_    0.616872 0.421169 0.326279 0.128925
H49   H     H_    0.648644 0.341042 0.275866 0.126022
H50   H     H_    0.475394 0.390869 0.267201 0.066873
H51   H     H_    0.855059 0.323647 0.656688 0.036372
H52   H     H_    0.873841 0.255597 0.704562 0.130716
H53   H     H_    0.876081 0.348533 0.734968 0.149531
H54   H     H_    0.326249 0.175658 0.695704 0.322583
H55   H     H_    0.354739 0.753240 0.322451 0.118714
H56   H     H_    0.819859 0.249721 0.319066 0.123474
H57   H     H_    0.342483 0.668440 0.350868 0.029777
H58   H     H_    0.339903 0.670537 0.272400 0.137358
H59   H     H_    0.808755 0.813962 0.571200 0.146630
H60   H     H_    0.684118 0.888244 0.587738 0.120500
H61   H     H_    0.631872 0.809474 0.617143 0.113203
H62   H     H_    0.824488 0.211404 0.387188 0.086618
H63   H     H_    0.994404 0.207278 0.338504 0.090079
H64   H     H_    0.831536 0.625150 0.632695 -0.017845
N1    N     N_R   0.982195 0.496718 0.849888 -0.425903
N2    N     N_R   0.206521 0.503265 0.149983 -0.422392
N3    N     N_R   0.501045 0.046994 0.492463 -0.242187
N4    N     N_R   0.449584 0.978318 0.487738 -0.240016
N5    N     N_R   0.712495 0.947226 0.499272 -0.238856
N6    N     N_R   0.763968 0.016111 0.504481 -0.238894
O1    O     O_2   0.898140 0.461210 0.359840 -0.477903
O2    O     O_2   0.239839 0.247321 0.536085 -0.477545
O3    O     O_3   0.138747 0.260930 0.645407 -0.626123
O4    O     O_3   0.138540 0.461940 0.430900 -0.449894
O5    O     O_3   0.557600 0.585010 0.531050 -0.478729
O6    O     O_2   0.379790 0.327560 0.468300 -0.428618
O7    O     O_3   0.571751 0.297937 0.374306 -0.661718
O8    O     O_2   0.394042 0.444047 0.704774 -0.500815
O9    O     O_3   0.567008 0.332460 0.698525 -0.606526
O10   O     O_2   0.082430 0.611403 0.857109 -0.580434
O11   O     O_2   0.884700 0.382519 0.850613 -0.601939
O12   O     O_3   0.633994 0.682541 0.625652 -0.663803
O13   O     O_2   0.117527 0.386759 0.141132 -0.599289
O14   O     O_2   0.293216 0.619142 0.149952 -0.616331
O15   O     O_3   0.654260 0.589640 0.397760 -0.494679
O16   O     O_2   0.789897 0.547135 0.293681 -0.492890
O17   O     O_3   0.057820 0.347182 0.348913 -0.659837
O18   O     O_3   0.666131 0.672325 0.302341 -0.614310
O19   O     O_2   0.809910 0.672460 0.531740 -0.463409
O20   O     O_3   0.065030 0.625960 0.427320 -0.492964
O21   O     O_2   0.949272 0.750465 0.468171 -0.485605
O22   O     O_3   0.062233 0.302465 0.436562 -0.725523
O23   O     O_3   0.076934 0.750430 0.365982 -0.603876
O24   O     O_3   0.577768 0.649080 0.745480 -0.705193
O25   O     O_3   0.432623 0.196089 0.711309 -0.695250
O26   O     O_2   0.291560 0.538810 0.640200 -0.447365
O27   O     O_3   0.051160 0.538120 0.569110 -0.488655
O28   O     O_3   0.535440 0.410410 0.602240 -0.486111
O29   O     O_3   0.133815 0.652637 0.651487 -0.631771
O30   O     O_3   0.632100 0.415050 0.468960 -0.471883
O31   O     O_3   0.124670 0.374100 0.572690 -0.462387
P1    P     P_3+3 0.069200 0.440380 0.368230 1.014618
P2    P     P_3+3 0.634560 0.662100 0.548650 0.979339
P3    P     P_3+3 0.095599 0.719462 0.434648 0.932734
P4    P     P_3+3 0.120500 0.559680 0.631780 1.004579
P5    P     P_3+3 0.102999 0.281250 0.573845 0.979049
P6    P     P_3+3 0.642658 0.585161 0.320776 0.938790
P7    P     P_3+3 0.561173 0.325513 0.450708 0.947841
P8    P     P_3+3 0.555704 0.418859 0.679080 0.957709

loop_
_geom_bond_atom_site_label_1
_geom_bond_atom_site_label_2
_ccdc_geom_bond_type
C42   C47   A    
C57   H59   S    
C19   C24   D    
C49   O22   S    
O21   P3    D    
O6    P7    D    
C4    C55   S    
C43   P7    S    
Ba2   O30   S    
O5    P2    S    
C5    C6    A    
C51   C52   S    
C17   O13   D    
C44   P5    S    
C10   C18   A    
C25   H28   S    
C40   H34   S    
C1    H7    S    
C22   C24   S    
C32   C33   S    
C52   O24   S    
C36   C37   S    
C53   H50   S    
C42   H37   S    
Ba1   O1    S    
O18   P6    S    
O23   P3    S    
C34   H10   S    
C13   C14   A    
C17   N2    Am   
O9    P8    S    
C33   P3    S    
O8    P8    D    
O7    P7    S    
Ba1   Ba2   S    
H47   O24   S    
C7    C11   A    
C15   C17   A    
C58   H20   S    
C53   H48   S    
C54   H53   S    
Ba1   P1    S    
C14   C15   A    
C21   C31   D    
C14   H25   S    
C54   H51   S    
Ba1   O4    S    
C1    H13   S    
C31   H35   S    
C20   P8    S    
C34   H9    S    
C56   H18   S    
C55   H57   S    
C45   O3    S    
C57   H60   S    
C60   H33   S    
C28   H44   S    
C27   P1    S    
C12   O18   S    
C1    H3    S    
C4    C16   S    
C22   H30   S    
C39   C47   S    
C35   H36   S    
O26   P4    D    
C57   H61   S    
C46   H38   S    
C44   C46   A    
C40   H12   S    
C32   H39   S    
C49   C50   S    
Ba2   O6    S    
C23   C53   S    
Ba1   O27   S    
C59   H21   S    
C37   C38   D    
C40   H23   S    
Ba2   O27   S    
C52   H5    S    
O19   P2    D    
Ba2   O4    S    
C58   C59   S    
C35   C36   D    
C59   O25   S    
C58   O9    S    
C58   H19   S    
C9    H27   S    
C29   C30   A    
O30   P7    S    
Ba1   P2    S    
Ba2   O26   S    
C37   C57   S    
Ba1   O20   S    
C3    N1    Am   
O16   P6    D    
C6    C7    A    
C51   H64   S    
O17   P1    S    
C16   H42   S    
C45   C54   S    
C23   O7    S    
C38   P2    S    
O29   P4    S    
C1    C12   S    
C56   H17   S    
C55   H58   S    
C21   P4    S    
C49   H45   S    
C46   C47   A    
C8    H29   S    
C48   H40   S    
O3    P5    S    
C8    C9    A    
C28   H43   S    
C18   O14   D    
Ba1   O15   S    
C45   H15   S    
C2    C8    A    
N5    N6    A    
O1    P1    D    
Ba1   O5    S    
C42   C43   A    
C33   C35   S    
C55   H55   S    
N3    N4    A    
O4    P1    S    
C20   C31   S    
C27   C60   A    
C16   H14   S    
C21   C22   D    
C53   H49   S    
C25   C30   A    
Ba2   O5    S    
C41   N4    A    
C28   C40   S    
C5    O11   D    
C4    O23   S    
C2    C3    A    
C59   H22   S    
C24   N1    S    
Ba2   O31   S    
Ba1   O30   S    
C39   N6    A    
O20   P3    S    
C50   H63   S    
C18   N2    Am   
C52   H4    S    
C6    C13   A    
C29   H32   S    
C44   C48   A    
C4    H24   S    
C11   C15   A    
O12   P2    S    
C51   O12   S    
C30   N2    S    
C41   N5    A    
O31   P5    S    
C36   C41   S    
C27   C29   A    
C45   C56   S    
C39   N3    A    
C50   H62   S    
C3    O10   D    
C19   H31   S    
C43   C48   A    
C12   H1    S    
C51   H2    S    
O28   P8    S    
O27   P4    S    
Ba1   O19   S    
O2    P5    D    
C16   H41   S    
C34   H11   S    
C56   H16   S    
C23   C34   S    
C54   H52   S    
C26   P6    S    
H54   O25   S    
H46   O22   S    
C10   C11   A    
C49   O17   S    
Ba2   O28   S    
C25   C26   A    
C12   H6    S    
C32   C38   D    
C23   H8    S    
C28   O29   S    
C5    N1    Am   
C2    C7    A    
C19   C20   S    
Ba2   P4    S    
O15   P6    S    
C9    C10   A    
C50   H56   S    
C13   H26   S    
C26   C60   A    
