data_mof_unit_51945.cif
_audit_creation_date              2012-12-10T20:41:52-0500
_audit_creation_method            fapswitch 2.2
_symmetry_space_group_name_H-M    P1
_symmetry_Int_Tables_number       1
_space_group_crystal_system       triclinic
_cell_length_a                    14.788564
_cell_length_b                    15.35025
_cell_length_c                    9.937089
_cell_angle_alpha                 88.290891
_cell_angle_beta                  88.995045
_cell_angle_gamma                 89.354758
_cell_volume                      2254.31973187

loop_
_atom_site_label
_atom_site_type_symbol
_atom_type_description
_atom_site_fract_x
_atom_site_fract_y
_atom_site_fract_z
_atom_type_partial_charge
C1    C     C_R   0.385156 0.874878 0.501844 0.981691
C2    C     C_R   0.923863 0.479834 0.072478 0.102995
C3    C     C_R   0.569697 0.964540 0.072359 -0.123932
C4    C     C_R   0.077206 0.512225 0.070572 -0.082419
C5    C     C_R   0.571628 0.967040 0.929296 0.413490
C6    C     C_R   0.078178 0.511386 0.927674 0.420321
C7    C     C_R   0.436159 0.046093 0.928335 0.070859
C8    C     C_R   0.924548 0.477179 0.931494 -0.036970
C9    C     C_3   0.337630 0.029148 0.929953 0.583310
C10   C     C_3   0.833345 0.519722 0.926654 0.605958
C11   C     C_3   0.333657 0.043111 0.083642 0.734838
C12   C     C_R   0.387805 0.126495 0.499285 0.953244
C13   C     C_3   0.830860 0.519011 0.083560 0.747058
C14   C     C_R   0.624035 0.115864 0.498226 0.858862
C15   C     C_R   0.621919 0.883162 0.499935 0.874696
C16   C     C_R   0.124570 0.615003 0.497568 0.906067
C17   C     C_R   0.126205 0.385993 0.499647 0.915108
C18   C     C_R   0.309479 0.240383 0.622134 0.019377
C19   C     C_R   0.293782 0.762047 0.622696 -0.074379
C20   C     C_R   0.724669 0.669247 0.486953 -0.162072
C21   C     C_R   0.787072 0.273977 0.620710 -0.027052
C22   C     C_R   0.340502 0.208749 0.499256 -0.247116
C23   C     C_R   0.886161 0.375076 0.501363 0.909543
C24   C     C_R   0.336635 0.792982 0.504705 -0.235836
C25   C     C_R   0.815798 0.687519 0.501846 -0.275251
C26   C     C_R   0.832874 0.297850 0.502310 -0.323212
C27   C     C_R   0.328701 0.258821 0.380298 0.334801
C28   C     C_R   0.330805 0.742227 0.387348 0.306695
C29   C     C_R   0.846503 0.774699 0.501516 0.434165
C30   C     C_R   0.820090 0.251536 0.382694 0.446029
C31   C     C_R   0.782635 0.842001 0.499948 0.415657
C32   C     C_R   0.752676 0.189843 0.379414 0.390910
C33   C     C_R   0.257852 0.321051 0.377636 0.298992
C34   C     C_R   0.877655 0.617352 0.500431 0.936616
C35   C     C_R   0.264111 0.676011 0.384606 0.313186
C36   C     C_R   0.690208 0.820090 0.497445 -0.217350
C37   C     C_R   0.699530 0.173283 0.496515 -0.268438
C38   C     C_R   0.208497 0.335199 0.498436 -0.156505
C39   C     C_R   0.203900 0.667356 0.495347 -0.141867
C40   C     C_R   0.662636 0.735690 0.480259 -0.092725
C41   C     C_R   0.721008 0.211381 0.617387 -0.045496
C42   C     C_R   0.241676 0.303890 0.621308 -0.109742
C43   C     C_R   0.225957 0.703646 0.614568 -0.058324
C44   C     C_3   0.589082 0.687397 0.553838 -0.546934
C45   C     C_3   0.365285 0.294091 0.714394 0.848642
C46   C     C_3   0.753531 0.163374 0.740996 -0.420654
C47   C     C_3   0.289110 0.360263 0.717348 -0.465122
C48   C     C_3   0.166440 0.740280 0.720276 -0.464295
C49   C     C_3   0.209640 0.133055 0.157822 0.126834
C50   C     C_3   0.147794 0.154033 0.038573 -0.438303
C51   C     C_3   0.055363 0.187513 0.085712 -0.814157
C52   C     C_3   0.232211 0.924977 0.134458 0.051623
C53   C     C_3   0.171749 0.897977 0.255428 -0.357814
C54   C     C_3   0.107104 0.825716 0.219249 -0.844635
C55   C     C_3   0.752047 0.641137 0.171620 0.102786
C56   C     C_3   0.242399 0.802926 0.737922 0.892486
C57   C     C_3   0.700725 0.680004 0.050747 -0.419248
C58   C     C_3   0.612716 0.723825 0.096665 -0.866847
C59   C     C_3   0.692620 0.439806 0.119330 0.113247
C60   C     C_3   0.637745 0.398501 0.236432 -0.346550
C61   C     C_3   0.537029 0.419589 0.225869 -0.870874
C62   C     C_3   0.658924 0.614073 0.569248 0.924668
C63   C     C_3   0.827204 0.230716 0.744623 0.841351
C64   C     C_R   0.435784 0.046955 0.070471 0.071598
H1    H     H_    0.568140 0.718095 0.649673 0.197308
H2    H     H_    0.139315 0.522889 0.123277 0.233131
H3    H     H_    0.386085 0.297450 0.211127 0.348381
H4    H     H_    0.355011 0.744844 0.193926 0.343466
H5    H     H_    0.975478 0.744325 0.510620 0.305022
H6    H     H_    0.937531 0.269238 0.300458 0.325824
H7    H     H_    0.202930 0.187346 0.227654 0.163400
H8    H     H_    0.185734 0.076956 0.218784 0.141847
H9    H     H_    0.179070 0.204904 0.971589 0.254905
H10   H     H_    0.137422 0.094624 0.980420 0.226887
H11   H     H_    0.022763 0.139021 0.155602 0.273084
H12   H     H_    0.778857 0.096550 0.719715 0.213167
H13   H     H_    0.011206 0.198899 0.997514 0.309792
H14   H     H_    0.062748 0.250172 0.137370 0.260564
H15   H     H_    0.258731 0.864123 0.090667 0.233655
H16   H     H_    0.189647 0.959952 0.058774 0.136289
H17   H     H_    0.213922 0.874937 0.340278 0.245813
H18   H     H_    0.130734 0.953858 0.290953 0.219804
H19   H     H_    0.061325 0.848981 0.138026 0.266292
H20   H     H_    0.065675 0.806357 0.309073 0.286048
H21   H     H_    0.145337 0.767513 0.185083 0.282965
H22   H     H_    0.767164 0.697083 0.234835 0.186697
H23   H     H_    0.307389 0.425067 0.672140 0.218855
H24   H     H_    0.709397 0.596310 0.234124 0.159083
H25   H     H_    0.743593 0.729171 0.996622 0.271158
H26   H     H_    0.683459 0.628698 0.980118 0.266079
H27   H     H_    0.567256 0.675097 0.146563 0.263986
H28   H     H_    0.577797 0.753471 0.008190 0.276640
H29   H     H_    0.626785 0.775821 0.168489 0.276684
H30   H     H_    0.696112 0.390405 0.040460 0.210793
H31   H     H_    0.657855 0.499083 0.079236 0.150676
H32   H     H_    0.647485 0.326572 0.237617 0.243768
H33   H     H_    0.662606 0.421242 0.333697 0.272226
H34   H     H_    0.155572 0.694113 0.807186 0.251498
H35   H     H_    0.525190 0.491170 0.226528 0.248907
H36   H     H_    0.500276 0.389402 0.313443 0.295010
H37   H     H_    0.510290 0.393734 0.131422 0.278730
H38   H     H_    0.761709 0.968273 0.503431 0.294019
H39   H     H_    0.738092 0.081533 0.289677 0.338629
H40   H     H_    0.249706 0.331456 0.181941 0.335169
H41   H     H_    0.315482 0.613574 0.234285 0.345923
H42   H     H_    0.487709 0.278720 0.646087 0.347261
H43   H     H_    0.345661 0.769724 0.851239 0.327032
H44   H     H_    0.698553 0.655401 0.742186 0.339414
H45   H     H_    0.532124 0.673148 0.486599 0.200429
H46   H     H_    0.956578 0.243856 0.720773 0.346411
H47   H     H_    0.327397 0.246770 0.892656 0.350528
H48   H     H_    0.170407 0.904608 0.781089 0.345054
H49   H     H_    0.611631 0.552181 0.417238 0.296758
H50   H     H_    0.760206 0.301835 0.873304 0.338853
H51   H     H_    0.659968 0.980387 0.789251 0.364827
H52   H     H_    0.156643 0.497995 0.774185 0.379516
H53   H     H_    0.240759 0.061892 0.806962 0.367494
H54   H     H_    0.366511 0.905233 0.939260 0.316644
H55   H     H_    0.888159 0.635992 0.901344 0.332116
H56   H     H_    0.703292 0.166206 0.825380 0.188505
H57   H     H_    0.785993 0.466413 0.769327 0.412329
H58   H     H_    0.251737 0.363691 0.815088 0.184318
H59   H     H_    0.103971 0.770948 0.678673 0.190966
H60   H     H_    0.626240 0.936274 0.126336 0.178183
N1    N     N_R   0.499140 0.000000 0.142800 -0.133805
N2    N     N_R   0.999140 0.500000 0.142800 -0.143919
N3    N     N_R   0.499160 0.000000 0.857150 -0.169275
N4    N     N_R   0.999160 0.500000 0.857150 -0.168378
O1    O     O_R   0.408400 0.908380 0.614690 -0.574318
O2    O     O_R   0.591610 0.908390 0.614650 -0.617816
O3    O     O_R   0.091610 0.591610 0.614650 -0.642337
O4    O     O_R   0.091610 0.408390 0.614650 -0.658866
O5    O     O_R   0.591590 0.091600 0.385310 -0.598917
O6    O     O_R   0.591590 0.908400 0.385310 -0.637478
O7    O     O_R   0.091590 0.591600 0.385310 -0.574898
O8    O     O_R   0.091590 0.408400 0.385310 -0.573384
O9    O     O_3   0.386209 0.245215 0.271667 -0.703258
O10   O     O_3   0.385490 0.762168 0.276683 -0.749567
O11   O     O_3   0.936682 0.797120 0.507734 -0.723826
O12   O     O_R   0.408400 0.091620 0.614690 -0.571731
O13   O     O_3   0.874798 0.261803 0.269635 -0.669022
O14   O     O_3   0.302097 0.127707 0.118486 -0.600840
O15   O     O_3   0.307155 0.974153 0.176113 -0.644137
O16   O     O_3   0.836808 0.603506 0.137294 -0.660152
O17   O     O_3   0.780318 0.457589 0.164499 -0.631110
O18   O     O_3   0.813243 0.926692 0.505525 -0.706805
O19   O     O_3   0.744434 0.143938 0.263136 -0.688051
O20   O     O_3   0.234692 0.366838 0.261028 -0.746279
O21   O     O_3   0.255207 0.621992 0.277168 -0.752691
O22   O     O_3   0.443755 0.327900 0.651609 -0.733864
O23   O     O_R   0.908400 0.408380 0.614690 -0.619134
O24   O     O_3   0.281359 0.787298 0.864650 -0.784210
O25   O     O_3   0.684706 0.598412 0.702975 -0.681857
O26   O     O_3   0.913616 0.194631 0.721997 -0.750067
O27   O     O_3   0.384336 0.252611 0.839301 -0.721213
O28   O     O_3   0.216611 0.889910 0.711443 -0.727632
O29   O     O_3   0.635325 0.536624 0.507693 -0.729425
O30   O     O_3   0.823729 0.282213 0.859478 -0.723296
O31   O     O_3   0.649343 0.939161 0.866093 -0.745360
O32   O     O_3   0.160554 0.522363 0.864047 -0.776572
O33   O     O_3   0.290772 0.091610 0.851648 -0.753988
O34   O     O_R   0.908400 0.591620 0.614690 -0.568890
O35   O     O_3   0.322946 0.944204 0.890811 -0.747738
O36   O     O_3   0.836175 0.603874 0.865841 -0.746761
O37   O     O_3   0.769647 0.467555 0.866389 -0.764206
O38   O     O_R   0.408370 0.908370 0.385350 -0.518201
O39   O     O_R   0.408370 0.091630 0.385350 -0.526364
O40   O     O_R   0.908370 0.408370 0.385350 -0.565746
O41   O     O_R   0.908370 0.591630 0.385350 -0.573154
O42   O     O_R   0.591610 0.091610 0.614650 -0.640915
Zn1   Zn    Zn3+2 0.500010 0.000000 0.653130 1.008425
Zn2   Zn    Zn3+2 0.000010 0.500000 0.653130 0.971231
Zn3   Zn    Zn3+2 0.499980 0.000000 0.346870 1.046429
Zn4   Zn    Zn3+2 0.999980 0.500000 0.346870 1.040979

loop_
_geom_bond_atom_site_label_1
_geom_bond_atom_site_label_2
_ccdc_geom_bond_type
C19   C56   S    
H5    O11   S    
C30   C32   A    
C21   C26   A    
H42   O22   S    
O6    Zn3   S    
H6    O13   S    
H40   O20   S    
H4    O10   S    
C13   O17   S    
C14   O42   A    
C49   H7    S    
N1    Zn3   S    
C60   H32   S    
C48   H59   S    
C46   H12   S    
H39   O19   S    
C15   O6    A    
C7    N3    A    
C53   C54   S    
C27   C33   A    
O40   Zn4   S    
C27   O9    S    
C30   O13   S    
C57   H25   S    
C58   H29   S    
C51   H11   S    
H52   O32   S    
C1    O1    A    
C18   C42   A    
C20   C40   A    
C13   O16   S    
C20   C25   A    
N3    Zn1   S    
H54   O35   S    
C12   C22   S    
C53   H17   S    
C45   O22   S    
C23   C26   S    
C55   H24   S    
C9    O35   S    
C16   O3    A    
H50   O30   S    
C31   O18   S    
C8    N4    A    
H44   O25   S    
C28   C35   A    
C5    O31   S    
C49   H8    S    
O41   Zn4   S    
C12   O12   A    
C45   O27   S    
C59   H30   S    
C56   O24   S    
C52   H15   S    
C58   H27   S    
N2    Zn4   S    
C56   O28   S    
C25   C34   S    
O39   Zn3   S    
C44   H45   S    
C59   C60   S    
C17   O4    A    
C20   C62   S    
C5    N3    A    
C44   H1    S    
C61   H35   S    
C59   H31   S    
C12   O39   A    
C54   H20   S    
C54   H19   S    
C19   C43   A    
H41   O21   S    
C45   C47   S    
C25   C29   A    
C29   O11   S    
O8    Zn4   S    
O3    Zn2   S    
C52   O15   S    
C57   H26   S    
O7    Zn4   S    
C3    C5    A    
C36   C40   A    
C28   O10   S    
C4    C6    A    
C60   H33   S    
C50   H9    S    
C32   O19   S    
C47   H58   S    
C39   C43   A    
C44   C62   S    
N4    Zn2   S    
O23   Zn2   S    
H51   O31   S    
C53   H18   S    
C47   H23   S    
C35   C39   A    
C51   H13   S    
H46   O26   S    
C33   O20   S    
C9    C11   S    
O2    Zn1   S    
C41   C46   S    
O4    Zn2   S    
C49   O14   S    
C61   H37   S    
C17   O8    A    
C50   C51   S    
C62   O29   S    
C46   H56   S    
C32   C37   A    
C9    O33   S    
C2    C13   S    
C58   H28   S    
C34   O41   A    
C21   C41   A    
H43   O24   S    
C2    N2    A    
C11   C64   S    
O12   Zn1   S    
C22   C27   A    
C55   C57   S    
H48   O28   S    
C49   C50   S    
C61   H36   S    
C18   C45   S    
C59   O17   S    
C15   C36   S    
C48   H34   S    
C3    H60   S    
C43   C48   S    
C7    C9    S    
C23   O23   A    
O38   Zn3   S    
C10   O36   S    
C55   O16   S    
C18   C22   A    
O1    Zn1   S    
C2    C8    A    
C24   C28   A    
C63   O26   S    
C34   O34   A    
C10   C13   S    
H55   O36   S    
C54   H21   S    
C6    O32   S    
C3    N1    A    
C26   C30   A    
C14   O5    A    
C48   C56   S    
H57   O37   S    
C33   C38   A    
C62   O25   S    
C4    N2    A    
C46   C63   S    
H53   O33   S    
C55   H22   S    
C50   H10   S    
C19   C24   A    
C51   H14   S    
C6    N4    A    
C29   C31   A    
H38   O18   S    
C14   C37   S    
C4    H2    S    
C57   C58   S    
C15   O2    A    
H47   O27   S    
C1    O38   A    
C10   O37   S    
C17   C38   S    
C37   C41   A    
H3    O9    S    
C11   O14   S    
C7    C64   A    
C21   C63   S    
C11   O15   S    
C16   C39   S    
C23   O40   A    
C38   C42   A    
C40   C44   S    
C42   C47   S    
O34   Zn2   S    
C1    C24   S    
C8    C10   S    
C64   N1    A    
O42   Zn1   S    
C31   C36   A    
C60   C61   S    
C35   O21   S    
C63   O30   S    
H49   O29   S    
C52   H16   S    
C16   O7    A    
O5    Zn3   S    
C52   C53   S    
