data_mof_unit_20250.cif
_audit_creation_date              2012-12-10T17:39:22-0500
_audit_creation_method            fapswitch 2.2
_symmetry_space_group_name_H-M    P1
_symmetry_Int_Tables_number       1
_space_group_crystal_system       triclinic
_cell_length_a                    12.317109
_cell_length_b                    13.164692
_cell_length_c                    27.75734
_cell_angle_alpha                 77.598527
_cell_angle_beta                  101.314325
_cell_angle_gamma                 116.823006
_cell_volume                      3897.35042673

loop_
_atom_site_label
_atom_site_type_symbol
_atom_type_description
_atom_site_fract_x
_atom_site_fract_y
_atom_site_fract_z
_atom_type_partial_charge
C1    C     C_R   0.854657 0.286280 0.504826 0.791991
C2    C     C_R   0.893080 0.491367 0.712471 0.434914
C3    C     C_R   0.996456 0.498500 0.746283 0.277436
C4    C     C_R   0.999336 0.492773 0.898819 -0.053641
C5    C     C_R   0.969997 0.390975 0.880407 -0.058688
C6    C     C_R   0.944591 0.288278 0.913164 -0.240288
C7    C     C_R   0.025875 0.596376 0.865848 -0.083547
C8    C     C_R   0.999210 0.501193 0.645239 -0.110258
C9    C     C_R   0.000460 0.497479 0.354414 -0.185714
C10   C     C_R   0.952169 0.385775 0.032376 0.093502
C11   C     C_R   0.068775 0.595915 0.020911 -0.060705
C12   C     C_R   0.999961 0.500553 0.592376 0.807780
C13   C     C_R   0.011914 0.491008 0.052060 0.010241
C14   C     C_R   0.880025 0.286353 0.062899 -0.131289
C15   C     C_R   0.878223 0.288050 0.112709 -0.155448
C16   C     C_R   0.947434 0.389596 0.133561 -0.006333
C17   C     C_R   0.014695 0.491456 0.103220 -0.053272
C18   C     C_R   0.084061 0.593926 0.123913 -0.112743
C19   C     C_R   0.082699 0.593176 0.174426 0.646884
C20   C     C_R   0.949031 0.392594 0.183927 0.584210
C21   C     C_R   0.905644 0.487388 0.268935 -0.192863
C22   C     C_R   0.898415 0.487724 0.318459 0.361109
C23   C     C_R   0.145310 0.713623 0.492584 0.799240
C24   C     C_R   0.106780 0.504881 0.339290 -0.309121
C25   C     C_R   0.112690 0.503354 0.289808 0.445193
C26   C     C_R   0.011935 0.495288 0.254364 0.200859
C27   C     C_R   0.963936 0.384894 0.982505 -0.015804
C28   C     C_R   0.002754 0.491329 0.950139 -0.039045
C29   C     C_R   0.044247 0.596683 0.968782 -0.030241
C30   C     C_R   0.939537 0.282722 0.964013 0.423083
C31   C     C_R   0.049223 0.696542 0.883840 -0.195866
C32   C     C_R   0.152701 0.694059 0.043498 0.485895
C33   C     C_R   0.155619 0.693621 0.094099 -0.200451
C34   C     C_R   0.999405 0.498777 0.407496 0.846841
C35   C     C_R   0.054662 0.696767 0.934426 0.417955
C36   C     C_R   0.281031 0.014050 0.424733 -0.166688
C37   C     C_R   0.228459 0.834618 0.480405 -0.070103
C38   C     C_R   0.814416 0.085368 0.539120 -0.255843
C39   C     C_R   0.738973 0.968582 0.545474 -0.149460
C40   C     C_R   0.617625 0.926654 0.524035 0.364378
C41   C     C_R   0.568872 0.004575 0.496270 -0.000182
C42   C     C_R   0.652269 0.120829 0.483131 0.021198
C43   C     C_R   0.442215 0.972484 0.479821 0.094123
C44   C     C_R   0.405190 0.047111 0.442771 0.136895
C45   C     C_R   0.969904 0.394887 0.829410 0.604675
C46   C     C_R   0.492344 0.153829 0.424234 -0.195830
C47   C     C_R   0.613842 0.190906 0.444478 -0.146776
C48   C     C_R   0.350429 0.871555 0.501008 -0.179793
C49   C     C_R   0.193189 0.906940 0.442712 -0.179420
C50   C     C_R   0.772972 0.162622 0.507942 -0.100934
C51   C     C_R   0.344227 0.324023 0.577124 -0.374822
C52   C     C_R   0.759742 0.645207 0.432777 0.128587
C53   C     C_R   0.662655 0.675945 0.417650 -0.202173
C54   C     C_R   0.558683 0.620651 0.442638 -0.108872
C55   C     C_R   0.550955 0.533871 0.483505 0.032221
C56   C     C_R   0.023572 0.596221 0.815121 0.623572
C57   C     C_R   0.652661 0.504817 0.497407 0.281441
C58   C     C_R   0.446593 0.474587 0.510958 -0.001135
C59   C     C_R   0.445375 0.386057 0.550473 0.116496
C60   C     C_R   0.544823 0.358728 0.563169 -0.228586
C61   C     C_R   0.646535 0.417596 0.537617 -0.181761
C62   C     C_R   0.342530 0.498483 0.501042 0.005260
C63   C     C_R   0.244434 0.352247 0.566253 0.648594
C64   C     C_R   0.100793 0.507460 0.729489 -0.172257
C65   C     C_R   0.102402 0.509087 0.679286 -0.211534
C66   C     C_R   0.894843 0.492993 0.662169 -0.253251
Cu1   Cu    Cu3+1 0.098270 0.475420 0.511360 0.998331
Cu2   Cu    Cu3+1 0.901730 0.524580 0.488640 0.962973
H1    H     H_    0.814157 0.486486 0.636538 0.187536
H2    H     H_    0.180765 0.513328 0.755459 0.160998
H3    H     H_    0.059379 0.774491 0.858424 0.219086
H4    H     H_    0.186064 0.511958 0.365952 0.198921
H5    H     H_    0.216590 0.771201 0.110023 0.210512
H6    H     H_    0.098892 0.879303 0.426167 0.155979
H7    H     H_    0.466049 0.210337 0.394894 0.180087
H8    H     H_    0.252432 0.069776 0.395857 0.156672
H9    H     H_    0.371268 0.820307 0.534056 0.199990
H10   H     H_    0.906627 0.115005 0.558062 0.211185
H11   H     H_    0.775932 0.909863 0.566959 0.190476
H12   H     H_    0.677538 0.273737 0.428113 0.207793
H13   H     H_    0.544647 0.291424 0.593618 0.164195
H14   H     H_    0.342457 0.252485 0.605310 0.149135
H15   H     H_    0.335705 0.564402 0.471679 0.157734
H16   H     H_    0.840036 0.688453 0.413128 0.140265
H17   H     H_    0.931662 0.212655 0.899133 0.187717
H18   H     H_    0.485982 0.647412 0.429213 0.159974
H19   H     H_    0.667925 0.742709 0.386411 0.168459
H20   H     H_    0.718325 0.391295 0.550875 0.200329
H21   H     H_    0.827697 0.479978 0.241437 0.194250
H22   H     H_    0.821811 0.209437 0.134731 0.190686
H23   H     H_    0.819131 0.207732 0.048266 0.177380
H24   H     H_    0.184536 0.517154 0.667098 0.172505
N1    N     N_R   0.996300 0.496452 0.798076 -0.452350
N2    N     N_R   0.015621 0.493481 0.203223 -0.443867
N3    N     N_R   0.246290 0.438210 0.528570 -0.217622
N4    N     N_R   0.754320 0.561170 0.471730 -0.210876
O1    O     O_R   0.972510 0.318140 0.514280 -0.527335
O2    O     O_2   0.884789 0.295584 0.213444 -0.515807
O3    O     O_2   0.048797 0.694836 0.783079 -0.514549
O4    O     O_2   0.146809 0.691340 0.194538 -0.501802
O5    O     O_R   0.806530 0.359640 0.495100 -0.612511
O6    O     O_R   0.082990 0.479270 0.579320 -0.551231
O7    O     O_R   0.917010 0.520770 0.560140 -0.600608
O8    O     O_R   0.193470 0.640360 0.504900 -0.564070
O9    O     O_R   0.027490 0.681860 0.485720 -0.591899
O10   O     O_R   0.082990 0.479230 0.439860 -0.598650
O11   O     O_R   0.917010 0.520730 0.420680 -0.540548
O12   O     O_2   0.943130 0.298074 0.811171 -0.527969
O13   O     O_3   0.237503 0.789396 0.017463 -0.530231
C67   C     C_3   0.336163 0.765722 0.013562 0.060448
H25   H     H_    0.304925 0.691578 0.992989 0.141261
H26   H     H_    0.381594 0.746968 0.051041 0.149229
C68   C     C_3   0.430082 0.870397 0.985116 -0.716373
H27   H     H_    0.465914 0.945500 0.005308 0.250947
H28   H     H_    0.507455 0.852317 0.981236 0.189459
H29   H     H_    0.387257 0.891234 0.947525 0.263930
Cl1   Cl    Cl    0.246336 0.509098 0.273273 -0.549954
Cl2   Cl    Cl    0.046049 0.815458 0.950561 -0.547999
Cl3   Cl    Cl    0.760157 0.478829 0.732531 -0.574194
Cl4   Cl    Cl    0.543558 0.776114 0.525339 -0.686578
O14   O     O_3   0.137790 0.286188 0.588642 -0.570563
C69   C     C_3   0.162059 0.274430 0.640963 0.031569
H30   H     H_    0.221613 0.359246 0.653800 0.149931
H31   H     H_    0.205705 0.214485 0.655200 0.153402
C70   C     C_3   0.041472 0.223041 0.663168 -0.712691
H32   H     H_    0.984515 0.134352 0.654231 0.238684
H33   H     H_    0.059444 0.219857 0.704141 0.227220
H34   H     H_    0.989984 0.275785 0.647876 0.245414
Cl5   Cl    Cl    0.757452 0.470812 0.332912 -0.598364
O15   O     O_3   0.933514 0.185039 0.997274 -0.573894
C71   C     C_3   0.838858 0.083001 0.981091 0.038666
H35   H     H_    0.870394 0.054658 0.953748 0.187422
H36   H     H_    0.754097 0.094246 0.964582 0.136300
C72   C     C_3   0.807226 0.987299 0.025160 -0.713846
H37   H     H_    0.769877 0.008625 0.052896 0.227308
H38   H     H_    0.737298 0.905595 0.012372 0.203437
H39   H     H_    0.890297 0.975064 0.042996 0.278747

loop_
_geom_bond_atom_site_label_1
_geom_bond_atom_site_label_2
_ccdc_geom_bond_type
C10   C27   A    
C26   N2    S    
C65   H24   S    
C62   H15   S    
C8    C66   A    
C41   C42   A    
Cu2   O7    S    
C21   C26   A    
C71   C72   S    
C45   N1    A    
C72   H39   S    
C21   H21   S    
C53   C54   A    
Cu2   N4    S    
C6    H17   S    
C34   O11   A    
C7    C56   A    
C28   C29   A    
C5    C6    A    
C9    C22   A    
C66   H1    S    
C15   C16   A    
C23   O9    A    
C63   N3    A    
C18   C19   A    
C52   H16   S    
Cu1   O10   S    
C67   H25   S    
C36   H8    S    
C4    C28   A    
C54   C55   A    
C16   C17   A    
C57   N4    A    
C70   H34   S    
C52   N4    A    
Cu2   O11   S    
C64   H2    S    
C43   C48   A    
C45   O12   S    
C16   C20   A    
C68   H29   S    
C31   H3    S    
C59   C60   A    
C62   N3    A    
C27   C30   A    
Cu1   N3    S    
C41   C43   A    
C47   H12   S    
C4    C7    A    
C46   H7    S    
C63   O14   S    
C44   C46   A    
Cu1   O8    S    
C56   N1    A    
C7    C31   A    
C32   O13   S    
Cu1   Cu2   S    
C34   O10   A    
C51   C63   A    
Cu2   O5    S    
C12   O7    A    
C53   H19   S    
C10   C14   A    
C1    O1    A    
C39   C40   A    
C54   H18   S    
C72   H38   S    
C38   H10   S    
C71   H36   S    
C58   C59   A    
C23   C37   S    
C5    C45   A    
C60   C61   A    
C39   H11   S    
C48   H9    S    
C43   C44   A    
C12   O6    A    
C61   H20   S    
C37   C49   A    
C60   H13   S    
C23   O8    A    
C51   H14   S    
C8    C12   S    
C14   C15   A    
C17   C18   A    
C3    N1    S    
C24   C25   A    
C37   C48   A    
C67   C68   S    
O14   C69   S    
C19   N2    A    
C58   C62   A    
C42   C50   A    
C33   H5    S    
C40   C41   A    
C40   Cl4   S    
C11   C32   A    
C55   C57   A    
C22   Cl5   S    
C70   H32   S    
C31   C35   A    
C36   C44   A    
C51   C59   A    
Cu2   O9    S    
C69   H31   S    
C71   H35   S    
C1    O5    A    
C52   C53   A    
C24   H4    S    
C68   H27   S    
C1    C50   S    
C20   N2    A    
C46   C47   A    
C6    C30   A    
C38   C39   A    
C4    C5    A    
C2    C66   A    
C10   C13   A    
C25   Cl1   S    
C2    Cl3   S    
C9    C24   A    
C57   C61   A    
C72   H37   S    
C38   C50   A    
C29   C35   A    
C13   C17   A    
C32   C33   A    
C69   C70   S    
O15   C71   S    
C25   C26   A    
C30   O15   S    
O13   C67   S    
C64   C65   A    
C15   H22   S    
C11   C13   A    
C9    C34   S    
C2    C3    A    
C42   C47   A    
C3    C64   A    
C18   C33   A    
C67   H26   S    
C14   H23   S    
Cu1   O1    S    
C8    C65   A    
C20   O2    S    
C11   C29   A    
C55   C58   A    
C27   C28   A    
C70   H33   S    
C49   H6    S    
C35   Cl2   S    
C56   O3    S    
C69   H30   S    
C21   C22   A    
C19   O4    S    
C36   C49   A    
Cu1   O6    S    
C68   H28   S    
