data_mof_unit_61513.cif
_audit_creation_date              2013-03-05T16:42:25-0500
_audit_creation_method            fapswitch 2.2
_symmetry_space_group_name_H-M    P1
_symmetry_Int_Tables_number       1
_space_group_crystal_system       triclinic
_cell_length_a                    28.125031
_cell_length_b                    28.125033
_cell_length_c                    42.974083
_cell_angle_alpha                 89.998907
_cell_angle_beta                  89.999386
_cell_angle_gamma                 90.00607
_cell_volume                      33993.2482775

loop_
_atom_site_label
_atom_site_type_symbol
_atom_site_description
_atom_site_fract_x
_atom_site_fract_y
_atom_site_fract_z
_atom_type_partial_charge
Zn1   Zn    Zn3+2 0.000000 0.556030 0.776010 1.110847
Zn2   Zn    Zn3+2 1.000000 0.443970 0.223990 1.110836
Zn3   Zn    Zn3+2 0.443970 0.000000 0.776010 1.111208
Zn4   Zn    Zn3+2 0.556030 1.000000 0.223990 1.111136
Zn5   Zn    Zn3+2 0.000000 0.443970 0.776010 1.110876
Zn6   Zn    Zn3+2 1.000000 0.556030 0.223990 1.110939
Zn7   Zn    Zn3+2 0.556030 0.000000 0.776010 1.111192
Zn8   Zn    Zn3+2 0.443970 1.000000 0.223990 1.111164
Zn9   Zn    Zn3+2 0.500000 0.056030 0.276010 1.111121
Zn10  Zn    Zn3+2 0.500000 0.943970 0.723990 1.111201
Zn11  Zn    Zn3+2 0.943970 0.500000 0.276010 1.110930
Zn12  Zn    Zn3+2 0.056030 0.500000 0.723990 1.110878
Zn13  Zn    Zn3+2 0.500000 0.943970 0.276010 1.111180
Zn14  Zn    Zn3+2 0.500000 0.056030 0.723990 1.111198
Zn15  Zn    Zn3+2 0.056030 0.500000 0.276010 1.110846
Zn16  Zn    Zn3+2 0.943970 0.500000 0.723990 1.110845
C1    C     C_R   0.301215 0.801216 0.750000 -0.210112
C2    C     C_R   0.698785 0.198783 0.250002 -0.210126
C3    C     C_R   0.198788 0.301212 0.750000 -0.210075
C4    C     C_R   0.801153 0.698849 0.250002 -0.209801
C5    C     C_R   0.698780 0.198781 0.750000 -0.210127
C6    C     C_R   0.301202 0.801201 0.249999 -0.210069
C7    C     C_R   0.801220 0.698780 0.750000 -0.210110
C8    C     C_R   0.198827 0.301174 0.249999 -0.209914
C9    C     C_R   0.301362 0.198639 0.249998 -0.206708
C10   C     C_R   0.698660 0.801341 0.750000 -0.206907
C11   C     C_R   0.198654 0.698652 0.249998 -0.206654
C12   C     C_R   0.801340 0.301341 0.750001 -0.206754
C13   C     C_R   0.698630 0.801373 0.250002 -0.206631
C14   C     C_R   0.301345 0.198656 0.750000 -0.206871
C15   C     C_R   0.801341 0.301339 0.250002 -0.206718
C16   C     C_R   0.198657 0.698658 0.749999 -0.206736
C17   C     C_1   0.265042 0.765044 0.749999 0.240962
C18   C     C_1   0.734957 0.234954 0.250003 0.240962
C19   C     C_1   0.234960 0.265040 0.750000 0.240969
C20   C     C_1   0.764994 0.735008 0.250002 0.240832
C21   C     C_1   0.734953 0.234955 0.750001 0.240962
C22   C     C_1   0.265034 0.765032 0.249998 0.240949
C23   C     C_1   0.765047 0.734953 0.750000 0.240955
C24   C     C_1   0.234991 0.265011 0.249998 0.240904
C25   C     C_1   0.265197 0.234805 0.249998 0.242239
C26   C     C_1   0.734835 0.765165 0.750000 0.242368
C27   C     C_1   0.234824 0.734823 0.249998 0.242242
C28   C     C_1   0.765165 0.265167 0.750001 0.242308
C29   C     C_1   0.734791 0.765212 0.250002 0.242142
C30   C     C_1   0.265171 0.234829 0.750000 0.242359
C31   C     C_1   0.765168 0.265165 0.250003 0.242274
C32   C     C_1   0.234831 0.734832 0.749999 0.242301
O1    O     O_3   0.000000 0.500000 0.750000 -0.559268
O2    O     O_3   0.000000 0.500000 0.250000 -0.559267
O3    O     O_3   0.500000 0.000000 0.750000 -0.559496
O4    O     O_3   0.500000 1.000000 0.250000 -0.559527
O5    O     O_R   0.039240 0.500000 0.680730 -0.623774
O6    O     O_R   0.960760 0.500000 0.319270 -0.623371
O7    O     O_R   0.500000 0.039240 0.680730 -0.623613
O8    O     O_R   0.500000 0.960760 0.319270 -0.623407
O9    O     O_R   0.960760 0.500000 0.680730 -0.623838
O10   O     O_R   0.039240 0.500000 0.319270 -0.623499
O11   O     O_R   0.500000 0.960760 0.680730 -0.623592
O12   O     O_R   0.500000 0.039240 0.319270 -0.623545
O13   O     O_R   0.539240 0.000000 0.180730 -0.623514
O14   O     O_R   0.460760 1.000000 0.819270 -0.623582
O15   O     O_R   1.000000 0.539240 0.180730 -0.623349
O16   O     O_R   1.000000 0.460760 0.819270 -0.623780
O17   O     O_R   0.460760 0.000000 0.180730 -0.623439
O18   O     O_R   0.539240 1.000000 0.819270 -0.623622
O19   O     O_R   1.000000 0.460760 0.180730 -0.623521
O20   O     O_R   0.000000 0.539240 0.819270 -0.623832
O21   O     O_R   0.905530 0.555180 0.731880 -0.600281
O22   O     O_R   0.094470 0.444820 0.268120 -0.600508
O23   O     O_R   0.444820 0.905530 0.731880 -0.599999
O24   O     O_R   0.555180 0.094470 0.268120 -0.600005
O25   O     O_R   0.094470 0.444820 0.731880 -0.600323
O26   O     O_R   0.905530 0.555180 0.268120 -0.600624
O27   O     O_R   0.555180 0.094470 0.731880 -0.599975
O28   O     O_R   0.444820 0.905530 0.268120 -0.600085
O29   O     O_R   0.905530 0.444820 0.268120 -0.595387
O30   O     O_R   0.094470 0.555180 0.731880 -0.595241
O31   O     O_R   0.444820 0.094470 0.268120 -0.595272
O32   O     O_R   0.555180 0.905530 0.731880 -0.595352
O33   O     O_R   0.094470 0.555180 0.268120 -0.595253
O34   O     O_R   0.905530 0.444820 0.731880 -0.595185
O35   O     O_R   0.555180 0.905530 0.268120 -0.595364
O36   O     O_R   0.444820 0.094470 0.731880 -0.595324
O37   O     O_R   0.405530 0.055180 0.231880 -0.595373
O38   O     O_R   0.594470 0.944820 0.768120 -0.595325
O39   O     O_R   0.944820 0.405530 0.231880 -0.595260
O40   O     O_R   0.055180 0.594470 0.768120 -0.595183
O41   O     O_R   0.594470 0.944820 0.231880 -0.595263
O42   O     O_R   0.405530 0.055180 0.768120 -0.595351
O43   O     O_R   0.055180 0.594470 0.231880 -0.595380
O44   O     O_R   0.944820 0.405530 0.768120 -0.595243
O45   O     O_R   0.405530 0.944820 0.768120 -0.599999
O46   O     O_R   0.594470 0.055180 0.231880 -0.600001
O47   O     O_R   0.944820 0.594470 0.768120 -0.600279
O48   O     O_R   0.055180 0.405530 0.231880 -0.600513
O49   O     O_R   0.594470 0.055180 0.768120 -0.599974
O50   O     O_R   0.405530 0.944820 0.231880 -0.600091
O51   O     O_R   0.055180 0.405530 0.768120 -0.600325
O52   O     O_R   0.944820 0.594470 0.231880 -0.600621
C33   C     C_R   0.000000 0.499999 0.868634 -0.132631
C34   C     C_R   1.000000 0.500001 0.131366 -0.132946
C35   C     C_R   0.499999 1.000000 0.868633 -0.133528
C36   C     C_R   0.500000 1.000000 0.131367 -0.133626
C37   C     C_R   0.500000 0.999999 0.368633 -0.133626
C38   C     C_R   0.500000 0.000001 0.631367 -0.133528
C39   C     C_R   0.999999 0.500000 0.368634 -0.132947
C40   C     C_R   0.000000 0.500000 0.631366 -0.132631
N1    N     N_R   0.965524 0.476727 0.984515 -0.070020
N2    N     N_R   0.034474 0.523275 0.015486 -0.070045
N3    N     N_R   0.526936 0.031696 0.984513 -0.072097
N4    N     N_R   0.473063 0.968303 0.015487 -0.072136
N5    N     N_R   0.034475 0.523274 0.984514 -0.070022
N6    N     N_R   0.965523 0.476728 0.015487 -0.070065
N7    N     N_R   0.473063 0.968304 0.984515 -0.072115
N8    N     N_R   0.526936 0.031696 0.015485 -0.072100
N9    N     N_R   0.468304 0.973063 0.484515 -0.072130
N10   N     N_R   0.531696 0.026936 0.515485 -0.072096
N11   N     N_R   0.023273 0.534477 0.484513 -0.070071
N12   N     N_R   0.976726 0.465526 0.515486 -0.070018
N13   N     N_R   0.531696 0.026935 0.484513 -0.072105
N14   N     N_R   0.468304 0.973063 0.515487 -0.072115
N15   N     N_R   0.976726 0.465526 0.484514 -0.070039
N16   N     N_R   0.023273 0.534476 0.515485 -0.070024
C41   C     C_R   0.002164 0.542922 0.885096 -0.166103
C42   C     C_R   0.997839 0.457078 0.114904 -0.166061
C43   C     C_R   0.457092 0.002454 0.885095 -0.165441
C44   C     C_R   0.542907 0.997544 0.114905 -0.165436
C45   C     C_R   0.997836 0.457076 0.885097 -0.166082
C46   C     C_R   0.002159 0.542925 0.114903 -0.165960
C47   C     C_R   0.542906 0.997545 0.885095 -0.165463
C48   C     C_R   0.457093 0.002455 0.114905 -0.165409
C49   C     C_R   0.497544 0.042906 0.385095 -0.165459
C50   C     C_R   0.502455 0.957094 0.614905 -0.165448
C51   C     C_R   0.957076 0.497841 0.385097 -0.165976
C52   C     C_R   0.042923 0.502163 0.614903 -0.166079
C53   C     C_R   0.502455 0.957092 0.385095 -0.165385
C54   C     C_R   0.497546 0.042908 0.614904 -0.165457
C55   C     C_R   0.042922 0.502161 0.385096 -0.166044
C56   C     C_R   0.957078 0.497837 0.614904 -0.166106
H1    H     H_    0.003258 0.576310 0.872549 0.226142
H2    H     H_    0.996748 0.423690 0.127451 0.226425
H3    H     H_    0.423792 0.005088 0.872546 0.227250
H4    H     H_    0.576207 0.994910 0.127454 0.227330
H5    H     H_    0.996742 0.423688 0.872551 0.226175
H6    H     H_    0.003251 0.576313 0.127449 0.226538
H7    H     H_    0.576206 0.994912 0.872546 0.227225
H8    H     H_    0.423793 0.005089 0.127454 0.227378
H9    H     H_    0.494910 0.076206 0.372545 0.227312
H10   H     H_    0.505088 0.923794 0.627455 0.227244
H11   H     H_    0.923688 0.496749 0.372550 0.226525
H12   H     H_    0.076312 0.503258 0.627449 0.226178
H13   H     H_    0.505089 0.923792 0.372546 0.227396
H14   H     H_    0.494912 0.076208 0.627453 0.227231
H15   H     H_    0.076311 0.503252 0.372550 0.226438
H16   H     H_    0.923689 0.496742 0.627450 0.226138
C57   C     C_R   0.001512 0.543567 0.917692 0.282522
C58   C     C_R   0.998490 0.456434 0.082308 0.282367
C59   C     C_R   0.456526 0.003233 0.917691 0.282874
C60   C     C_R   0.543474 0.996765 0.082309 0.282816
C61   C     C_R   0.998487 0.456432 0.917693 0.282511
C62   C     C_R   0.001508 0.543569 0.082307 0.282303
C63   C     C_R   0.543473 0.996766 0.917691 0.282891
C64   C     C_R   0.456527 0.003233 0.082309 0.282792
C65   C     C_R   0.496765 0.043472 0.417690 0.282829
C66   C     C_R   0.503233 0.956527 0.582310 0.282877
C67   C     C_R   0.956431 0.498493 0.417692 0.282313
C68   C     C_R   0.043568 0.501513 0.582307 0.282507
C69   C     C_R   0.503234 0.956525 0.417691 0.282779
C70   C     C_R   0.496767 0.043474 0.582309 0.282889
C71   C     C_R   0.043567 0.501510 0.417692 0.282357
C72   C     C_R   0.956433 0.498488 0.582308 0.282526
C73   C     C_R   0.000000 0.500000 0.665715 0.882041
C74   C     C_R   1.000000 0.500000 0.334285 0.881695
C75   C     C_R   0.500000 0.000000 0.665715 0.881952
C76   C     C_R   0.500000 1.000000 0.334285 0.881821
C77   C     C_R   0.500000 1.000000 0.165715 0.881820
C78   C     C_R   0.500000 0.000000 0.834285 0.881952
C79   C     C_R   1.000000 0.500000 0.165715 0.881695
C80   C     C_R   1.000000 0.500000 0.834285 0.882041
C81   C     C_R   0.909023 0.590977 0.750000 0.903078
C82   C     C_R   0.090991 0.409009 0.250000 0.902134
C83   C     C_R   0.409023 0.909023 0.750000 0.903098
C84   C     C_R   0.590977 0.090977 0.250000 0.902966
C85   C     C_R   0.090979 0.409021 0.750000 0.902916
C86   C     C_R   0.909002 0.590998 0.250000 0.901856
C87   C     C_R   0.590976 0.090976 0.750000 0.903194
C88   C     C_R   0.409019 0.909018 0.250000 0.902659
C89   C     C_R   0.909060 0.409060 0.250000 0.969281
C90   C     C_R   0.090939 0.590939 0.750000 0.969987
C91   C     C_R   0.409063 0.090937 0.250000 0.969651
C92   C     C_R   0.590940 0.909060 0.750000 0.970104
C93   C     C_R   0.090939 0.590939 0.250000 0.969177
C94   C     C_R   0.909061 0.409061 0.750000 0.970015
C95   C     C_R   0.590936 0.909064 0.250000 0.969512
C96   C     C_R   0.409060 0.090940 0.750000 0.970068
C97   C     C_R   0.500000 0.000000 0.531494 0.409925
C98   C     C_R   0.500000 0.999999 0.468506 0.409923
C99   C     C_R   0.000000 0.500001 0.531493 0.409032
C100  C     C_R   0.999999 0.500002 0.468506 0.409022
C101  C     C_R   0.999998 0.500002 0.031494 0.409022
C102  C     C_R   1.000000 0.500000 0.968507 0.409032
C103  C     C_R   0.500000 0.999999 0.031494 0.409923
C104  C     C_R   0.499999 1.000000 0.968506 0.409925
C105  C     C_R   1.000000 0.499999 0.934255 -0.172269
C106  C     C_R   0.999999 0.500002 0.065745 -0.172306
C107  C     C_R   0.499999 1.000000 0.934254 -0.174667
C108  C     C_R   0.500000 0.999999 0.065746 -0.174675
C109  C     C_R   0.500000 0.999998 0.434254 -0.174675
C110  C     C_R   0.500000 0.000000 0.565746 -0.174667
C111  C     C_R   0.999999 0.500002 0.434255 -0.172305
C112  C     C_R   0.000000 0.500000 0.565745 -0.172269
C113  C     C_R   0.349544 0.787977 0.750017 0.222649
C114  C     C_R   0.650456 0.212023 0.250020 0.222637
C115  C     C_R   0.212030 0.349544 0.749911 0.222525
C116  C     C_R   0.787962 0.650588 0.251742 0.221471
C117  C     C_R   0.650450 0.212020 0.750130 0.222716
C118  C     C_R   0.349524 0.787963 0.250427 0.222389
C119  C     C_R   0.787979 0.650446 0.750143 0.222662
C120  C     C_R   0.212047 0.349472 0.251156 0.221868
C121  C     C_R   0.318878 0.181133 0.278485 0.223008
C122  C     C_R   0.681273 0.818988 0.721515 0.222947
C123  C     C_R   0.181139 0.681140 0.278484 0.222997
C124  C     C_R   0.818983 0.318733 0.721515 0.223042
C125  C     C_R   0.681060 0.818821 0.278488 0.223041
C126  C     C_R   0.318751 0.181030 0.721515 0.222966
C127  C     C_R   0.818897 0.318814 0.278487 0.222983
C128  C     C_R   0.181025 0.681258 0.721514 0.223057
C129  C     C_R   0.818816 0.318895 0.221516 0.222968
C130  C     C_R   0.181257 0.681025 0.778485 0.223051
C131  C     C_R   0.681182 0.818941 0.221515 0.223033
C132  C     C_R   0.318971 0.181249 0.778485 0.222967
C133  C     C_R   0.181142 0.681137 0.221512 0.223012
C134  C     C_R   0.818731 0.318982 0.778486 0.223049
C135  C     C_R   0.318869 0.181123 0.221513 0.223016
C136  C     C_R   0.681013 0.818728 0.778485 0.222946
C137  C     C_R   0.849555 0.712021 0.749857 0.222662
C138  C     C_R   0.150529 0.287954 0.248842 0.221867
C139  C     C_R   0.712019 0.150451 0.749870 0.222716
C140  C     C_R   0.287964 0.849523 0.249571 0.222388
C141  C     C_R   0.150456 0.287970 0.750090 0.222526
C142  C     C_R   0.849414 0.712039 0.248261 0.221472
C143  C     C_R   0.287975 0.849546 0.749983 0.222650
C144  C     C_R   0.712025 0.150453 0.249982 0.222635
C145  C     C_R   0.384861 0.823418 0.749661 0.192860
C146  C     C_R   0.615140 0.176582 0.250375 0.192868
C147  C     C_R   0.176589 0.384857 0.749555 0.192701
C148  C     C_R   0.823412 0.615298 0.252094 0.193157
C149  C     C_R   0.615131 0.176579 0.749774 0.192818
C150  C     C_R   0.384834 0.823407 0.250784 0.192992
C151  C     C_R   0.823418 0.615129 0.749787 0.192620
C152  C     C_R   0.176600 0.384770 0.251511 0.193016
C153  C     C_R   0.354221 0.145672 0.278512 0.197374
C154  C     C_R   0.645915 0.854442 0.721489 0.197146
C155  C     C_R   0.145678 0.645790 0.278512 0.196569
C156  C     C_R   0.854439 0.354091 0.721489 0.196487
C157  C     C_R   0.645724 0.854284 0.278514 0.197471
C158  C     C_R   0.354106 0.145575 0.721489 0.197186
C159  C     C_R   0.854355 0.354170 0.278514 0.196487
C160  C     C_R   0.145569 0.645900 0.721487 0.196507
C161  C     C_R   0.854171 0.354354 0.221489 0.196497
C162  C     C_R   0.145899 0.645567 0.778511 0.196505
C163  C     C_R   0.645718 0.854277 0.221488 0.197472
C164  C     C_R   0.354426 0.145894 0.778511 0.197185
C165  C     C_R   0.145791 0.645677 0.221486 0.196559
C166  C     C_R   0.854091 0.354438 0.778512 0.196486
C167  C     C_R   0.354330 0.145780 0.221486 0.197371
C168  C     C_R   0.645559 0.854085 0.778511 0.197146
C169  C     C_R   0.884871 0.676582 0.750212 0.192619
C170  C     C_R   0.115231 0.323401 0.248488 0.193020
C171  C     C_R   0.676578 0.115133 0.750226 0.192820
C172  C     C_R   0.323408 0.884833 0.249216 0.192997
C173  C     C_R   0.115143 0.323411 0.750446 0.192700
C174  C     C_R   0.884703 0.676589 0.247907 0.193151
C175  C     C_R   0.323418 0.884862 0.750339 0.192856
C176  C     C_R   0.676583 0.115138 0.249625 0.192866
C177  C     C_R   0.371919 0.871920 0.750000 -0.320016
C178  C     C_R   0.628081 0.128080 0.250000 -0.320031
C179  C     C_R   0.128085 0.371915 0.750000 -0.320408
C180  C     C_R   0.871865 0.628135 0.250000 -0.321725
C181  C     C_R   0.628077 0.128078 0.750000 -0.319915
C182  C     C_R   0.371908 0.871907 0.250000 -0.320389
C183  C     C_R   0.871922 0.628078 0.750000 -0.320203
C184  C     C_R   0.128117 0.371884 0.250000 -0.321285
C185  C     C_R   0.372012 0.127989 0.249999 -0.307353
C186  C     C_R   0.627998 0.872003 0.750000 -0.307090
C187  C     C_R   0.127995 0.627995 0.249999 -0.307217
C188  C     C_R   0.872004 0.372003 0.750000 -0.306953
C189  C     C_R   0.627985 0.872016 0.250001 -0.307455
C190  C     C_R   0.372004 0.127996 0.750000 -0.307132
C191  C     C_R   0.872003 0.372002 0.250001 -0.307144
C192  C     C_R   0.127996 0.627995 0.750000 -0.306970
N17   N     N_R   0.000846 0.588733 0.933448 0.235852
O53   O     O_R   0.022968 0.625049 0.921500 -0.255148
O54   O     O_R   0.972955 0.595562 0.957196 -0.277060
N18   N     N_R   0.999159 0.411267 0.066551 0.235884
O55   O     O_R   0.977043 0.374949 0.078501 -0.254819
O56   O     O_R   0.027049 0.404442 0.042803 -0.277046
N19   N     N_R   0.411710 0.008910 0.933446 0.238648
O57   O     O_R   0.373164 0.990958 0.921498 -0.263772
O58   O     O_R   0.408013 0.037413 0.957180 -0.270634
N20   N     N_R   0.588289 0.991087 0.066554 0.238650
O59   O     O_R   0.626835 0.009038 0.078502 -0.263653
O60   O     O_R   0.591986 0.962585 0.042820 -0.270670
N21   N     N_R   0.999153 0.411265 0.933451 0.235858
O61   O     O_R   0.977033 0.374949 0.921503 -0.255098
O62   O     O_R   0.027043 0.404437 0.957199 -0.277064
N22   N     N_R   0.000838 0.588736 0.066550 0.235906
O63   O     O_R   0.022954 0.625054 0.078498 -0.254613
O64   O     O_R   0.972949 0.595562 0.042801 -0.277034
N23   N     N_R   0.588288 0.991089 0.933446 0.238645
O65   O     O_R   0.626834 0.009042 0.921496 -0.263821
O66   O     O_R   0.591986 0.962586 0.957180 -0.270660
N24   N     N_R   0.411711 0.008911 0.066555 0.238653
O67   O     O_R   0.373165 0.990960 0.078504 -0.263565
O68   O     O_R   0.408014 0.037414 0.042820 -0.270631
N25   N     N_R   0.491087 0.088287 0.433445 0.238647
O69   O     O_R   0.509039 0.126834 0.421496 -0.263689
O70   O     O_R   0.462585 0.091984 0.457179 -0.270670
N26   N     N_R   0.508910 0.911711 0.566555 0.238647
O71   O     O_R   0.490958 0.873166 0.578504 -0.263783
O72   O     O_R   0.537413 0.908014 0.542821 -0.270635
N27   N     N_R   0.911264 0.499163 0.433450 0.235906
O73   O     O_R   0.874946 0.477047 0.421501 -0.254636
O74   O     O_R   0.904439 0.527052 0.457198 -0.277040
N28   N     N_R   0.088735 0.500847 0.566550 0.235857
O75   O     O_R   0.125051 0.522967 0.578497 -0.255092
O76   O     O_R   0.095563 0.472957 0.542802 -0.277062
N29   N     N_R   0.508912 0.911709 0.433447 0.238656
O77   O     O_R   0.490961 0.873163 0.421498 -0.263528
O78   O     O_R   0.537413 0.908012 0.457181 -0.270631
N30   N     N_R   0.491090 0.088290 0.566553 0.238645
O79   O     O_R   0.509042 0.126836 0.578501 -0.263810
O80   O     O_R   0.462587 0.091987 0.542819 -0.270660
N31   N     N_R   0.088733 0.500841 0.433449 0.235885
O81   O     O_R   0.125051 0.522957 0.421500 -0.254796
O82   O     O_R   0.095559 0.472951 0.457197 -0.277040
N32   N     N_R   0.911266 0.499154 0.566551 0.235852
O83   O     O_R   0.874950 0.477033 0.578499 -0.255153
O84   O     O_R   0.904438 0.527045 0.542803 -0.277062
N33   N     N_R   0.362976 0.738591 0.750350 0.254173
O85   O     O_R   0.395188 0.722804 0.731235 -0.215039
O86   O     O_R   0.344017 0.709444 0.770330 -0.284881
N34   N     N_R   0.637024 0.261410 0.249721 0.254201
O87   O     O_R   0.604837 0.277173 0.268863 -0.214858
O88   O     O_R   0.655955 0.290582 0.229746 -0.285067
N35   N     N_R   0.261418 0.362983 0.750141 0.254206
O89   O     O_R   0.277138 0.395115 0.730941 -0.215142
O90   O     O_R   0.290637 0.344108 0.770106 -0.284785
N36   N     N_R   0.738606 0.637197 0.253124 0.254364
O91   O     O_R   0.724011 0.606462 0.273639 -0.214232
O92   O     O_R   0.708241 0.654748 0.233376 -0.285304
N37   N     N_R   0.637018 0.261404 0.750573 0.254163
O93   O     O_R   0.604716 0.277265 0.731549 -0.215089
O94   O     O_R   0.656065 0.290471 0.770566 -0.284828
N38   N     N_R   0.362955 0.738574 0.250527 0.254245
O95   O     O_R   0.394808 0.723080 0.270000 -0.214613
O96   O     O_R   0.344351 0.709120 0.230599 -0.285172
N39   N     N_R   0.738593 0.637008 0.750599 0.254181
O97   O     O_R   0.722723 0.604687 0.731588 -0.215255
O98   O     O_R   0.709535 0.656062 0.770591 -0.284701
N40   N     N_R   0.261426 0.362892 0.251967 0.254316
O99   O     O_R   0.276427 0.394137 0.272020 -0.214507
O100  O     O_R   0.291387 0.344872 0.232135 -0.285153
N41   N     N_R   0.299706 0.198161 0.307447 0.255682
O101  O     O_R   0.284515 0.168266 0.328309 -0.223788
O102  O     O_R   0.297492 0.243552 0.313125 -0.282013
N42   N     N_R   0.700592 0.802115 0.692556 0.256242
O103  O     O_R   0.715872 0.832123 0.671791 -0.222718
O104  O     O_R   0.702859 0.756754 0.686785 -0.282627
N43   N     N_R   0.198156 0.700325 0.307446 0.255868
O105  O     O_R   0.168253 0.715513 0.328302 -0.224131
O106  O     O_R   0.243545 0.702552 0.313131 -0.282386
N44   N     N_R   0.802101 0.299416 0.692557 0.256132
O107  O     O_R   0.832102 0.284141 0.671789 -0.223294
O108  O     O_R   0.756738 0.297150 0.686788 -0.282786
N45   N     N_R   0.700170 0.801730 0.307452 0.255441
O109  O     O_R   0.715323 0.831578 0.328353 -0.224106
O110  O     O_R   0.702364 0.756326 0.313093 -0.281682
N46   N     N_R   0.299453 0.197927 0.692556 0.256141
O111  O     O_R   0.284185 0.167937 0.671777 -0.222906
O112  O     O_R   0.297194 0.243293 0.686798 -0.282544
N47   N     N_R   0.801925 0.299586 0.307449 0.256048
O113  O     O_R   0.831860 0.284374 0.328277 -0.223717
O114  O     O_R   0.756544 0.297341 0.313162 -0.282536
N48   N     N_R   0.197918 0.700566 0.692555 0.256084
O115  O     O_R   0.167925 0.715833 0.671779 -0.223337
O116  O     O_R   0.243283 0.702830 0.686792 -0.282734
N49   N     N_R   0.799589 0.301922 0.192556 0.256045
O117  O     O_R   0.784375 0.331857 0.171727 -0.223838
O118  O     O_R   0.797346 0.256541 0.186843 -0.282558
N50   N     N_R   0.200564 0.697917 0.807443 0.256084
O119  O     O_R   0.215833 0.667923 0.828218 -0.223377
O120  O     O_R   0.202826 0.743281 0.813206 -0.282742
N51   N     N_R   0.698275 0.799831 0.192552 0.255439
O121  O     O_R   0.668427 0.784677 0.171650 -0.224193
O122  O     O_R   0.743678 0.797639 0.186911 -0.281705
N52   N     N_R   0.302074 0.200547 0.807444 0.256142
O123  O     O_R   0.332065 0.215814 0.828223 -0.222878
O124  O     O_R   0.256709 0.202805 0.813203 -0.282535
N53   N     N_R   0.200326 0.698155 0.192550 0.255871
O125  O     O_R   0.215514 0.668252 0.171694 -0.224008
O126  O     O_R   0.202556 0.743544 0.186864 -0.282365
N54   N     N_R   0.799414 0.302100 0.807445 0.256133
O127  O     O_R   0.784140 0.332101 0.828213 -0.223254
O128  O     O_R   0.797146 0.256737 0.813214 -0.282777
N55   N     N_R   0.301843 0.200295 0.192550 0.255684
O129  O     O_R   0.331738 0.215485 0.171688 -0.223703
O130  O     O_R   0.256451 0.202510 0.186871 -0.281991
N56   N     N_R   0.697887 0.799407 0.807443 0.256240
O131  O     O_R   0.667880 0.784127 0.828208 -0.222745
O132  O     O_R   0.743248 0.797141 0.813214 -0.282635
N57   N     N_R   0.862993 0.761407 0.749400 0.254179
O133  O     O_R   0.895314 0.777277 0.768410 -0.215251
O134  O     O_R   0.843938 0.790465 0.729407 -0.284695
N58   N     N_R   0.137109 0.238575 0.248031 0.254316
O135  O     O_R   0.105863 0.223574 0.227978 -0.214524
O136  O     O_R   0.155131 0.208613 0.267862 -0.285173
N59   N     N_R   0.761403 0.137021 0.749427 0.254163
O137  O     O_R   0.777264 0.104718 0.768451 -0.215100
O138  O     O_R   0.790471 0.156069 0.729434 -0.284837
N60   N     N_R   0.238575 0.862954 0.249471 0.254243
O139  O     O_R   0.223083 0.894809 0.229999 -0.214638
O140  O     O_R   0.209119 0.844347 0.269398 -0.285205
N61   N     N_R   0.137017 0.238582 0.749860 0.254207
O141  O     O_R   0.104885 0.222862 0.769060 -0.215145
O142  O     O_R   0.155891 0.209362 0.729895 -0.284791
N62   N     N_R   0.862806 0.761395 0.246879 0.254364
O143  O     O_R   0.893540 0.775991 0.226364 -0.214217
O144  O     O_R   0.845256 0.791760 0.266628 -0.285285
N63   N     N_R   0.238590 0.862978 0.749649 0.254174
O145  O     O_R   0.222802 0.895189 0.768765 -0.215029
O146  O     O_R   0.209444 0.844021 0.729670 -0.284871
N64   N     N_R   0.761412 0.137021 0.250282 0.254201
O147  O     O_R   0.777176 0.104835 0.231138 -0.214832
O148  O     O_R   0.790582 0.155950 0.270258 -0.285034
N65   N     N_R   0.433940 0.809952 0.751201 0.240311
O149  O     O_R   0.451141 0.792637 0.776907 -0.275592
O150  O     O_R   0.459287 0.808288 0.725903 -0.257827
N66   N     N_R   0.566059 0.190052 0.248871 0.240336
O151  O     O_R   0.548818 0.207374 0.223178 -0.275858
O152  O     O_R   0.540753 0.191712 0.274186 -0.257593
N67   N     N_R   0.190071 0.433941 0.750985 0.240506
O153  O     O_R   0.207408 0.451269 0.776649 -0.275799
O154  O     O_R   0.191711 0.459167 0.725634 -0.258173
N68   N     N_R   0.809830 0.566202 0.252347 0.242917
O155  O     O_R   0.792439 0.546873 0.227319 -0.278907
O156  O     O_R   0.808477 0.542938 0.278497 -0.255088
N69   N     N_R   0.566057 0.190034 0.751428 0.240152
O157  O     O_R   0.548992 0.207341 0.777175 -0.275398
O158  O     O_R   0.540577 0.191710 0.726188 -0.258045
N70   N     N_R   0.433929 0.809904 0.249699 0.240895
O159  O     O_R   0.451666 0.792553 0.224159 -0.276682
O160  O     O_R   0.458750 0.808304 0.275221 -0.256715
N71   N     N_R   0.809957 0.566054 0.751455 0.240188
O161  O     O_R   0.792633 0.549007 0.777205 -0.275351
O162  O     O_R   0.808283 0.540556 0.726223 -0.258644
N72   N     N_R   0.190157 0.433875 0.251170 0.242021
O163  O     O_R   0.207554 0.452493 0.225913 -0.277882
O164  O     O_R   0.191624 0.457832 0.277047 -0.256043
N73   N     N_R   0.371768 0.127516 0.307587 0.254912
O165  O     O_R   0.387913 0.156473 0.328705 -0.240589
O166  O     O_R   0.370245 0.082140 0.313429 -0.339397
N74   N     N_R   0.628477 0.872714 0.692416 0.254776
O167  O     O_R   0.612470 0.843836 0.671206 -0.240949
O168  O     O_R   0.629949 0.918121 0.686673 -0.339105
N75   N     N_R   0.127522 0.628238 0.307587 0.255149
O169  O     O_R   0.156480 0.612103 0.328707 -0.238032
O170  O     O_R   0.082146 0.629749 0.313429 -0.339340
N76   N     N_R   0.872710 0.371534 0.692416 0.254971
O171  O     O_R   0.843833 0.387544 0.671208 -0.238752
O172  O     O_R   0.918116 0.370063 0.686670 -0.338532
N77   N     N_R   0.628131 0.872395 0.307590 0.254977
O173  O     O_R   0.611927 0.843406 0.328671 -0.240310
O174  O     O_R   0.629675 0.917758 0.313470 -0.339138
N78   N     N_R   0.371559 0.127321 0.692415 0.254791
O175  O     O_R   0.387586 0.156211 0.671218 -0.240940
O176  O     O_R   0.370080 0.081918 0.686659 -0.339175
N79   N     N_R   0.872543 0.371690 0.307588 0.255126
O177  O     O_R   0.843608 0.387786 0.328734 -0.237943
O178  O     O_R   0.917929 0.370193 0.313401 -0.339011
N80   N     N_R   0.127306 0.628450 0.692415 0.254987
O179  O     O_R   0.156190 0.612431 0.671214 -0.238650
O180  O     O_R   0.081902 0.629926 0.686662 -0.338391
N81   N     N_R   0.871691 0.372542 0.192414 0.255111
O181  O     O_R   0.887786 0.343606 0.171268 -0.238126
O182  O     O_R   0.870195 0.417927 0.186600 -0.339351
N82   N     N_R   0.128449 0.627304 0.807585 0.254980
O183  O     O_R   0.112431 0.656186 0.828786 -0.238727
O184  O     O_R   0.129924 0.581900 0.813337 -0.338532
N83   N     N_R   0.627609 0.871870 0.192412 0.254964
O185  O     O_R   0.656598 0.888073 0.171330 -0.240452
O186  O     O_R   0.582246 0.870325 0.186530 -0.339389
N84   N     N_R   0.372681 0.128441 0.807585 0.254795
O187  O     O_R   0.343792 0.112413 0.828782 -0.240898
O188  O     O_R   0.418084 0.129920 0.813341 -0.339102
N85   N     N_R   0.128240 0.627521 0.192411 0.255163
O189  O     O_R   0.112103 0.656479 0.171291 -0.237848
O190  O     O_R   0.129752 0.582145 0.186571 -0.339001
N86   N     N_R   0.871533 0.372708 0.807585 0.254979
O191  O     O_R   0.887543 0.343830 0.828793 -0.238674
O192  O     O_R   0.870062 0.418114 0.813331 -0.338393
N87   N     N_R   0.372487 0.128233 0.192412 0.254925
O193  O     O_R   0.343531 0.112086 0.171293 -0.240448
O194  O     O_R   0.417863 0.129756 0.186571 -0.339146
N88   N     N_R   0.627289 0.871523 0.807584 0.254771
O195  O     O_R   0.656167 0.887529 0.828793 -0.240990
O196  O     O_R   0.581881 0.870051 0.813327 -0.339176
N89   N     N_R   0.933946 0.690042 0.748544 0.240187
O197  O     O_R   0.950994 0.707366 0.722795 -0.275363
O198  O     O_R   0.959444 0.691717 0.773776 -0.258634
N90   N     N_R   0.066126 0.309843 0.248830 0.242028
O199  O     O_R   0.047509 0.292449 0.274088 -0.277840
O200  O     O_R   0.042168 0.308375 0.222954 -0.256083
N91   N     N_R   0.690034 0.066059 0.748571 0.240156
O201  O     O_R   0.707341 0.048995 0.722823 -0.275375
O202  O     O_R   0.691710 0.040578 0.773811 -0.258065
N92   N     N_R   0.309904 0.933928 0.250302 0.240907
O203  O     O_R   0.292558 0.951663 0.275843 -0.276620
O204  O     O_R   0.308302 0.958750 0.224780 -0.256766
N93   N     N_R   0.066058 0.309929 0.749015 0.240508
O205  O     O_R   0.048731 0.292592 0.723351 -0.275788
O206  O     O_R   0.040833 0.308288 0.774366 -0.258183
N94   N     N_R   0.933800 0.690170 0.247653 0.242912
O207  O     O_R   0.953130 0.707560 0.272680 -0.278952
O208  O     O_R   0.957062 0.691523 0.221502 -0.255045
N95   N     N_R   0.309951 0.933941 0.748800 0.240306
O209  O     O_R   0.292636 0.951144 0.723094 -0.275612
O210  O     O_R   0.308289 0.959288 0.774098 -0.257809
N96   N     N_R   0.690052 0.066057 0.251128 0.240325
O211  O     O_R   0.707374 0.048813 0.276821 -0.275927
O212  O     O_R   0.691711 0.040753 0.225812 -0.257541

loop_
_geom_bond_atom_site_label_1
_geom_bond_atom_site_label_2
_geom_bond_distance
_ccdc_geom_bond_type
N60   O140  1.301301 A    
C115  C147  1.407261 A    
C46   H6    1.083259 S    
C163  C189  1.413904 A    
N61   O141  1.301090 A    
C135  N55   1.438482 S    
N78   O176  1.301361 A    
Zn12  O1    1.932001 S    
N65   O149  1.300625 A    
O13   C77   1.278415 A    
C59   N19   1.439674 S    
N46   O112  1.301248 A    
C15   C31   1.438718 S    
C81   C183  1.475767 S    
O44   C94   1.275824 A    
C82   C184  1.476750 S    
C6    C22   1.438515 S    
Zn1   O20   1.918087 S    
N96   O211  1.300628 A    
Zn1   O1    1.932026 S    
C138  C170  1.407082 A    
C98   C109  1.471970 S    
C86   C180  1.477207 S    
N74   O167  1.301177 A    
N69   O158  1.300879 A    
C37   C76   1.476091 S    
C38   C75   1.476095 S    
C6    C140  1.409299 A    
C55   C71   1.401011 A    
N28   O75   1.301458 A    
C148  N68   1.432708 S    
C72   N32   1.439645 S    
O28   C88   1.276674 A    
C88   C182  1.476010 S    
C172  N92   1.432874 S    
Zn10  O23   1.921438 S    
C54   H14   1.083271 S    
N73   O166  1.301362 A    
N57   O134  1.301302 A    
O31   C91   1.275778 A    
Zn12  O25   1.921627 S    
N83   O186  1.301362 A    
Zn5   O1    1.931994 S    
O10   C74   1.278419 A    
Zn9   O4    1.932026 S    
C173  N93   1.432918 S    
Zn10  O3    1.932031 S    
N42   O103  1.301218 A    
C52   H12   1.083259 S    
N64   O147  1.301102 A    
C163  N83   1.437194 S    
N87   O194  1.301362 A    
C172  C182  1.412098 A    
C7    C119  1.409467 A    
N11   C100  1.357094 A    
C162  C192  1.413888 A    
O23   C83   1.276588 A    
C166  N86   1.437225 S    
Zn16  O1    1.932023 S    
O24   C84   1.276588 A    
N50   O120  1.301248 A    
C117  N37   1.439552 S    
N89   O198  1.300882 A    
Zn10  O32   1.921627 S    
C125  N45   1.438485 S    
N88   O195  1.301180 A    
Zn4   O13   1.918101 S    
C12   C28   1.438779 S    
Zn5   O16   1.918104 S    
C150  N70   1.432874 S    
Zn6   O15   1.918104 S    
N48   O116  1.301250 A    
C167  N87   1.437201 S    
C36   C44   1.400547 A    
C169  N89   1.432979 S    
N90   O199  1.300599 A    
N6    C101  1.357096 A    
C53   H13   1.083269 S    
C43   H3    1.083271 S    
N54   O127  1.301216 A    
C44   H4    1.083272 S    
C56   H16   1.083258 S    
O9    C73   1.278419 A    
C8    C120  1.409188 A    
N18   O55   1.301460 A    
N75   O170  1.301358 A    
N80   O180  1.301362 A    
C120  C152  1.407083 A    
N49   O117  1.301218 A    
O12   C76   1.278410 A    
C130  N50   1.438475 S    
C116  C148  1.406980 A    
N47   O113  1.301218 A    
O51   C85   1.276603 A    
C136  N56   1.438471 S    
C124  C156  1.408263 A    
C37   C49   1.400549 A    
Zn4   O41   1.921627 S    
C10   C136  1.408533 A    
O49   C87   1.276558 A    
N68   O156  1.300924 A    
Zn7   O49   1.921435 S    
O38   C92   1.275837 A    
C34   C46   1.400554 A    
Zn11  O26   1.921624 S    
C59   C107  1.417708 A    
N92   O203  1.300612 A    
C96   C190  1.473987 S    
O37   C91   1.275777 A    
C11   C123  1.408457 A    
N58   O135  1.301086 A    
O6    C74   1.278419 A    
C21   C28   1.201621 T    
Zn2   O48   1.921627 S    
C4    C142  1.409066 A    
C22   C27   1.201511 T    
C3    C19   1.438800 S    
N41   O101  1.301217 A    
C66   C110  1.417703 A    
Zn7   O18   1.918091 S    
C174  N94   1.432709 S    
O45   C83   1.276587 A    
C15   C129  1.408482 A    
C120  N40   1.439546 S    
N82   O183  1.301177 A    
C119  N39   1.439568 S    
Zn10  O11   1.918087 S    
C3    C115  1.409400 A    
O35   C95   1.275733 A    
N36   O91   1.301086 A    
C145  N65   1.432934 S    
N67   O154  1.300883 A    
C3    C141  1.409399 A    
O33   C93   1.275813 A    
N31   O81   1.301457 A    
C68   N28   1.439647 S    
C1    C143  1.409386 A    
N39   O97   1.301125 A    
N71   O162  1.300883 A    
C169  C183  1.411952 A    
C157  N77   1.437195 S    
C170  C184  1.412382 A    
C69   N29   1.439671 S    
C12   C134  1.408507 A    
N46   O111  1.301220 A    
C160  C192  1.413889 A    
C14   C126  1.408516 A    
N59   O137  1.301090 A    
Zn9   O24   1.921436 S    
N53   O125  1.301220 A    
C87   C181  1.475619 S    
O5    C73   1.278419 A    
N63   O146  1.301302 A    
N73   O165  1.301175 A    
N16   C99   1.357093 A    
N17   O53   1.301461 A    
O8    C76   1.278414 A    
Zn3   O42   1.921624 S    
Zn8   O37   1.921631 S    
C122  N42   1.438469 S    
N1    C102  1.357093 A    
O43   C93   1.275816 A    
Zn7   O38   1.921633 S    
N40   O99   1.301086 A    
C84   C178  1.475708 S    
O41   C95   1.275734 A    
N12   C99   1.357096 A    
C139  N59   1.439553 S    
N86   O191  1.301178 A    
Zn9   O31   1.921629 S    
C63   C107  1.417703 A    
Zn8   O50   1.921438 S    
N44   O107  1.301217 A    
Zn2   O2    1.932031 S    
N63   O145  1.301091 A    
C41   H1    1.083256 S    
N21   O62   1.301437 A    
C10   C122  1.408534 A    
C39   C51   1.400556 A    
C47   H7    1.083271 S    
C131  N51   1.438485 S    
C35   C43   1.400546 A    
Zn8   O4    1.932023 S    
Zn12  O5    1.918101 S    
Zn1   O47   1.921629 S    
Zn13  O8    1.918104 S    
C46   C62   1.401016 A    
Zn14  O7    1.918104 S    
Zn8   O17   1.918091 S    
C5    C117  1.409409 A    
C126  N46   1.438471 S    
N29   O78   1.301438 A    
C2    C114  1.409386 A    
C117  C149  1.407232 A    
C85   C179  1.475938 S    
C155  N75   1.437205 S    
N22   O64   1.301436 A    
C83   C177  1.475704 S    
C57   N17   1.439646 S    
N33   O86   1.301305 A    
C135  C167  1.408177 A    
N20   O60   1.301437 A    
C100  C111  1.471927 S    
N72   O163  1.300596 A    
Zn5   O51   1.921628 S    
N30   O79   1.301446 A    
C114  C146  1.407199 A    
C64   C108  1.417706 A    
C92   C186  1.474037 S    
N76   O171  1.301175 A    
O47   C81   1.276567 A    
N27   O74   1.301435 A    
Zn6   O52   1.921631 S    
N9    N14   1.330993 A    
N81   O181  1.301177 A    
C146  N66   1.432937 S    
C60   C108  1.417709 A    
C2    C18   1.438632 S    
C36   C77   1.476091 S    
C70   C110  1.417709 A    
C55   H15   1.083260 S    
C12   C124  1.408506 A    
N38   O96   1.301301 A    
C45   C61   1.401016 A    
Zn2   O39   1.921438 S    
Zn3   O45   1.921452 S    
C151  C183  1.411954 A    
Zn6   O2    1.931994 S    
C113  C145  1.407211 A    
N93   O206  1.300885 A    
N56   O131  1.301221 A    
Zn11  O6    1.918101 S    
N1    N6    1.330993 A    
C5    C139  1.409407 A    
N94   O208  1.300926 A    
N21   O61   1.301456 A    
N32   O84   1.301435 A    
N23   O66   1.301437 A    
C114  N34   1.439559 S    
N60   O139  1.301086 A    
Zn15  O10   1.918091 S    
N52   O124  1.301249 A    
C91   C185  1.473802 S    
N91   O201  1.300629 A    
C143  C175  1.407212 A    
N62   O143  1.301087 A    
C10   C26   1.438959 S    
N49   O118  1.301250 A    
Zn3   O14   1.918101 S    
C2    C144  1.409389 A    
Zn15  O22   1.921633 S    
C131  C163  1.408105 A    
C132  C164  1.408303 A    
C45   H5    1.083257 S    
C14   C30   1.438888 S    
C176  C178  1.411968 A    
N70   O159  1.300611 A    
C34   C42   1.400556 A    
O25   C85   1.276604 A    
N87   O193  1.301176 A    
C128  C160  1.408252 A    
C39   C74   1.476108 S    
C129  C161  1.408232 A    
N77   O174  1.301362 A    
C103  C108  1.471970 S    
C66   N26   1.439674 S    
C35   C78   1.476095 S    
O29   C89   1.275840 A    
C33   C80   1.476117 S    
O17   C77   1.278410 A    
O36   C96   1.275809 A    
N96   O212  1.300885 A    
N55   O130  1.301254 A    
C147  C179  1.412007 A    
C128  N48   1.438476 S    
N13   C98   1.357099 A    
C148  C180  1.412607 A    
C165  C187  1.413917 A    
C37   C53   1.400546 A    
C166  C188  1.413889 A    
C38   C50   1.400548 A    
C170  N90   1.432778 S    
N34   O87   1.301099 A    
C167  C185  1.413907 A    
N74   O168  1.301364 A    
N69   O157  1.300629 A    
O21   C81   1.276570 A    
C144  C176  1.407198 A    
C51   C67   1.401012 A    
N28   O76   1.301435 A    
C162  N82   1.437223 S    
C60   N20   1.439672 S    
N9    C98   1.357099 A    
C33   C45   1.400555 A    
C130  C162  1.408250 A    
N57   O133  1.301128 A    
C113  N33   1.439551 S    
C118  C150  1.407129 A    
C70   N30   1.439672 S    
N79   O177  1.301179 A    
Zn14  O36   1.921631 S    
C61   C105  1.417695 A    
C126  C158  1.408305 A    
N42   O104  1.301248 A    
N37   O93   1.301096 A    
C171  N91   1.432954 S    
O40   C90   1.275820 A    
C149  C181  1.411915 A    
C4    C116  1.409067 A    
N59   O138  1.301306 A    
N89   O197  1.300642 A    
C41   C57   1.401012 A    
C171  C181  1.411916 A    
N24   O68   1.301436 A    
N43   O105  1.301219 A    
C155  C187  1.413917 A    
N66   O151  1.300631 A    
C156  C188  1.413891 A    
C99   C112  1.471931 S    
C141  C173  1.407261 A    
N25   O70   1.301436 A    
O50   C88   1.276675 A    
C97   C110  1.471974 S    
N37   O94   1.301302 A    
C89   C191  1.473902 S    
O22   C82   1.276854 A    
C90   C192  1.473847 S    
C16   C128  1.408501 A    
C121  N41   1.438483 S    
C102  C105  1.471931 S    
N90   O200  1.300909 A    
C50   C66   1.401032 A    
N3    N8    1.330998 A    
C64   N24   1.439674 S    
N12   N15   1.330993 A    
C158  C190  1.413905 A    
Zn1   O40   1.921436 S    
N18   O56   1.301436 A    
N71   O161  1.300643 A    
C138  N58   1.439545 S    
C119  C151  1.407305 A    
C62   C106  1.417697 A    
C158  N78   1.437214 S    
N61   O142  1.301301 A    
O46   C84   1.276589 A    
C124  N44   1.438472 S    
N78   O175  1.301176 A    
C23   C26   1.201726 T    
C16   C130  1.408499 A    
N65   O150  1.300880 A    
C164  N84   1.437215 S    
C157  C189  1.413906 A    
C58   C106  1.417695 A    
C13   C131  1.408412 A    
N35   O89   1.301092 A    
Zn3   O3    1.932001 S    
N92   O204  1.300894 A    
N11   N16   1.330993 A    
C61   N21   1.439646 S    
C42   H2    1.083259 S    
N27   O73   1.301458 A    
C123  N43   1.438479 S    
N26   O72   1.301436 A    
N19   O57   1.301445 A    
C48   C64   1.401032 A    
C49   C65   1.401028 A    
Zn13  O4    1.931994 S    
N64   O148  1.301300 A    
Zn14  O3    1.931994 S    
C104  C107  1.471974 S    
C47   C63   1.401032 A    
C93   C187  1.473825 S    
N7    C104  1.357097 A    
C94   C188  1.473867 S    
C57   C105  1.417693 A    
N5    C102  1.357096 A    
N36   O92   1.301291 A    
C153  N73   1.437199 S    
C58   N18   1.439647 S    
C63   N23   1.439674 S    
N8    C103  1.357099 A    
N31   O82   1.301434 A    
N95   O210  1.300883 A    
C127  N47   1.438479 S    
O27   C87   1.276560 A    
C156  N76   1.437222 S    
N50   O119  1.301218 A    
N91   O202  1.300879 A    
N3    C104  1.357097 A    
N51   O121  1.301218 A    
C144  N64   1.439560 S    
Zn13  O35   1.921628 S    
O11   C75   1.278410 A    
N85   O190  1.301362 A    
Zn9   O12   1.918087 S    
C137  N57   1.439566 S    
Zn14  O27   1.921449 S    
C152  C184  1.412384 A    
N48   O115  1.301216 A    
N24   O67   1.301448 A    
Zn7   O3    1.932018 S    
Zn11  O2    1.932001 S    
O19   C79   1.278419 A    
C65   C109  1.417708 A    
C16   C32   1.438747 S    
N40   O100  1.301294 A    
C51   H11   1.083257 S    
C161  C191  1.413916 A    
C1    C17   1.438664 S    
N86   O192  1.301362 A    
C101  C106  1.471927 S    
C153  C185  1.413906 A    
Zn16  O9    1.918091 S    
N44   O108  1.301248 A    
O34   C94   1.275820 A    
C38   C54   1.400547 A    
C125  C157  1.408103 A    
C4    C20   1.438313 S    
C11   C27   1.438596 S    
C5    C21   1.438696 S    
N81   O182  1.301359 A    
N80   O179  1.301181 A    
C36   C48   1.400545 A    
C154  C186  1.413907 A    
C13   C29   1.438389 S    
C136  C168  1.408333 A    
C17   C32   1.201603 T    
C137  C169  1.407305 A    
C18   C31   1.201583 T    
N4    C103  1.357097 A    
C19   C30   1.201684 T    
N95   O209  1.300623 A    
N58   O136  1.301294 A    
O26   C86   1.276970 A    
C65   N25   1.439673 S    
N23   O65   1.301447 A    
N68   O155  1.300583 A    
C15   C127  1.408480 A    
C54   C70   1.401032 A    
N29   O77   1.301447 A    
C68   C112  1.417697 A    
C62   N22   1.439648 S    
O30   C90   1.275822 A    
C13   C125  1.408411 A    
C165  N85   1.437203 S    
C168  N88   1.437216 S    
O15   C79   1.278419 A    
Zn15  O33   1.921435 S    
N84   O188  1.301363 A    
C9    C25   1.438568 S    
N33   O85   1.301088 A    
O18   C78   1.278412 A    
C173  C179  1.412007 A    
N72   O164  1.300911 A    
Zn4   O4    1.932001 S    
N2    C101  1.357094 A    
C174  C180  1.412607 A    
C149  N69   1.432952 S    
C175  C177  1.411949 A    
N54   O128  1.301249 A    
C40   C52   1.400556 A    
C129  N49   1.438479 S    
N41   O102  1.301253 A    
O16   C80   1.278421 A    
N76   O172  1.301362 A    
C134  C166  1.408263 A    
Zn6   O43   1.921449 S    
C50   H10   1.083269 S    
O48   C82   1.276854 A    
N85   O189  1.301177 A    
Zn15  O2    1.932018 S    
C14   C132  1.408521 A    
C146  C178  1.411968 A    
C141  N61   1.439552 S    
N43   O106  1.301252 A    
Zn12  O30   1.921450 S    
N55   O129  1.301216 A    
C9    C121  1.408447 A    
C115  N35   1.439551 S    
Zn11  O29   1.921452 S    
N93   O205  1.300625 A    
C53   C69   1.401036 A    
C127  C159  1.408234 A    
O39   C89   1.275836 A    
C133  N53   1.438479 S    
C6    C118  1.409298 A    
C140  N60   1.439552 S    
C56   C72   1.401012 A    
C40   C73   1.476117 S    
C39   C55   1.400553 A    
C34   C79   1.476108 S    
C150  C182  1.412099 A    
C1    C113  1.409386 A    
N82   O184  1.301364 A    
N53   O126  1.301251 A    
N62   O144  1.301291 A    
C42   C58   1.401007 A    
C132  N52   1.438471 S    
N45   O110  1.301256 A    
C71   N31   1.439648 S    
C48   H8    1.083270 S    
N15   C100  1.357094 A    
C161  N81   1.437212 S    
C49   H9    1.083270 S    
C142  C174  1.406979 A    
N70   O160  1.300895 A    
Zn2   O19   1.918087 S    
N88   O196  1.301361 A    
C152  N72   1.432778 S    
C40   C56   1.400554 A    
C175  N95   1.432936 S    
C52   C68   1.401012 A    
N77   O173  1.301176 A    
C133  C165  1.408188 A    
O20   C80   1.278417 A    
N10   N13   1.330993 A    
O52   C86   1.276970 A    
N47   O114  1.301250 A    
N35   O90   1.301302 A    
C71   C111  1.417693 A    
C95   C189  1.473683 S    
O32   C92   1.275838 A    
C33   C41   1.400553 A    
N75   O169  1.301178 A    
Zn13  O28   1.921451 S    
C159  C191  1.413916 A    
N83   O185  1.301175 A    
C69   C109  1.417710 A    
Zn16  O34   1.921438 S    
C122  C154  1.408331 A    
O42   C96   1.275810 A    
C20   C29   1.201376 T    
N39   O98   1.301299 A    
C121  C153  1.408175 A    
C164  C190  1.413905 A    
N19   O58   1.301440 A    
N2    N5    1.330993 A    
O7    C75   1.278414 A    
N45   O109  1.301220 A    
Zn4   O46   1.921450 S    
C118  N38   1.439552 S    
C24   C25   1.201489 T    
C7    C137  1.409469 A    
N34   O88   1.301299 A    
C160  N80   1.437219 S    
C147  N67   1.432917 S    
C43   C59   1.401032 A    
C8    C138  1.409186 A    
N22   O63   1.301458 A    
C44   C60   1.401032 A    
N84   O187  1.301178 A    
C159  N79   1.437210 S    
C168  C186  1.413903 A    
N56   O132  1.301249 A    
Zn16  O21   1.921631 S    
C72   C112  1.417691 A    
O14   C78   1.278412 A    
C145  C177  1.411949 A    
N79   O178  1.301360 A    
N20   O59   1.301447 A    
C139  C171  1.407229 A    
N26   O71   1.301445 A    
C140  C172  1.407128 A    
C67   C111  1.417698 A    
N67   O153  1.300625 A    
N17   O54   1.301433 A    
C142  N62   1.439537 S    
N51   O122  1.301256 A    
C35   C47   1.400548 A    
C7    C23   1.438870 S    
C151  N71   1.432977 S    
N38   O95   1.301083 A    
C8    C24   1.438490 S    
N66   O152  1.300885 A    
C116  N36   1.439536 S    
N14   C97   1.357101 A    
N25   O69   1.301450 A    
C176  N96   1.432938 S    
Zn5   O44   1.921451 S    
C11   C133  1.408456 A    
C123  C155  1.408184 A    
N30   O80   1.301437 A    
C134  N54   1.438474 S    
N94   O207  1.300582 A    
C9    C135  1.408449 A    
N32   O83   1.301459 A    
N52   O123  1.301219 A    
C143  N63   1.439550 S    
N10   C97   1.357097 A    
C67   N27   1.439647 S    
N4    N7    1.330998 A    
C154  N74   1.437217 S    
