data_mof_unit_28119.cif
_audit_creation_date              2012-12-10T17:57:24-0500
_audit_creation_method            fapswitch 2.2
_symmetry_space_group_name_H-M    P1
_symmetry_Int_Tables_number       1
_space_group_crystal_system       triclinic
_cell_length_a                    9.508534
_cell_length_b                    10.840335
_cell_length_c                    13.450089
_cell_angle_alpha                 90.259024
_cell_angle_beta                  72.278534
_cell_angle_gamma                 90.235404
_cell_volume                      1320.57127231

loop_
_atom_site_label
_atom_site_type_symbol
_atom_type_description
_atom_site_fract_x
_atom_site_fract_y
_atom_site_fract_z
_atom_type_partial_charge
C1    C     C_R   0.500009 0.737775 0.500644 0.790395
C2    C     C_R   0.432698 0.509102 0.980684 0.085842
C3    C     C_R   0.466265 0.541127 0.873842 0.040891
C4    C     C_R   0.541588 0.528377 0.032109 0.088414
C5    C     C_R   0.676023 0.589027 0.979273 0.166180
C6    C     C_R   0.698686 0.633393 0.878633 -0.247955
C7    C     C_R   0.593993 0.612295 0.827683 -0.189832
C8    C     C_R   0.521047 0.489063 0.134718 -0.246192
C9    C     C_R   0.758092 0.573081 0.132715 -0.201187
C10   C     C_R   0.369923 0.503194 0.816550 -0.116323
C11   C     C_R   0.632166 0.936758 0.478228 -0.191206
C12   C     C_R   0.420372 0.503484 0.700735 0.805362
C13   C     C_R   0.630559 0.064353 0.478826 -0.239278
C14   C     C_R   0.495923 0.127811 0.504523 -0.023246
C15   C     C_R   0.361267 0.061687 0.531765 0.158447
C16   C     C_R   0.364339 0.933634 0.529875 -0.238288
C17   C     C_R   0.499139 0.871233 0.502751 -0.038541
C18   C     C_R   0.900380 0.582265 0.559856 -0.014675
C19   C     C_R   0.048970 0.581734 0.560366 -0.010932
C20   C     C_R   0.100070 0.418342 0.439435 -0.007395
C21   C     C_R   0.951104 0.418272 0.439566 -0.031979
C22   C     C_R   0.498572 0.261977 0.501888 0.814034
C23   C     C_R   0.579047 0.501427 0.299860 0.795562
C24   C     C_R   0.784400 0.608282 0.029115 -0.212621
C25   C     C_R   0.624083 0.516699 0.186537 -0.050197
C26   C     C_R   0.229322 0.453972 0.870975 0.153281
C27   C     C_R   0.190203 0.437343 0.978577 -0.208450
C28   C     C_R   0.290648 0.461420 0.032418 -0.220223
Cu1   Cu    Cu3+1 0.359340 0.499980 0.500000 0.965159
Cu2   Cu    Cu3+1 0.640660 0.500020 0.500000 0.938173
H1    H     H_    0.839236 0.594856 0.171873 0.155510
H2    H     H_    0.735041 0.113247 0.457867 0.155344
H3    H     H_    0.260747 0.883306 0.550794 0.142860
H4    H     H_    0.824665 0.648957 0.607025 0.107211
H5    H     H_    0.084652 0.647151 0.608776 0.110258
H6    H     H_    0.176769 0.352985 0.390901 0.116983
H7    H     H_    0.915437 0.352916 0.391111 0.113332
H8    H     H_    0.797401 0.685422 0.839241 0.133333
H9    H     H_    0.887368 0.654279 0.989035 0.137228
H10   H     H_    0.424196 0.438243 0.177514 0.139108
H11   H     H_    0.251575 0.444587 0.115164 0.134477
H12   H     H_    0.081966 0.401418 0.020523 0.147266
H13   H     H_    0.612552 0.655902 0.752850 0.154222
H14   H     H_    0.737408 0.889554 0.457174 0.153413
N1    N     N_R   0.147940 0.499970 0.499970 -0.152310
N2    N     N_R   0.852060 0.500060 0.499990 -0.154975
O1    O     O_R   0.381250 0.680340 0.500010 -0.591466
O2    O     O_R   0.618820 0.680370 0.500010 -0.597106
O3    O     O_R   0.323240 0.499950 0.650980 -0.539890
O4    O     O_R   0.560810 0.499980 0.650980 -0.585698
O5    O     O_R   0.381180 0.319630 0.499990 -0.547095
O6    O     O_R   0.618750 0.319660 0.499990 -0.595043
O7    O     O_R   0.439190 0.500020 0.349020 -0.585648
O8    O     O_R   0.676760 0.500050 0.349020 -0.586994
N3    N     N_3   0.221432 0.123365 0.563114 -0.567953
H15   H     H_    0.162812 0.093849 0.638276 0.210236
H16   H     H_    0.162281 0.096149 0.512638 0.206450
N4    N     N_3   0.126207 0.418096 0.817411 -0.557900
H17   H     H_    0.101724 0.324481 0.831679 0.216736
H18   H     H_    0.028787 0.467976 0.849079 0.214888

loop_
_geom_bond_atom_site_label_1
_geom_bond_atom_site_label_2
_ccdc_geom_bond_type
C12   O4    A    
N3    H15   S    
C19   N1    A    
C1    O2    A    
C12   O3    A    
C6    C7    A    
C7    H13   S    
C16   H3    S    
N3    H16   S    
Cu2   O8    S    
C13   H2    S    
C1    C17   S    
C20   N1    A    
C4    C8    A    
C14   C22   S    
C6    H8    S    
C2    C3    A    
Cu2   O4    S    
C9    C25   A    
C11   H14   S    
C9    C24   A    
C3    C10   A    
C19   H5    S    
C13   C14   A    
Cu1   O3    S    
C8    C25   A    
C18   H4    S    
C27   H12   S    
C10   C26   A    
C26   C27   A    
Cu1   Cu2   S    
C5    C24   A    
C10   C12   S    
Cu1   O1    S    
C2    C4    A    
C18   N2    A    
Cu2   O2    S    
Cu2   N2    S    
C23   O7    A    
C3    C7    A    
C23   C25   S    
C1    O1    A    
C5    C6    A    
C22   O5    A    
C9    H1    S    
N4    H18   S    
C15   C16   A    
C20   H6    S    
C28   H11   S    
C11   C13   A    
C24   H9    S    
C21   H7    S    
C20   C21   A    
C23   O8    A    
C22   O6    A    
C21   N2    A    
Cu1   O5    S    
C27   C28   A    
C18   C19   A    
Cu2   O6    S    
C14   C15   A    
C4    C5    A    
C2    C28   A    
C8    H10   S    
N4    H17   S    
C26   N4    S    
C11   C17   A    
Cu1   N1    S    
C16   C17   A    
Cu1   O7    S    
C15   N3    S    
