data_mof_unit_62221.cif
_audit_creation_date              2012-10-26T21:11:18-0400
_audit_creation_method            fapswitch 2.2
_symmetry_space_group_name_H-M    P1
_symmetry_Int_Tables_number       1
_space_group_crystal_system       triclinic
_cell_length_a                    15.989043
_cell_length_b                    14.432031
_cell_length_c                    13.146277
_cell_angle_alpha                 90.0
_cell_angle_beta                  90.055818
_cell_angle_gamma                 89.999832
_cell_volume                      3033.55935165

loop_
_atom_site_label
_atom_site_type_symbol
_atom_type_description
_atom_site_fract_x
_atom_site_fract_y
_atom_site_fract_z
_atom_type_partial_charge
C1    C     C_1   0.499998 0.227125 0.500000 -0.021893
C2    C     C_R   0.500000 0.671295 0.500000 0.558979
C3    C     C_R   0.337844 0.500000 0.499924 0.567802
C4    C     C_R   0.662156 0.500000 0.500076 0.567802
C5    C     C_1   0.499998 0.142311 0.499999 -0.017253
C6    C     C_1   0.500002 0.857689 0.500001 -0.017253
C7    C     C_1   0.500014 0.500000 0.173630 0.142832
C8    C     C_1   0.499986 0.500000 0.826370 0.142832
C9    C     C_1   0.499999 0.042406 0.500000 0.024273
C10   C     C_1   0.500000 0.957594 0.500000 0.024273
C11   C     C_3   0.972712 0.423859 0.548042 0.043222
C12   C     C_1   0.500002 0.772875 0.500000 -0.021893
C13   C     C_3   0.027288 0.576141 0.451958 0.043222
C14   C     C_3   0.027299 0.424327 0.451084 0.043237
C15   C     C_3   0.972701 0.575673 0.548916 0.043237
C16   C     C_1   0.500004 0.500000 0.050681 -0.026793
C17   C     C_1   0.499996 0.500000 0.949319 -0.026793
C18   C     C_1   0.249018 0.500008 0.499710 0.042347
C19   C     C_1   0.750982 0.499992 0.500290 0.042347
C20   C     C_2   0.056035 0.339267 0.395626 0.609483
C21   C     C_2   0.943965 0.660733 0.604374 0.609483
C22   C     C_2   0.943991 0.338270 0.602523 0.609509
C23   C     C_3   0.028960 0.499546 0.595539 -0.074896
C24   C     C_2   0.056009 0.661730 0.397476 0.609509
C25   C     C_3   0.937616 0.500969 0.296021 -0.358775
C26   C     C_3   0.062384 0.499031 0.703979 -0.358775
C27   C     C_3   0.971040 0.500454 0.404461 -0.074896
C28   C     C_3   0.083248 0.500014 0.498620 -0.009640
C29   C     C_3   0.916752 0.499986 0.501380 -0.009640
C30   C     C_1   0.174168 0.500013 0.499246 0.063660
C31   C     C_1   0.825832 0.499986 0.500754 0.063660
C32   C     C_R   0.499999 0.328705 0.500000 0.558978
Cu1   Cu    Cu3+1 0.499990 0.500000 0.592680 1.021395
Cu2   Cu    Cu3+1 0.500010 0.500000 0.407320 1.021395
H1    H     H_    0.152696 0.262946 0.344124 0.351687
H2    H     H_    0.101212 0.561654 0.716996 0.167227
H3    H     H_    0.847303 0.737054 0.655876 0.351687
H4    H     H_    0.847345 0.261473 0.653206 0.351722
H5    H     H_    0.152655 0.738527 0.346794 0.351722
H6    H     H_    0.990652 0.501247 0.241645 0.159689
H7    H     H_    0.898788 0.438346 0.283004 0.167227
H8    H     H_    0.898759 0.563690 0.283734 0.167226
H9    H     H_    0.009348 0.498753 0.758355 0.159689
H10   H     H_    0.101241 0.436310 0.716266 0.167226
N1    N     N_1   0.500020 0.500000 0.268070 -0.161377
N2    N     N_1   0.499980 0.500000 0.731930 -0.161377
O1    O     O_R   0.499990 0.376050 0.578280 -0.472956
O2    O     O_R   0.141389 0.322497 0.382625 -0.688595
O3    O     O_2   0.995662 0.715123 0.637923 -0.482601
O4    O     O_R   0.858611 0.677503 0.617374 -0.688595
O5    O     O_2   0.995697 0.283557 0.635412 -0.482499
O6    O     O_R   0.858641 0.321383 0.615378 -0.688615
O7    O     O_2   0.004303 0.716443 0.364588 -0.482499
O8    O     O_R   0.141359 0.678617 0.384622 -0.688615
O9    O     O_R   0.500010 0.623950 0.421720 -0.472957
O10   O     O_R   0.500010 0.376050 0.421720 -0.472917
O11   O     O_R   0.499990 0.623950 0.578280 -0.472917
O12   O     O_R   0.379070 0.500000 0.578250 -0.492660
O13   O     O_R   0.620930 0.500000 0.421750 -0.492660
O14   O     O_R   0.379080 0.500000 0.421720 -0.472816
O15   O     O_R   0.620920 0.500000 0.578280 -0.472816
O16   O     O_2   0.004338 0.284877 0.362077 -0.482601

loop_
_geom_bond_atom_site_label_1
_geom_bond_atom_site_label_2
_ccdc_geom_bond_type
C25   H8    S    
C6    C10   S    
C3    O12   A    
C13   C28   S    
Cu2   O10   S    
Cu1   O12   S    
C18   C30   T    
C16   C17   T    
C14   C27   S    
C27   C29   S    
C9    C10   T    
C11   C22   S    
C8    C17   S    
C19   C31   T    
C3    O14   A    
C28   C30   S    
Cu1   Cu2   S    
C2    O11   A    
C2    C12   S    
Cu2   O9    S    
C29   C31   S    
Cu2   N1    S    
C25   H7    S    
C23   C28   S    
Cu2   O14   S    
Cu1   N2    S    
C5    C9    S    
C20   O2    S    
C1    C5    T    
C21   O3    D    
C7    N1    T    
C4    O13   A    
H3    O4    S    
C7    C16   S    
C32   O1    A    
C26   H9    S    
C15   C29   S    
C22   O6    S    
C2    O9    A    
C13   C15   S    
C25   H6    S    
C20   O16   D    
Cu2   O13   S    
Cu1   O1    S    
C11   C14   S    
C8    N2    T    
H5    O8    S    
C25   C27   S    
C15   C23   S    
C26   H10   S    
C6    C12   T    
C14   C20   S    
C15   C21   S    
H4    O6    S    
C11   C29   S    
C3    C18   S    
Cu1   O15   S    
C23   C26   S    
C11   C23   S    
C21   O4    S    
Cu1   O11   S    
C14   C28   S    
C24   O7    D    
C4    C19   S    
C24   O8    S    
C4    O15   A    
C32   O10   A    
C1    C32   S    
C13   C27   S    
C26   H2    S    
C13   C24   S    
H1    O2    S    
C22   O5    D    
