data_mof_unit_48740.cif
_audit_creation_date              2012-12-11T16:24:03-0500
_audit_creation_method            fapswitch 2.2
_symmetry_space_group_name_H-M    P1
_symmetry_Int_Tables_number       1
_space_group_crystal_system       triclinic
_cell_length_a                    14.743239
_cell_length_b                    14.765288
_cell_length_c                    33.311351
_cell_angle_alpha                 96.15271
_cell_angle_beta                  96.329303
_cell_angle_gamma                 61.178295
_cell_volume                      6302.3101806

loop_
_atom_site_label
_atom_site_type_symbol
_atom_type_description
_atom_site_fract_x
_atom_site_fract_y
_atom_site_fract_z
_atom_type_partial_charge
C1    C     C_R   0.390840 0.699745 0.446203 0.543858
C2    C     C_R   0.328728 0.345428 0.309119 0.041639
C3    C     C_R   0.410356 0.262880 0.328942 -0.107832
C4    C     C_R   0.430657 0.272848 0.370594 -0.124826
C5    C     C_R   0.390778 0.251545 0.166398 -0.120130
C6    C     C_R   0.383057 0.233536 0.124586 -0.133427
C7    C     C_R   0.208075 0.377399 0.121684 -0.104057
C8    C     C_R   0.214968 0.395672 0.163797 0.014289
C9    C     C_R   0.306228 0.329940 0.186197 0.055927
C10   C     C_1   0.312376 0.337060 0.229579 -0.016217
C11   C     C_1   0.318362 0.341083 0.265880 -0.019421
C12   C     C_R   0.405737 0.386295 0.434026 0.544620
C13   C     C_R   0.290285 0.293817 0.102030 0.006067
C14   C     C_R   0.757377 0.372617 0.410435 0.021833
C15   C     C_R   0.792144 0.433547 0.394312 -0.131584
C16   C     C_R   0.823417 0.411879 0.354942 -0.120563
C17   C     C_R   0.820661 0.328803 0.331019 0.034802
C18   C     C_R   0.795165 0.262182 0.348409 -0.123361
C19   C     C_R   0.763656 0.283982 0.387841 -0.132607
C20   C     C_R   0.843175 0.308662 0.205992 0.347303
C21   C     C_R   0.834003 0.318567 0.287317 0.346587
C22   C     C_R   0.842853 0.388008 0.143676 -0.121279
C23   C     C_R   0.700772 0.409932 0.447541 0.545566
C24   C     C_R   0.870306 0.377751 0.104170 -0.130628
C25   C     C_R   0.911996 0.197044 0.099696 -0.132008
C26   C     C_R   0.884301 0.207391 0.139302 -0.121127
C27   C     C_R   0.854045 0.301805 0.162207 0.034881
C28   C     C_R   0.909719 0.281025 0.082502 0.022204
C29   C     C_R   0.370348 0.755249 0.409408 0.008143
C30   C     C_R   0.270869 0.799765 0.389661 -0.108104
C31   C     C_R   0.255346 0.830510 0.350011 -0.002322
C32   C     C_R   0.342099 0.814812 0.329791 0.049226
C33   C     C_R   0.439147 0.780173 0.351367 -0.131884
C34   C     C_R   0.393221 0.702062 0.561120 0.540893
C35   C     C_R   0.453168 0.750805 0.390771 -0.138294
C36   C     C_R   0.337869 0.828517 0.204750 0.347816
C37   C     C_R   0.336804 0.825083 0.285930 0.345738
C38   C     C_R   0.247751 0.842097 0.136244 -0.128879
C39   C     C_R   0.230745 0.872519 0.096905 -0.143573
C40   C     C_R   0.389605 0.887020 0.104604 -0.011094
C41   C     C_R   0.405173 0.856740 0.144366 -0.097255
C42   C     C_R   0.331880 0.839610 0.160999 0.021595
C43   C     C_R   0.297152 0.901645 0.081268 0.033447
C44   C     C_R   0.371391 0.369162 0.584910 0.022279
C45   C     C_R   0.407280 0.388844 0.548944 0.545909
C46   C     C_R   0.286489 0.449513 0.604306 -0.131584
C47   C     C_R   0.267989 0.439779 0.643338 -0.122589
C48   C     C_R   0.334074 0.349549 0.663499 0.034211
C49   C     C_R   0.412807 0.265706 0.642597 -0.121752
C50   C     C_R   0.431280 0.275409 0.603619 -0.130488
C51   C     C_R   0.323767 0.344482 0.788158 0.345816
C52   C     C_R   0.327476 0.346064 0.707029 0.347064
C53   C     C_R   0.229645 0.410024 0.851568 -0.098905
C54   C     C_R   0.214621 0.393668 0.890488 -0.011368
C55   C     C_R   0.383917 0.239374 0.891021 -0.142417
C56   C     C_R   0.701555 0.413583 0.562620 0.541272
C57   C     C_R   0.397292 0.256680 0.852509 -0.129700
C58   C     C_R   0.318017 0.338843 0.831612 0.020314
C59   C     C_R   0.290501 0.303117 0.909625 0.033532
C60   C     C_R   0.755760 0.380116 0.602579 0.019544
C61   C     C_R   0.779896 0.447418 0.629129 -0.130167
C62   C     C_R   0.810243 0.426052 0.669697 -0.112967
C63   C     C_R   0.817376 0.337110 0.684065 0.040598
C64   C     C_R   0.799748 0.266537 0.657423 -0.113047
C65   C     C_R   0.769339 0.287697 0.616838 -0.126835
C66   C     C_R   0.898160 0.207501 0.821738 0.004055
C67   C     C_R   0.369609 0.365929 0.392715 0.019504
C68   C     C_R   0.922551 0.198091 0.863460 -0.112766
C69   C     C_R   0.871181 0.380991 0.873302 -0.115822
C70   C     C_R   0.845510 0.392422 0.831729 0.004264
C71   C     C_R   0.861950 0.304639 0.805693 0.068935
C72   C     C_1   0.846815 0.313535 0.762511 -0.020369
C73   C     C_1   0.834629 0.322784 0.726621 -0.030711
C74   C     C_R   0.912938 0.283572 0.889233 -0.009302
C75   C     C_R   0.377698 0.754949 0.602096 0.034037
C76   C     C_R   0.277964 0.817769 0.617058 -0.004824
C77   C     C_R   0.270165 0.847535 0.658573 -0.087861
C78   C     C_R   0.283132 0.445653 0.372889 -0.125579
C79   C     C_R   0.359280 0.816250 0.684858 0.026873
C80   C     C_R   0.457199 0.760530 0.669768 -0.120300
C81   C     C_R   0.466419 0.730656 0.628731 -0.139708
C82   C     C_R   0.394428 0.885248 0.832461 -0.126360
C83   C     C_R   0.375906 0.911470 0.873320 -0.135156
C84   C     C_R   0.223967 0.886392 0.862389 -0.106045
C85   C     C_R   0.241741 0.860364 0.821227 0.014370
C86   C     C_R   0.326355 0.862471 0.806174 0.054001
C87   C     C_1   0.340883 0.846765 0.763558 -0.023188
C88   C     C_1   0.350069 0.834083 0.727697 -0.028643
C89   C     C_R   0.263131 0.435483 0.331206 -0.109188
C90   C     C_R   0.288695 0.915414 0.888425 0.005900
C91   C     C_R   0.963864 0.264113 0.045656 0.546724
C92   C     C_R   0.272636 0.259372 0.060088 0.544253
C93   C     C_R   0.259580 0.959476 0.043939 0.545641
C94   C     C_R   0.962969 0.267377 0.930636 0.541812
C95   C     C_R   0.270692 0.264276 0.945207 0.546426
C96   C     C_R   0.255864 0.965253 0.928894 0.542496
Cr1   Cr    Cr6+3 0.576280 0.580550 0.506370 1.012000
Cr2   Cr    Cr6+3 0.346780 0.572400 0.496520 1.007295
Cr3   Cr    Cr6+3 0.576960 0.347070 0.497150 1.011226
Cr4   Cr    Cr6+3 0.087320 0.083240 0.984860 1.010525
Cr5   Cr    Cr6+3 0.087720 0.316210 0.996740 1.001933
Cr6   Cr    Cr6+3 0.317350 0.090340 0.995890 1.002708
H1    H     H_    0.738028 0.235111 0.399603 0.128333
H2    H     H_    0.866564 0.444170 0.091530 0.128236
H3    H     H_    0.844720 0.463455 0.342630 0.133545
H4    H     H_    0.793475 0.196845 0.330846 0.131994
H5    H     H_    0.817674 0.462399 0.160301 0.133861
H6    H     H_    0.892575 0.139887 0.152670 0.134276
H7    H     H_    0.530668 0.717602 0.405463 0.135850
H8    H     H_    0.506365 0.769058 0.336882 0.137455
H9    H     H_    0.191089 0.826845 0.147953 0.136843
H10   H     H_    0.238484 0.522505 0.590493 0.128998
H11   H     H_    0.496500 0.211689 0.589201 0.129640
H12   H     H_    0.463767 0.194326 0.657049 0.133072
H13   H     H_    0.461284 0.192775 0.311948 0.117906
H14   H     H_    0.169423 0.475638 0.835964 0.130807
H15   H     H_    0.444894 0.171374 0.905074 0.133567
H16   H     H_    0.467845 0.202105 0.838332 0.135429
H17   H     H_    0.955093 0.122415 0.875437 0.132137
H18   H     H_    0.805271 0.197399 0.668353 0.107931
H19   H     H_    0.751244 0.234363 0.597200 0.125154
H20   H     H_    0.769860 0.519334 0.619168 0.125205
H21   H     H_    0.863132 0.447411 0.893024 0.124731
H22   H     H_    0.823859 0.481055 0.690202 0.109457
H23   H     H_    0.459833 0.886532 0.821054 0.112808
H24   H     H_    0.526569 0.736271 0.689989 0.113418
H25   H     H_    0.543645 0.682768 0.618359 0.133349
H26   H     H_    0.156467 0.889029 0.873637 0.125429
H27   H     H_    0.136181 0.424744 0.104595 0.128105
H28   H     H_    0.789377 0.501656 0.411181 0.129401
N1    N     N_R   0.838585 0.391639 0.229369 -0.234103
N2    N     N_R   0.250789 0.425432 0.727618 -0.238545
N3    N     N_R   0.402488 0.266351 0.727828 -0.236069
N4    N     N_R   0.400440 0.265383 0.767539 -0.234713
N5    N     N_R   0.833778 0.396632 0.269176 -0.232504
N6    N     N_R   0.838698 0.235329 0.263982 -0.234628
N7    N     N_R   0.843925 0.230137 0.224092 -0.232432
N8    N     N_R   0.270904 0.805586 0.220501 -0.234395
N9    N     N_R   0.271063 0.803049 0.260263 -0.234411
N10   N     N_R   0.404597 0.846970 0.270180 -0.233260
N11   N     N_R   0.404654 0.849314 0.230381 -0.232709
N12   N     N_R   0.248605 0.424339 0.767383 -0.241030
O1    O     O_R   0.679450 0.499830 0.463150 -0.519906
O2    O     O_R   0.356040 0.477400 0.534170 -0.502763
O3    O     O_R   0.495910 0.323070 0.537100 -0.519668
O4    O     O_R   0.663920 0.359620 0.542290 -0.501543
O5    O     O_3   0.500010 0.500010 0.500010 -0.234721
O6    O     O_R   0.170070 0.978950 0.027680 -0.522073
O7    O     O_R   0.001760 0.175230 0.026640 -0.500900
O8    O     O_R   0.984760 0.333570 0.037150 -0.520158
O9    O     O_R   0.183410 0.309240 0.041890 -0.502307
O10   O     O_R   0.340240 0.172500 0.045430 -0.525030
O11   O     O_R   0.309670 0.000990 0.032050 -0.503332
O12   O     O_R   0.480650 0.664000 0.464630 -0.500119
O13   O     O_R   0.168330 0.982130 0.939200 -0.522767
O14   O     O_R   0.000140 0.178170 0.944610 -0.501083
O15   O     O_R   0.983010 0.336750 0.948660 -0.526969
O16   O     O_R   0.181800 0.312190 0.959860 -0.503666
O17   O     O_R   0.338500 0.175680 0.956950 -0.521590
O18   O     O_R   0.308050 0.003930 0.950020 -0.500718
O19   O     O_3   0.164130 0.163270 0.992500 -0.232367
O20   O     O_R   0.323930 0.675950 0.455370 -0.521564
O21   O     O_R   0.354700 0.475360 0.451930 -0.501347
O22   O     O_R   0.494470 0.320860 0.448390 -0.519566
O23   O     O_R   0.662580 0.357570 0.460050 -0.502191
O24   O     O_R   0.680900 0.502040 0.551870 -0.522123
O25   O     O_R   0.481990 0.666040 0.546870 -0.504374
O26   O     O_R   0.325370 0.678160 0.544080 -0.519526
H29   H     H_    0.447699 0.168820 0.110283 0.126613
H30   H     H_    0.941793 0.121557 0.083643 0.129079
H31   H     H_    0.206014 0.805995 0.404451 0.126019
H32   H     H_    0.161078 0.879711 0.079690 0.132988
H33   H     H_    0.461346 0.201232 0.183531 0.118953
C97   C     C_3   0.146749 0.878103 0.330220 -0.382157
H34   H     H_    0.087910 0.901381 0.352744 0.114160
H35   H     H_    0.129967 0.948745 0.315249 0.157645
H36   H     H_    0.137727 0.821443 0.307711 0.161738
C98   C     C_3   0.470709 0.906350 0.089090 -0.378899
H37   H     H_    0.492613 0.865188 0.058954 0.138387
H38   H     H_    0.440918 0.990663 0.087190 0.169392
H39   H     H_    0.542584 0.877446 0.109491 0.107293
H40   H     H_    0.472553 0.851024 0.163015 0.132896
C99   C     C_3   0.115813 0.471548 0.909446 -0.378650
H41   H     H_    0.073400 0.542393 0.892199 0.104944
H42   H     H_    0.063143 0.437704 0.909838 0.171461
H43   H     H_    0.133886 0.496011 0.940644 0.139427
H44   H     H_    0.205735 0.505198 0.658475 0.131826
C100  C     C_3   0.915347 0.112818 0.794597 -0.401703
H45   H     H_    0.943871 0.043064 0.812089 0.119245
H46   H     H_    0.841282 0.125937 0.777628 0.139246
H47   H     H_    0.973843 0.097011 0.772799 0.137861
C101  C     C_3   0.804741 0.497499 0.815388 -0.401869
H48   H     H_    0.796107 0.557832 0.839895 0.118963
H49   H     H_    0.859040 0.494598 0.794061 0.137959
H50   H     H_    0.727499 0.520691 0.799200 0.140661
H51   H     H_    0.497670 0.210072 0.384984 0.129010
H52   H     H_    0.426942 0.933746 0.892582 0.128924
C102  C     C_3   0.179719 0.852658 0.589941 -0.386483
H53   H     H_    0.164516 0.786452 0.580798 0.155122
H54   H     H_    0.111489 0.913634 0.605542 0.112427
H55   H     H_    0.186623 0.885545 0.562683 0.139849
C103  C     C_3   0.168194 0.834554 0.793584 -0.400354
H56   H     H_    0.106086 0.836461 0.810308 0.117181
H57   H     H_    0.130862 0.891463 0.769876 0.130035
H58   H     H_    0.211562 0.755670 0.778917 0.151297
H59   H     H_    0.194501 0.891940 0.670740 0.107489
H60   H     H_    0.234730 0.518310 0.389057 0.129423
C104  C     C_3   0.123631 0.481770 0.184487 -0.394270
H61   H     H_    0.058404 0.526020 0.162406 0.120858
H62   H     H_    0.095293 0.449044 0.205568 0.149070
H63   H     H_    0.147401 0.536330 0.201819 0.143501
H64   H     H_    0.199626 0.499633 0.315975 0.113834

loop_
_geom_bond_atom_site_label_1
_geom_bond_atom_site_label_2
_ccdc_geom_bond_type
C25   H30   S    
C84   H26   S    
C66   C68   A    
C87   C88   T    
C76   C102  S    
C66   C100  S    
C95   O16   A    
C41   C42   A    
C74   C94   S    
C36   C42   S    
N10   N11   A    
C99   H41   S    
C62   H22   S    
Cr2   O21   S    
C70   C101  S    
C7    C8    A    
C85   C86   A    
C25   C28   A    
C26   C27   A    
C62   C63   A    
C103  H57   S    
C100  H47   S    
C95   O17   A    
C78   H60   S    
C36   N8    A    
C38   C42   A    
N1    N5    A    
C99   H42   S    
C68   H17   S    
C5    C6    A    
C80   C81   A    
C51   N4    A    
C96   O13   A    
C16   C17   A    
Cr2   O5    S    
C69   H21   S    
C68   C74   A    
Cr1   O24   S    
Cr5   O8    S    
C93   O6    A    
C100  H46   S    
C18   C19   A    
C8    C104  S    
C97   H34   S    
Cr1   O1    S    
C14   C15   A    
C91   O8    A    
C43   C93   S    
C23   O23   A    
C19   H1    S    
C40   C43   A    
C66   C71   A    
C104  H61   S    
C103  H58   S    
C92   O10   A    
C45   O2    A    
C102  H53   S    
C65   H19   S    
C83   H52   S    
C46   H10   S    
C21   N6    A    
C35   H7    S    
C53   H14   S    
C34   C75   S    
C72   C73   T    
Cr4   O14   S    
C49   H12   S    
Cr3   O3    S    
Cr5   O15   S    
C1    O12   A    
C81   H25   S    
C52   N3    A    
Cr1   O5    S    
C23   O1    A    
C69   C70   A    
C67   C78   A    
C84   C90   A    
C102  H55   S    
C34   O26   A    
C2    C11   S    
C9    C10   S    
C79   C88   S    
Cr2   O20   S    
C44   C46   A    
C98   H37   S    
C89   H64   S    
C54   C59   A    
C77   C79   A    
C78   C89   A    
N2    N12   A    
C12   C67   S    
C20   N7    A    
C103  H56   S    
C83   C90   A    
C63   C64   A    
C52   N2    A    
C101  H50   S    
C84   C85   A    
C10   C11   T    
C99   H43   S    
C26   H6    S    
C91   O7    A    
C86   C87   S    
C8    C9    A    
C39   C43   A    
C63   C73   S    
C25   C26   A    
Cr1   O25   S    
Cr5   O9    S    
C17   C21   S    
C56   C60   S    
C32   C33   A    
C60   C61   A    
C24   H2    S    
C101  H49   S    
C14   C23   S    
C2    C89   A    
C75   C76   A    
C18   H4    S    
C82   H23   S    
C5    C9    A    
C29   C30   A    
C12   O22   A    
C47   C48   A    
Cr6   O11   S    
C7    C13   A    
C30   C31   A    
C92   O9    A    
C1    C29   S    
C17   C18   A    
C69   C74   A    
C51   C58   S    
C32   C37   S    
C76   C77   A    
C90   C96   S    
C97   H36   S    
Cr4   O19   S    
C16   H3    S    
C59   C95   S    
C40   C98   S    
C85   C103  S    
Cr4   O13   S    
C94   O14   A    
C40   C41   A    
C96   O18   A    
Cr3   O4    S    
C60   C65   A    
C49   C50   A    
C94   O15   A    
C22   C27   A    
C55   C57   A    
C13   C92   S    
N3    N4    A    
C45   O3    A    
C41   H40   S    
Cr5   O16   S    
C20   N1    A    
Cr6   O18   S    
C3    C4    A    
C55   C59   A    
C70   C71   A    
C44   C45   S    
C55   H15   S    
C51   N12   A    
C44   C50   A    
C4    H51   S    
C36   N11   A    
Cr3   O5    S    
C46   C47   A    
C48   C49   A    
Cr2   O2    S    
C54   C99   S    
C5    H33   S    
C14   C19   A    
C31   C32   A    
C75   C81   A    
C24   C28   A    
N6    N7    A    
Cr1   O12   S    
Cr6   O17   S    
C1    O20   A    
C4    C67   A    
C98   H38   S    
C53   C58   A    
C53   C54   A    
C20   C27   S    
Cr4   O7    S    
C29   C35   A    
C64   H18   S    
C50   H11   S    
C101  H48   S    
Cr5   O19   S    
C2    C3    A    
C71   C72   S    
C3    H13   S    
C77   H59   S    
C64   C65   A    
C6    C13   A    
C82   C86   A    
C57   C58   A    
C38   C39   A    
C15   H28   S    
C80   H24   S    
Cr4   O6    S    
C104  H63   S    
C15   C16   A    
C93   O11   A    
Cr3   O22   S    
C33   C35   A    
C31   C97   S    
C28   C91   S    
C22   C24   A    
C56   O4    A    
C61   C62   A    
C97   H35   S    
C30   H31   S    
C7    H27   S    
C98   H39   S    
N8    N9    A    
C79   C80   A    
C48   C52   S    
C39   H32   S    
C104  H62   S    
C82   C83   A    
C37   N9    A    
C56   O24   A    
Cr6   O19   S    
C34   O25   A    
C61   H20   S    
C102  H54   S    
C33   H8    S    
C37   N10   A    
Cr3   O23   S    
C38   H9    S    
C47   H44   S    
C21   N5    A    
C100  H45   S    
Cr2   O26   S    
C22   H5    S    
Cr6   O10   S    
C57   H16   S    
C12   O21   A    
C6    H29   S    
