data_mof_unit_28921.cif
_audit_creation_date              2012-12-10T18:04:00-0500
_audit_creation_method            fapswitch 2.2
_symmetry_space_group_name_H-M    P1
_symmetry_Int_Tables_number       1
_space_group_crystal_system       triclinic
_cell_length_a                    10.835268
_cell_length_b                    9.539755
_cell_length_c                    10.832472
_cell_angle_alpha                 89.695842
_cell_angle_beta                  90.744483
_cell_angle_gamma                 89.961973
_cell_volume                      1119.59655852

loop_
_atom_site_label
_atom_site_type_symbol
_atom_type_description
_atom_site_fract_x
_atom_site_fract_y
_atom_site_fract_z
_atom_type_partial_charge
C1    C     C_R   0.262126 0.499954 0.500113 0.788695
C2    C     C_R   0.737878 0.499901 0.500056 0.786004
C3    C     C_R   0.417758 0.075554 0.428805 -0.096140
C4    C     C_R   0.581270 0.074375 0.572487 -0.098221
C5    C     C_R   0.417117 0.926737 0.428608 0.239327
C6    C     C_R   0.581496 0.925423 0.573084 0.237844
C7    C     C_R   0.502299 0.500176 0.262221 0.801225
C8    C     C_R   0.502864 0.499646 0.737676 0.801819
C9    C     C_R   0.517735 0.625365 0.062631 0.131014
C10   C     C_R   0.518079 0.624911 0.935510 0.132191
C11   C     C_R   0.515092 0.499758 0.129165 -0.099934
C12   C     C_R   0.515886 0.498960 0.870776 -0.097043
C13   C     C_R   0.530671 0.372946 0.065348 -0.218545
C14   C     C_R   0.531090 0.372545 0.936549 -0.221684
C15   C     C_3   0.432973 0.747712 0.926226 -0.466834
C16   C     C_3   0.432417 0.748136 0.066152 -0.476063
C17   C     C_R   0.063894 0.372517 0.495917 -0.188022
C18   C     C_R   0.936163 0.372480 0.495997 -0.189350
C19   C     C_R   0.871755 0.499758 0.500103 -0.015118
C20   C     C_R   0.128247 0.499810 0.500407 -0.016595
C21   C     C_R   0.936151 0.626942 0.504404 -0.183499
C22   C     C_R   0.063792 0.626932 0.505131 -0.188298
Cu1   Cu    Cu3+1 0.500000 0.640660 0.500000 0.983061
Cu2   Cu    Cu3+1 0.500000 0.359340 0.500000 0.938972
H1    H     H_    0.536437 0.273697 0.114113 0.165188
H2    H     H_    0.537062 0.273131 0.889138 0.161575
H3    H     H_    0.478425 0.841544 0.886136 0.194604
H4    H     H_    0.340953 0.720911 0.105007 0.204083
H5    H     H_    0.341967 0.720643 0.884088 0.199058
H6    H     H_    0.477999 0.842140 0.106200 0.196811
H7    H     H_    0.888267 0.726440 0.507327 0.149297
H8    H     H_    0.111623 0.726345 0.509670 0.146900
N1    N     N_R   0.500000 0.852070 0.500000 -0.145858
N2    N     N_R   0.500000 0.147940 0.500000 -0.169830
O1    O     O_R   0.319640 0.618740 0.499990 -0.561816
O2    O     O_R   0.680360 0.618740 0.500010 -0.561574
O3    O     O_R   0.319620 0.381170 0.499990 -0.591551
O4    O     O_R   0.680380 0.381170 0.500010 -0.593635
O5    O     O_R   0.499990 0.618810 0.319660 -0.554332
O6    O     O_R   0.500010 0.618810 0.680340 -0.556574
O7    O     O_R   0.499960 0.381240 0.319650 -0.588612
O8    O     O_R   0.500040 0.381240 0.680350 -0.587970
H9    H     H_    0.111937 0.273033 0.492245 0.146085
H10   H     H_    0.888158 0.272977 0.492557 0.147194
H11   H     H_    0.351976 0.132785 0.371843 0.130027
H12   H     H_    0.646119 0.130718 0.630587 0.128137
N3    N     N_3   0.327757 0.854824 0.354593 -0.535147
H13   H     H_    0.333132 0.894497 0.264867 0.178795
H14   H     H_    0.240538 0.881860 0.386981 0.182399
N4    N     N_3   0.666729 0.851698 0.651472 -0.531342
H15   H     H_    0.755782 0.883924 0.628681 0.179273
H16   H     H_    0.651143 0.882454 0.742401 0.184009

loop_
_geom_bond_atom_site_label_1
_geom_bond_atom_site_label_2
_ccdc_geom_bond_type
C16   H4    S    
Cu2   O4    S    
Cu1   Cu2   S    
C17   H9    S    
C18   H10   S    
C21   H7    S    
C9    C10   A    
C2    O4    A    
N4    H15   S    
C15   H3    S    
N3    H13   S    
C6    N1    A    
C1    O3    A    
C8    C12   S    
C17   C20   A    
Cu2   O3    S    
C12   C14   A    
N3    H14   S    
C4    H12   S    
C21   C22   A    
C14   H2    S    
C7    C11   S    
Cu2   O7    S    
C11   C13   A    
C13   H1    S    
C10   C12   A    
Cu1   O5    S    
C9    C11   A    
C4    C6    A    
C5    N3    S    
C9    C16   S    
C8    O8    A    
C15   H5    S    
Cu1   O1    S    
C10   C15   S    
C7    O7    A    
C4    N2    A    
C16   H6    S    
C15   C16   S    
C5    N1    A    
C3    C5    A    
C22   H8    S    
Cu2   O8    S    
C1    O1    A    
C17   C18   A    
Cu1   O2    S    
C2    O2    A    
N4    H16   S    
C7    O5    A    
C18   C19   A    
C1    C20   S    
C8    O6    A    
C3    N2    A    
C19   C21   A    
C2    C19   S    
C13   C14   A    
C3    H11   S    
C6    N4    S    
Cu1   O6    S    
C20   C22   A    
Cu1   N1    S    
Cu2   N2    S    
