data_mof_unit_51315.cif
_audit_creation_date              2012-12-11T14:27:06-0500
_audit_creation_method            fapswitch 2.2
_symmetry_space_group_name_H-M    P1
_symmetry_Int_Tables_number       1
_space_group_crystal_system       triclinic
_cell_length_a                    14.992481
_cell_length_b                    14.856969
_cell_length_c                    14.920467
_cell_angle_alpha                 109.561261
_cell_angle_beta                  109.51719
_cell_angle_gamma                 109.237507
_cell_volume                      2561.43748202

loop_
_atom_site_label
_atom_site_type_symbol
_atom_type_description
_atom_site_fract_x
_atom_site_fract_y
_atom_site_fract_z
_atom_type_partial_charge
C1    C     C_R   0.991159 0.798622 0.085075 -0.156654
C2    C     C_R   0.219534 0.745395 0.312832 -0.115897
C3    C     C_R   0.900425 0.408455 0.203983 -0.109447
C4    C     C_R   0.788133 0.202122 0.695858 -0.151489
C5    C     C_R   0.298699 0.591329 0.994824 -0.149332
C6    C     C_R   0.923424 0.498967 0.293821 0.024287
C7    C     C_R   0.299656 0.500189 0.931421 -0.002049
C8    C     C_R   0.321536 0.769344 0.323711 0.132003
C9    C     C_R   0.059373 0.234259 0.057718 0.134897
C10   C     C_3   0.470429 0.396933 0.830890 -0.395160
C11   C     C_3   0.366187 0.396748 0.825769 -0.406313
C12   C     C_R   0.692485 0.141814 0.690919 0.135507
C13   C     C_3   0.564922 0.499912 0.038792 -0.390057
C14   C     C_3   0.572217 0.603480 0.934170 -0.395172
C15   C     C_3   0.572314 0.500093 0.937649 0.384910
C16   C     C_R   0.040940 0.592173 0.777221 -0.129001
C17   C     C_3   0.396401 0.500169 0.928507 0.394150
C18   C     C_3   0.461979 0.500066 0.033424 -0.384424
C19   C     C_3   0.468094 0.603636 0.929056 -0.407187
C20   C     C_2   0.433432 0.866273 0.522662 -0.113991
C21   C     C_2   0.424064 0.819204 0.423845 -0.185929
C22   C     C_2   0.535609 0.963121 0.617139 -0.113983
C23   C     C_R   0.972756 0.500031 0.673706 0.110995
C24   C     C_2   0.607920 0.030877 0.603123 -0.190958
C25   C     C_2   0.851084 0.415871 0.477754 -0.031792
C26   C     C_2   0.939901 0.501394 0.571575 -0.146586
C27   C     C_2   0.837584 0.407517 0.373018 -0.143120
C28   C     C_R   0.685635 0.408051 0.935064 -0.134241
C29   C     C_2   0.871383 0.496998 0.361573 -0.078880
C30   C     C_2   0.164092 0.140367 0.077453 -0.107807
C31   C     C_2   0.111099 0.186637 0.113488 -0.191664
C32   C     C_2   0.157403 0.040239 0.079028 -0.115596
C33   C     C_2   0.071696 0.970757 0.077353 -0.194217
C34   C     C_R   0.673920 0.500060 0.951135 -0.003250
C35   C     C_R   0.948772 0.407743 0.685454 -0.129031
C36   C     C_R   0.776195 0.592016 0.026933 -0.132079
C37   C     C_R   0.697805 0.201357 0.787984 -0.126431
C38   C     C_R   0.083311 0.798449 0.994755 -0.113103
C39   C     C_R   0.046394 0.858670 0.049176 0.136663
C40   C     C_2   0.864548 0.595390 0.421254 0.534231
C41   C     C_R   0.989438 0.590388 0.295118 -0.156434
C42   C     C_R   0.208846 0.408932 0.903517 -0.152451
C43   C     C_R   0.311934 0.744878 0.221842 -0.150416
C44   C     C_R   0.980442 0.257077 0.069834 -0.151692
C45   C     C_R   0.072227 0.256673 0.978364 -0.112809
H1    H     H_    0.966589 0.829076 0.143866 0.089888
H2    H     H_    0.474521 0.396538 0.757665 0.161593
H3    H     H_    0.318288 0.395461 0.749618 0.157248
H4    H     H_    0.816224 0.172400 0.640337 0.090826
H5    H     H_    0.315582 0.319965 0.821755 0.146580
H6    H     H_    0.564221 0.425937 0.042225 0.158292
H7    H     H_    0.411814 0.426202 0.034264 0.157530
H8    H     H_    0.643263 0.680554 0.008475 0.145373
H9    H     H_    0.576992 0.604235 0.861565 0.161931
H10   H     H_    0.421567 0.604942 0.854162 0.156929
H11   H     H_    0.492971 0.680386 0.001579 0.146167
H12   H     H_    0.178894 0.323840 0.847492 0.086665
H13   H     H_    0.637152 0.573620 0.116151 0.158345
H14   H     H_    0.484721 0.573971 0.107998 0.159132
H15   H     H_    0.361904 0.847133 0.532016 0.114472
H16   H     H_    0.077510 0.677243 0.797414 0.096842
H17   H     H_    0.495923 0.833084 0.415554 0.130425
H18   H     H_    0.542222 0.987536 0.697232 0.115132
H19   H     H_    0.601354 0.009349 0.523350 0.128563
H20   H     H_    0.799736 0.343447 0.476322 0.103140
H21   H     H_    0.994435 0.572223 0.573195 0.119249
H22   H     H_    0.827761 0.331223 0.317206 0.102001
H23   H     H_    0.376052 0.753349 0.201864 0.096307
H24   H     H_    0.195005 0.161419 0.026957 0.114561
H25   H     H_    0.087029 0.171020 0.170156 0.128498
H26   H     H_    0.213712 0.015549 0.063643 0.116968
H27   H     H_    0.622581 0.322964 0.888474 0.089653
H28   H     H_    0.012861 0.992588 0.089789 0.130066
H29   H     H_    0.901781 0.322534 0.621302 0.087680
H30   H     H_    0.797019 0.677138 0.065356 0.089377
H31   H     H_    0.643682 0.172660 0.817366 0.079736
H32   H     H_    0.140857 0.826851 0.968698 0.080009
H33   H     H_    0.010621 0.674364 0.344440 0.079997
H34   H     H_    0.951830 0.249509 0.125896 0.098470
H35   H     H_    0.907559 0.672336 0.425062 -0.030954
H36   H     H_    0.128070 0.249337 0.949786 0.088136
H37   H     H_    0.197279 0.753098 0.375636 0.091983
H38   H     H_    0.836869 0.324744 0.167315 0.082392
H39   H     H_    0.352706 0.676525 0.024174 0.084999
H40   H     H_    0.465513 0.319710 0.827950 0.145961
N1    N     N_R   0.993980 0.704500 0.053430 -0.037983
N2    N     N_R   0.053690 0.556380 0.849240 -0.041502
N3    N     N_R   0.790390 0.443640 0.997160 -0.036439
N4    N     N_R   0.998260 0.443670 0.792970 -0.039797
N5    N     N_R   0.845830 0.556350 0.053430 -0.035426
N6    N     N_R   0.792820 0.295510 0.849240 -0.041027
N7    N     N_R   0.051260 0.704510 0.997160 -0.042451
N8    N     N_R   0.001740 0.556330 0.207030 -0.034497
N9    N     N_R   0.154170 0.443650 0.946570 -0.032815
N10   N     N_R   0.207180 0.704490 0.150760 -0.042664
N11   N     N_R   0.948740 0.295490 0.002840 -0.042983
N12   N     N_R   0.006020 0.295500 0.946570 -0.045135
N13   N     N_R   0.149890 0.704480 0.207030 -0.045014
N14   N     N_R   0.946310 0.443620 0.150760 -0.039115
N15   N     N_R   0.209610 0.556360 0.002840 -0.031737
N16   N     N_R   0.850110 0.295520 0.792970 -0.038608
Ni1   Ni    Ni4+2 0.997880 0.629240 0.129060 0.208687
Ni2   Ni    Ni4+2 0.002120 0.370760 0.870940 0.212036
Ni3   Ni    Ni4+2 0.129260 0.629260 0.000000 0.209466
Ni4   Ni    Ni4+2 0.870740 0.370740 0.000000 0.207555
O1    O     O_2   0.807441 0.590358 0.463721 -0.569717

loop_
_geom_bond_atom_site_label_1
_geom_bond_atom_site_label_2
_ccdc_geom_bond_type
C19   H11   S    
N11   Ni4   S    
C10   H40   S    
C9    C45   A    
C27   C29   D    
N6    Ni4   S    
C8    C43   A    
C3    C6    A    
N10   N13   A    
C18   H7    S    
C35   H29   S    
C33   C39   S    
C13   C18   S    
C10   C15   S    
C38   C39   A    
C1    H1    S    
C23   C26   S    
C19   H10   S    
C38   N7    A    
N15   Ni3   S    
C7    C42   A    
C12   C37   A    
N5    Ni1   S    
C22   H18   S    
C13   H6    S    
C31   H25   S    
C41   N8    A    
C43   H23   S    
C7    C17   S    
C6    C41   A    
C28   N3    A    
C16   N2    A    
C43   N10   A    
C40   H35   S    
C4    C12   A    
N8    N14   A    
C15   C34   S    
C28   C34   A    
N16   Ni2   S    
N11   N12   A    
C11   H3    S    
C28   H27   S    
N6    N16   A    
C42   H12   S    
C8    C21   S    
C32   H26   S    
N14   Ni4   S    
C45   H36   S    
C37   N6    A    
C26   H21   S    
C25   H20   S    
C41   H33   S    
C5    C7    A    
C5    H39   S    
C1    C39   A    
C13   H13   S    
C25   C26   D    
N13   Ni1   S    
C44   N11   A    
C36   H30   S    
N7    Ni3   S    
C5    N15   A    
N9    N15   A    
C4    N16   A    
C6    C29   S    
C17   C18   S    
C21   H17   S    
N12   Ni2   S    
C35   N4    A    
C33   H28   S    
C14   H9    S    
C37   H31   S    
C20   C22   S    
N9    Ni2   S    
C16   C23   A    
C23   C35   A    
C13   C15   S    
C3    H38   S    
C22   C24   D    
C2    H37   S    
C20   H15   S    
C16   H16   S    
N1    Ni1   S    
C30   H24   S    
N10   Ni3   S    
C40   O1    D    
C36   N5    A    
C1    N1    A    
C11   C17   S    
C9    C44   A    
C42   N9    A    
C14   C19   S    
C44   H34   S    
C2    C8    A    
N3    N5    A    
N8    Ni1   S    
C38   H32   S    
C25   C27   S    
C12   C24   S    
C4    H4    S    
C32   C33   D    
N2    N4    A    
C11   H5    S    
N1    N7    A    
C30   C32   S    
N3    Ni4   S    
C30   C31   D    
C29   C40   S    
C17   C19   S    
C34   C36   A    
C27   H22   S    
C10   C11   S    
C9    C31   S    
N2    Ni3   S    
C3    N14   A    
C18   H14   S    
C14   H8    S    
C20   C21   D    
C2    N13   A    
C24   H19   S    
C10   H2    S    
C14   C15   S    
C45   N12   A    
N4    Ni2   S    
