data_mof_unit_23019.cif
_audit_creation_date              2012-12-11T19:09:50-0500
_audit_creation_method            fapswitch 2.2
_symmetry_space_group_name_H-M    P1
_symmetry_Int_Tables_number       1
_space_group_crystal_system       triclinic
_cell_length_a                    8.258
_cell_length_b                    15.043817
_cell_length_c                    27.024393
_cell_angle_alpha                 99.032343
_cell_angle_beta                  92.465439
_cell_angle_gamma                 81.32462
_cell_volume                      3277.08117489

loop_
_atom_site_label
_atom_site_type_symbol
_atom_type_description
_atom_site_fract_x
_atom_site_fract_y
_atom_site_fract_z
_atom_type_partial_charge
Ba1   Ba    Ba6+2 0.860050 0.456430 0.522540 1.695825
Ba2   Ba    Ba6+2 0.329780 0.543490 0.477450 1.694536
C1    C     C_3   0.744190 0.131740 0.647593 -0.340970
C2    C     C_R   0.882246 0.580946 0.176557 0.573780
C3    C     C_2   0.756192 0.553104 0.273506 -0.086058
C4    C     C_3   0.230319 0.225421 0.650761 0.291318
C5    C     C_3   0.735112 0.586864 0.328756 -0.057235
C6    C     C_1   0.987152 0.484945 0.342767 0.031188
C7    C     C_2   0.031211 0.482909 0.295305 -0.105282
C8    C     C_2   0.907298 0.515413 0.256393 0.185007
C9    C     C_R   0.023851 0.504471 0.100530 -0.080330
C10   C     C_R   0.096347 0.435526 0.127672 -0.035360
C11   C     C_R   0.209502 0.364874 0.103288 -0.059789
C12   C     C_3   0.705102 0.223366 0.629202 0.331539
C13   C     C_R   0.914005 0.576648 0.125168 -0.023516
C14   C     C_2   0.846524 0.529981 0.360775 -0.292832
C15   C     C_2   0.350527 0.471497 0.637850 -0.273626
C16   C     C_3   0.182333 0.218205 0.703687 0.265846
C17   C     C_R   0.222130 0.430542 0.974072 0.020269
C18   C     C_R   0.016159 0.566422 0.969864 0.019744
C19   C     C_R   0.138572 0.497673 0.946546 0.051481
C20   C     C_R   0.346712 0.365637 0.949413 -0.098946
C21   C     C_R   0.385615 0.365798 0.899690 -0.071200
C22   C     C_R   0.302092 0.430329 0.871831 -0.043311
C23   C     C_3   0.497178 0.682480 0.630255 0.347279
C24   C     C_R   0.178325 0.496345 0.895165 -0.078307
C25   C     C_R   0.095324 0.561598 0.867263 -0.032544
C26   C     C_R   0.137513 0.560557 0.816803 0.581040
C27   C     C_R   0.340749 0.430073 0.821148 0.624215
C28   C     C_3   0.220455 0.265492 0.412134 0.313249
C29   C     C_2   0.456079 0.484188 0.726586 -0.062593
C30   C     C_3   0.496864 0.485198 0.672381 -0.066210
C31   C     C_1   0.204582 0.509018 0.653996 0.052174
C32   C     C_2   0.165540 0.504704 0.700924 -0.087962
C33   C     C_2   0.297833 0.493229 0.740937 0.217751
C34   C     C_3   0.477701 0.714436 0.686375 -0.336418
C35   C     C_R   0.179745 0.430910 0.025071 0.018747
C36   C     C_R   0.061730 0.501723 0.048867 0.049416
C37   C     C_R   0.981534 0.570202 0.021670 0.019843
C38   C     C_R   0.251242 0.362831 0.053502 -0.100226
C39   C     C_R   0.838437 0.644508 0.098154 -0.059397
C40   C     C_3   0.246200 0.162577 0.396967 -0.381467
C41   C     C_R   0.932483 0.629431 0.940251 -0.101279
C42   C     C_R   0.971638 0.627126 0.890395 -0.059142
C43   C     C_R   0.870072 0.641139 0.047710 -0.102989
C44   C     C_R   0.350998 0.176058 0.532910 -0.016730
C45   C     C_3   0.012638 0.745035 0.342745 0.332226
C46   C     C_R   0.576060 0.209596 0.488346 0.065383
C47   C     C_R   0.736735 0.769445 0.474188 -0.204782
C48   C     C_R   0.834061 0.828362 0.459405 0.045853
C49   C     C_R   0.782161 0.922222 0.468294 -0.143227
C50   C     C_R   0.634158 0.958416 0.493824 0.016130
C51   C     C_R   0.549908 0.897423 0.514579 -0.018897
C52   C     C_3   0.003388 0.762452 0.618441 0.901991
C53   C     C_R   0.569552 0.053070 0.501024 0.010437
C54   C     C_R   0.421163 0.083788 0.527812 -0.021363
C55   C     C_R   0.345235 0.021924 0.548649 -0.106578
C56   C     C_3   0.026819 0.772944 0.291631 -0.359412
C57   C     C_R   0.409669 0.931265 0.542822 -0.033498
C58   C     C_R   0.643343 0.117886 0.480848 -0.136220
C59   C     C_R   0.432833 0.238553 0.514986 -0.285492
C60   C     C_R   0.607450 0.803423 0.506585 0.058957
C61   C     C_3   0.112457 0.836704 0.628591 -0.284488
C62   C     C_3   0.695893 0.341622 0.371953 0.302822
C63   C     C_3   0.703720 0.317834 0.315187 -0.362823
C64   C     C_3   0.413479 0.162181 0.748605 0.332035
C65   C     C_3   0.358032 0.131554 0.795765 -0.207970
C66   C     C_3   0.475147 0.050304 0.809682 -0.484448
C67   C     C_3   0.474719 0.782720 0.364020 0.386945
C68   C     C_3   0.427807 0.870183 0.341879 -0.360101
C69   C     C_R   0.053670 0.438125 0.178456 0.598541
Cl1   Cl    Cl    0.815772 0.811885 0.646996 -0.702009
Cl2   Cl    Cl    0.979692 0.734585 0.553239 -0.719893
H1    H     H_    0.812970 0.233396 0.608946 0.119951
H2    H     H_    0.801777 0.079637 0.616913 0.105043
H3    H     H_    0.805708 0.261784 0.304656 0.130923
H4    H     H_    0.724186 0.377993 0.298557 0.068302
H5    H     H_    0.586699 0.296153 0.299793 0.134978
H6    H     H_    0.598845 0.221790 0.602963 -0.031242
H7    H     H_    0.629631 0.109727 0.658506 0.100453
H8    H     H_    0.382554 0.657914 0.614734 -0.011727
H9    H     H_    0.600401 0.625637 0.624486 0.048769
H10   H     H_    0.399279 0.781621 0.693330 0.134098
H11   H     H_    0.419165 0.665728 0.703702 0.051768
H12   H     H_    0.330840 0.142982 0.364978 0.126019
H13   H     H_    0.599279 0.720578 0.704681 0.159804
H14   H     H_    0.830710 0.136349 0.680489 0.125687
H15   H     H_    0.074213 0.673792 0.341778 0.059374
H16   H     H_    0.880504 0.749383 0.350243 -0.061526
H17   H     H_    0.156864 0.766407 0.281494 0.151276
H18   H     H_    0.965005 0.728317 0.263062 0.136937
H19   H     H_    0.968405 0.844305 0.291771 0.114997
H20   H     H_    0.610284 0.771599 0.368128 -0.094756
H21   H     H_    0.420360 0.791802 0.401705 0.070792
H22   H     H_    0.475659 0.927130 0.366497 0.062702
H23   H     H_    0.299561 0.128649 0.428719 0.060526
H24   H     H_    0.292793 0.886845 0.338652 0.148795
H25   H     H_    0.240493 0.297955 0.649066 0.016408
H26   H     H_    0.481127 0.862579 0.304144 0.122116
H27   H     H_    0.158365 0.461592 0.285261 0.147171
H28   H     H_    0.268232 0.310657 0.122905 0.121094
H29   H     H_    0.555564 0.481610 0.754168 0.104605
H30   H     H_    0.482857 0.314604 0.883088 0.110837
H31   H     H_    0.419167 0.314038 0.967708 0.067237
H32   H     H_    0.339118 0.305720 0.038217 0.067967
H33   H     H_    0.655771 0.571348 0.248097 0.129541
H34   H     H_    0.127277 0.138696 0.385780 0.128202
H35   H     H_    0.752508 0.701014 0.115959 0.123008
H36   H     H_    0.833864 0.681473 0.954184 0.068444
H37   H     H_    0.350476 0.182458 0.642121 -0.022674
H38   H     H_    0.903533 0.677524 0.869868 0.122923
H39   H     H_    0.038116 0.516648 0.711494 0.145744
H40   H     H_    0.806481 0.696783 0.030567 0.068812
H41   H     H_    0.825295 0.542671 0.400777 0.077866
H42   H     H_    0.366034 0.438022 0.599353 0.067470
H43   H     H_    0.379598 0.309488 0.519045 0.064483
H44   H     H_    0.234369 0.042222 0.569820 0.103879
H45   H     H_    0.127559 0.858672 0.669560 0.104795
H46   H     H_    0.750789 0.099268 0.458152 0.083683
H47   H     H_    0.777406 0.696816 0.467164 0.083326
H48   H     H_    0.862320 0.964773 0.456464 0.074062
H49   H     H_    0.070533 0.268095 0.713485 0.082038
H50   H     H_    0.343429 0.888023 0.559695 0.100752
H51   H     H_    0.147722 0.149730 0.705218 0.002763
H52   H     H_    0.340137 0.288336 0.422035 0.001584
H53   H     H_    0.139455 0.282962 0.445055 0.064850
H54   H     H_    0.538789 0.180483 0.755478 0.116671
H55   H     H_    0.422657 0.104894 0.716753 -0.006453
H56   H     H_    0.058924 0.896913 0.611025 0.101591
H57   H     H_    0.352984 0.188590 0.827477 0.141017
H58   H     H_    0.233223 0.112370 0.789352 0.111868
H59   H     H_    0.479565 0.991832 0.778791 0.156807
H60   H     H_    0.432009 0.029818 0.844012 0.146972
H61   H     H_    0.600364 0.068396 0.817198 0.140610
H62   H     H_    0.233995 0.811164 0.612932 0.102970
H63   H     H_    0.814411 0.361144 0.386676 0.007822
H64   H     H_    0.596814 0.399803 0.381314 0.076867
N1    N     N_R   0.948014 0.510947 0.203126 -0.419308
N2    N     N_R   0.257713 0.494299 0.793620 -0.425370
O1    O     O_2   0.906490 0.548660 0.619040 -0.461497
O2    O     O_2   0.170044 0.826812 0.473537 -0.462112
O3    O     O_3   0.088020 0.803636 0.378970 -0.607427
O4    O     O_3   0.138490 0.548590 0.558860 -0.445675
O5    O     O_3   0.572560 0.389970 0.472910 -0.498087
O6    O     O_2   0.345680 0.723560 0.528460 -0.442350
O7    O     O_3   0.529073 0.755756 0.607671 -0.581096
O8    O     O_2   0.418964 0.533961 0.324140 -0.491186
O9    O     O_3   0.415807 0.710072 0.332586 -0.585621
O10   O     O_2   0.109468 0.374664 0.200247 -0.599735
O11   O     O_2   0.448374 0.372073 0.801602 -0.566789
O12   O     O_3   0.664848 0.265309 0.391723 -0.635748
O13   O     O_2   0.797156 0.648542 0.197689 -0.622694
O14   O     O_2   0.069020 0.620135 0.793948 -0.592263
O15   O     O_3   0.686290 0.382320 0.585720 -0.494007
O16   O     O_2   0.839767 0.425179 0.671519 -0.497233
O17   O     O_3   0.072315 0.689253 0.642698 -0.643012
O18   O     O_3   0.667933 0.292770 0.669909 -0.589967
O19   O     O_2   0.844020 0.276410 0.471510 -0.459994
O20   O     O_3   0.101490 0.335510 0.560360 -0.480765
O21   O     O_2   0.013796 0.174987 0.523805 -0.484688
O22   O     O_3   0.308464 0.240779 0.738186 -0.628844
O23   O     O_3   0.109697 0.193914 0.617257 -0.647417
O24   O     O_2   0.283210 0.451320 0.380930 -0.460589
O25   O     O_3   0.051220 0.451340 0.441130 -0.492934
O26   O     O_3   0.503420 0.617610 0.414270 -0.489873
O27   O     O_3   0.150055 0.305524 0.371462 -0.624909
O28   O     O_3   0.617160 0.609950 0.527080 -0.467940
O29   O     O_3   0.088220 0.664410 0.439630 -0.442859
P1    P     P_3+3 0.071960 0.575810 0.612130 1.086144
P2    P     P_3+3 0.664360 0.290070 0.457280 0.978621
P3    P     P_3+3 0.144978 0.218393 0.557956 0.923945
P4    P     P_3+3 0.117760 0.424110 0.387870 0.994646
P5    P     P_3+3 0.043927 0.781536 0.438044 1.011185
P6    P     P_3+3 0.673785 0.398450 0.650674 0.977213
P7    P     P_3+3 0.531494 0.724274 0.542767 1.027387
P8    P     P_3+3 0.518390 0.608502 0.349422 0.950530

loop_
_geom_bond_atom_site_label_1
_geom_bond_atom_site_label_2
_ccdc_geom_bond_type
O2    P5    D    
C53   C54   A    
C28   H53   S    
O27   P4    S    
O1    P1    D    
C39   H35   S    
Ba2   O29   S    
C32   H39   S    
Ba1   P2    S    
Ba2   O5    S    
C19   C24   A    
C31   P1    S    
C18   C41   A    
C62   H63   S    
C51   C57   A    
C69   O10   D    
C68   H26   S    
C44   P3    S    
Ba2   O6    S    
C45   O3    S    
C24   C25   A    
O9    P8    S    
C63   H3    S    
O20   P3    S    
C48   P5    S    
C40   H23   S    
C12   H1    S    
O28   P7    S    
Ba1   O19   S    
C17   C19   A    
C22   C24   A    
C32   C33   S    
C35   C38   A    
C67   H20   S    
C52   O17   S    
C36   C37   A    
C16   O22   S    
C55   C57   A    
C47   H47   S    
C52   C61   S    
Ba1   O28   S    
C34   H10   S    
O5    P2    S    
O17   P1    S    
C20   H31   S    
C64   H54   S    
C58   H46   S    
Ba1   Ba2   S    
C66   H59   S    
C22   C27   A    
C11   C38   A    
C17   C35   A    
C33   N2    S    
C27   O11   D    
C9    C13   A    
C25   C42   A    
C21   H30   S    
O23   P3    S    
C4    O23   S    
Ba1   O25   S    
C6    C7    D    
C21   C22   A    
C23   O7    S    
C47   C60   A    
O3    P5    S    
C1    H2    S    
C7    C8    S    
C50   C53   A    
O18   P6    S    
C37   C43   A    
C64   C65   S    
C28   H52   S    
C6    C14   D    
C53   C58   A    
O7    P7    S    
C56   H18   S    
C23   H8    S    
Ba2   O4    S    
C4    H37   S    
Ba1   O15   S    
C26   N2    Am   
C15   C31   D    
C27   N2    Am   
C1    H7    S    
C46   C58   A    
C69   N1    Am   
C3    H33   S    
C57   H50   S    
O29   P5    S    
C2    O13   D    
C4    C16   S    
C63   H4    S    
C15   C30   S    
O15   P6    S    
C12   O18   S    
C1    H14   S    
C49   C50   A    
C29   H29   S    
O6    P7    D    
Ba1   O20   S    
C17   C20   A    
C13   C39   A    
C67   H21   S    
Ba2   O25   S    
C3    C5    S    
C61   H45   S    
O8    P8    D    
O19   P2    D    
C62   O12   S    
C34   H13   S    
C30   P6    S    
C65   C66   S    
C64   O22   S    
O26   P8    S    
C61   H62   S    
C9    C36   A    
C41   C42   A    
C35   C36   A    
Ba1   O4    S    
C52   Cl2   S    
C56   H17   S    
C51   C60   A    
C29   C30   S    
C5    P8    S    
C59   H43   S    
C31   C32   D    
C48   C49   A    
C40   H12   S    
C12   H6    S    
C10   C11   A    
O24   P4    D    
O12   P2    S    
Ba2   O26   S    
O4    P1    S    
Ba1   O1    S    
C16   H49   S    
C46   P2    S    
O16   P6    D    
C5    C14   S    
C10   C69   A    
C45   H16   S    
C7    H27   S    
C23   H9    S    
C49   H48   S    
C29   C33   D    
O25   P4    S    
C65   H57   S    
C54   C55   A    
C11   H28   S    
C4    H25   S    
C25   C26   A    
C44   C59   A    
C50   C51   A    
C15   H42   S    
C55   H44   S    
C40   H34   S    
C28   O27   S    
C18   C37   A    
C66   H60   S    
C63   H5    S    
C65   H58   S    
C14   H41   S    
Ba2   O24   S    
C9    C10   A    
C68   H24   S    
C1    C12   S    
C8    N1    S    
C45   H15   S    
C2    C13   A    
C66   H61   S    
C68   H22   S    
C3    C8    D    
Ba1   O5    S    
C62   C63   S    
C45   C56   S    
C46   C59   A    
C26   O14   D    
C34   H11   S    
C60   P7    S    
Ba1   P1    S    
O21   P3    D    
C64   H55   S    
C61   H56   S    
C67   C68   S    
C23   C34   S    
C2    N1    Am   
C42   H38   S    
C43   H40   S    
C52   Cl1   S    
C18   C19   A    
C47   C48   A    
C44   C54   A    
C62   H64   S    
C67   O9    S    
C39   C43   A    
C20   C21   A    
C28   C40   S    
C41   H36   S    
C16   H51   S    
C56   H19   S    
Ba2   O28   S    
C6    P4    S    
Ba2   P4    S    
C38   H32   S    
