data_mof_unit_46896.cif
_audit_creation_date              2012-12-10T16:48:46-0500
_audit_creation_method            fapswitch 2.2
_symmetry_space_group_name_H-M    P1
_symmetry_Int_Tables_number       1
_space_group_crystal_system       triclinic
_cell_length_a                    7.85311
_cell_length_b                    8.558401
_cell_length_c                    10.845138
_cell_angle_alpha                 90.071452
_cell_angle_beta                  96.94281
_cell_angle_gamma                 92.815315
_cell_volume                      722.665327945

loop_
_atom_site_label
_atom_site_type_symbol
_atom_type_description
_atom_site_fract_x
_atom_site_fract_y
_atom_site_fract_z
_atom_type_partial_charge
C1    C     C_R   0.543933 0.794186 0.497844 0.957605
C2    C     C_2   0.430163 0.042393 0.496307 -0.382150
C3    C     C_2   0.721064 0.427352 0.121169 0.931409
C4    C     C_2   0.455358 0.241099 0.891714 0.888792
C5    C     C_3   0.132828 0.420117 0.998351 -0.668377
C6    C     C_3   0.582433 0.780205 0.912795 -0.646740
C7    C     C_3   0.938928 0.190914 0.407860 -0.619364
C8    C     C_3   0.064029 0.785236 0.634707 -0.680367
C9    C     C_R   0.455111 0.205660 0.499917 1.034028
C10   C     C_R   0.568686 0.494530 0.733640 0.960180
C11   C     C_R   0.432358 0.503592 0.263299 0.834826
C12   C     C_2   0.601491 0.505862 0.864915 -0.073037
C13   C     C_2   0.406743 0.485150 0.126603 -0.035022
C14   C     C_2   0.521152 0.401729 0.935030 -0.099874
C15   C     C_2   0.538189 0.431236 0.067256 0.016917
C16   C     C_2   0.567456 0.957036 0.500517 -0.367284
H1    H     H_    0.697910 0.005782 0.508888 0.172595
H2    H     H_    0.657828 0.881232 0.959720 0.263425
H3    H     H_    0.468564 0.754607 0.962109 0.264561
H4    H     H_    0.539510 0.812489 0.815144 0.197549
H5    H     H_    0.012987 0.381747 0.305430 0.245996
H6    H     H_    0.938540 0.162690 0.507719 0.217111
H7    H     H_    0.023991 0.109579 0.368044 0.204766
H8    H     H_    0.809306 0.174709 0.355056 0.255781
H9    H     H_    0.027856 0.567895 0.711851 0.216683
H10   H     H_    0.042081 0.840185 0.541758 0.229599
H11   H     H_    0.202348 0.795083 0.671344 0.235821
H12   H     H_    0.299297 0.992906 0.490057 0.169343
H13   H     H_    0.991663 0.848891 0.699082 0.209050
H14   H     H_    0.937025 0.561433 0.178191 0.319049
H15   H     H_    0.431494 0.073956 0.759152 0.331075
H16   H     H_    0.195140 0.621673 0.104901 0.229827
H17   H     H_    0.005260 0.469969 0.975598 0.228548
H18   H     H_    0.120174 0.317265 0.059622 0.282284
H19   H     H_    0.172355 0.384789 0.908393 0.243435
H20   H     H_    0.801255 0.672375 0.878865 0.225549
N1    N     N_2   0.940600 0.458860 0.467170 0.034847
N2    N     N_2   0.059400 0.541140 0.532830 0.030644
N3    N     N_2   0.253244 0.538085 0.058331 -0.331020
N4    N     N_2   0.688357 0.646253 0.915915 -0.302690
N5    N     N_2   0.005152 0.348817 0.395232 -0.194384
N6    N     N_2   0.003256 0.623405 0.627707 -0.189974
O1    O     O_R   0.391630 0.738350 0.508060 -0.627543
O2    O     O_R   0.808729 0.568697 0.160430 -0.769875
O3    O     O_2   0.383381 0.155226 0.961587 -0.632216
O4    O     O_R   0.482220 0.184309 0.775353 -0.825820
O5    O     O_R   0.608370 0.261650 0.491940 -0.623178
O6    O     O_R   0.674540 0.711990 0.487010 -0.594440
O7    O     O_R   0.325460 0.288010 0.512990 -0.598503
O8    O     O_R   0.411370 0.508250 0.688780 -0.619878
O9    O     O_R   0.588630 0.491750 0.311220 -0.596365
O10   O     O_R   0.694270 0.481880 0.667740 -0.619883
O11   O     O_R   0.305730 0.518120 0.332260 -0.628633
O12   O     O_2   0.796133 0.305673 0.120709 -0.679257
Zn1   Zn    Zn3+2 0.311100 0.517600 0.514050 0.971168
Zn2   Zn    Zn3+2 0.688900 0.482400 0.485950 1.003410

loop_
_geom_bond_atom_site_label_1
_geom_bond_atom_site_label_2
_ccdc_geom_bond_type
H9    N6    S    
C12   N4    S    
C1    O6    A    
N2    N6    S    
N1    N2    D    
C2    C16   D    
C7    H6    S    
C6    H4    S    
O8    Zn1   S    
C11   O11   A    
C13   C15   D    
C10   O10   A    
C5    H18   S    
C5    N3    S    
C9    O7    A    
C1    C16   S    
C4    O4    S    
C4    C14   S    
C6    H3    S    
C11   C13   S    
H14   O2    S    
C10   C12   S    
C7    H7    S    
C8    H13   S    
C5    H19   S    
O1    Zn1   S    
C8    N6    S    
C9    O5    A    
C4    O3    D    
O11   Zn1   S    
N1    N5    S    
C8    H10   S    
C6    H2    S    
C3    O12   D    
C6    N4    S    
C3    O2    S    
C13   N3    S    
C11   O9    A    
C7    H8    S    
C10   O8    A    
H20   N4    S    
C2    C9    S    
C3    C15   S    
O9    Zn2   S    
H5    N5    S    
H16   N3    S    
O6    Zn2   S    
C8    H11   S    
C14   C15   S    
O5    Zn2   S    
C2    H12   S    
O7    Zn1   S    
N1    Zn2   S    
C1    O1    A    
N2    Zn1   S    
O10   Zn2   S    
C7    N5    S    
C12   C14   D    
C16   H1    S    
H15   O4    S    
C5    H17   S    
