data_mof_unit_28112.cif
_audit_creation_date              2012-12-10T17:09:54-0500
_audit_creation_method            fapswitch 2.2
_symmetry_space_group_name_H-M    P1
_symmetry_Int_Tables_number       1
_space_group_crystal_system       triclinic
_cell_length_a                    10.826754
_cell_length_b                    12.975511
_cell_length_c                    11.706174
_cell_angle_alpha                 97.891282
_cell_angle_beta                  93.014902
_cell_angle_gamma                 92.147778
_cell_volume                      1625.0252835

loop_
_atom_site_label
_atom_site_type_symbol
_atom_type_description
_atom_site_fract_x
_atom_site_fract_y
_atom_site_fract_z
_atom_type_partial_charge
C1    C     C_R   0.498234 0.299770 0.480657 0.830974
C2    C     C_R   0.064437 0.501933 0.611002 0.047452
C3    C     C_R   0.126179 0.498934 0.505983 -0.181626
C4    C     C_R   0.058544 0.472118 0.400043 -0.254223
C5    C     C_R   0.931562 0.452717 0.394081 0.457899
C6    C     C_R   0.868696 0.463397 0.497537 -0.254081
C7    C     C_R   0.515204 0.812132 0.530510 -0.049909
C8    C     C_R   0.491336 0.187229 0.473648 -0.066986
C9    C     C_R   0.395892 0.023300 0.382860 -0.174826
C10   C     C_R   0.411774 0.130122 0.387769 -0.235050
C11   C     C_R   0.559319 0.137208 0.554493 0.178907
C12   C     C_R   0.261744 0.503282 0.502052 0.803304
C13   C     C_R   0.547190 0.028125 0.546549 0.108783
C14   C     C_R   0.462260 0.972021 0.461729 0.123324
C15   C     C_R   0.445108 0.864801 0.456215 -0.170307
C16   C     C_R   0.600075 0.866252 0.613569 -0.196851
C17   C     C_R   0.616360 0.973481 0.621583 -0.198861
C18   C     C_R   0.370625 0.409471 0.027809 -0.293269
C19   C     C_R   0.388097 0.414613 0.148740 0.020760
C20   C     C_R   0.554279 0.541180 0.150508 0.620287
C21   C     C_R   0.554188 0.520456 0.028312 -0.034115
C22   C     C_R   0.453256 0.464282 0.966866 0.009016
C23   C     C_R   0.503059 0.700081 0.520003 0.818741
C24   C     C_R   0.438514 0.465944 0.846090 0.043779
C25   C     C_R   0.629044 0.561949 0.847284 0.054445
C26   C     C_R   0.648525 0.559175 0.965135 -0.204579
C27   C     C_R   0.735629 0.484838 0.498210 0.865347
C28   C     C_R   0.122298 0.534942 0.722505 -0.169277
C29   C     C_R   0.066539 0.513741 0.823000 0.295784
C30   C     C_R   0.951376 0.460168 0.811870 -0.232373
C31   C     C_R   0.887642 0.438714 0.704409 -0.176727
C32   C     C_R   0.938779 0.468338 0.604376 0.048585
Cu1   Cu    Cu3+1 0.509250 0.507730 0.615930 0.936969
Cu2   Cu    Cu3+1 0.490750 0.492270 0.384070 1.059618
H1    H     H_    0.105345 0.463979 0.319983 0.210521
H2    H     H_    0.684152 0.012050 0.685917 0.152269
H3    H     H_    0.358834 0.168813 0.326353 0.168372
H4    H     H_    0.360478 0.424011 0.796780 0.128528
H5    H     H_    0.700327 0.596050 0.801112 0.147354
H6    H     H_    0.294219 0.361954 0.982342 0.163888
H7    H     H_    0.738269 0.585691 0.005331 0.210360
H8    H     H_    0.326255 0.369394 0.194232 0.153373
H9    H     H_    0.209278 0.578715 0.733830 0.171594
H10   H     H_    0.909061 0.437447 0.886995 0.144779
H11   H     H_    0.799411 0.396027 0.700002 0.184804
H12   H     H_    0.376873 0.822253 0.394543 0.167178
H13   H     H_    0.655443 0.825198 0.670987 0.159511
H14   H     H_    0.331874 0.980703 0.317204 0.161521
N1    N     N_R   0.523180 0.519350 0.790130 -0.190604
N2    N     N_R   0.476820 0.480650 0.209890 -0.231971
O1    O     O_R   0.506570 0.354460 0.582000 -0.576772
O2    O     O_R   0.490940 0.341410 0.386200 -0.578158
O3    O     O_R   0.327470 0.506530 0.597920 -0.607656
O4    O     O_R   0.311840 0.493480 0.402120 -0.599073
O5    O     O_R   0.509060 0.658590 0.613800 -0.595683
O6    O     O_R   0.493430 0.645540 0.418000 -0.502975
O7    O     O_R   0.688160 0.506520 0.597880 -0.618959
O8    O     O_R   0.672530 0.493470 0.402080 -0.465579
N3    N     N_2   0.641451 0.197119 0.640060 -0.439379
H15   H     H_    0.731343 0.173567 0.641124 0.243931
C33   C     C_3   0.594005 0.218017 0.754089 -0.628055
H16   H     H_    0.591403 0.146601 0.796396 0.214528
H17   H     H_    0.499030 0.247199 0.749103 0.240520
H18   H     H_    0.654936 0.278316 0.808455 0.222749
S1    S     S_3+6 0.613209 0.670006 0.212386 0.040729
O9    O     O_2   0.685066 0.725945 0.131398 -0.310657
O10   O     O_2   0.502770 0.733610 0.238842 -0.330127
O11   O     O_3   0.706279 0.670618 0.331907 -0.494510
H19   H     H_    0.723197 0.745186 0.362279 0.357010
N4    N     N_2   0.129793 0.538086 0.934163 -0.447566
H20   H     H_    0.087262 0.507716 0.999841 0.270346
C34   C     C_3   0.175411 0.644871 0.967442 -0.633949
H21   H     H_    0.216746 0.654489 0.057375 0.243860
H22   H     H_    0.098286 0.698649 0.963442 0.231589
H23   H     H_    0.249124 0.665585 0.911257 0.228201
S2    S     S_3+6 0.861452 0.403166 0.256064 -0.006399
O12   O     O_2   0.752277 0.330597 0.266264 -0.283988
O13   O     O_2   0.820924 0.492651 0.196716 -0.301754
O14   O     O_3   0.965320 0.337613 0.175922 -0.567295
H24   H     H_    0.926368 0.325273 0.096461 0.362684

loop_
_geom_bond_atom_site_label_1
_geom_bond_atom_site_label_2
_ccdc_geom_bond_type
Cu1   O5    S    
C6    C32   A    
C21   C26   A    
Cu2   O6    S    
C1    C8    S    
S2    O14   S    
C23   O6    A    
C10   H3    S    
C28   C29   A    
S2    O13   D    
C5    C6    A    
Cu1   N1    S    
C2    C32   A    
C18   C19   A    
C33   H17   S    
C18   H6    S    
C20   N2    A    
C3    C12   S    
O11   H19   S    
C31   C32   A    
C16   C17   A    
S1    O10   D    
C24   H4    S    
N4    H20   S    
C17   H2    S    
C9    C10   A    
C12   O3    A    
C19   H8    S    
C7    C15   A    
C4    H1    S    
N3    H15   S    
C13   C14   A    
C30   H10   S    
C34   H23   S    
C11   N3    S    
C16   H13   S    
Cu1   O3    S    
Cu2   N2    S    
N3    C33   S    
C20   S1    S    
S2    O12   D    
C34   H22   S    
C27   O7    A    
C34   H21   S    
C25   C26   A    
C33   H18   S    
C9    C14   A    
C29   C30   A    
C6    C27   S    
S1    O11   S    
Cu1   Cu2   S    
C1    O1    A    
C7    C16   A    
Cu2   O4    S    
C22   C24   A    
C3    C4    A    
C29   N4    S    
C24   N1    A    
Cu1   O7    S    
C18   C22   A    
C4    C5    A    
C27   O8    A    
C2    C28   A    
C23   O5    A    
Cu1   O1    S    
C28   H9    S    
Cu2   O2    S    
C13   C17   A    
C5    S2    S    
C2    C3    A    
C25   H5    S    
C11   C13   A    
C19   N2    A    
C30   C31   A    
C8    C11   A    
C7    C23   S    
C33   H16   S    
C1    O2    A    
C25   N1    A    
O14   H24   S    
C20   C21   A    
C9    H14   S    
C8    C10   A    
S1    O9    D    
C31   H11   S    
Cu2   O8    S    
C14   C15   A    
N4    C34   S    
C15   H12   S    
C21   C22   A    
C12   O4    A    
C26   H7    S    
