data_mof_unit_14247.cif
_audit_creation_date              2012-10-26T21:01:05-0400
_audit_creation_method            fapswitch 2.2
_symmetry_space_group_name_H-M    P1
_symmetry_Int_Tables_number       1
_space_group_crystal_system       triclinic
_cell_length_a                    10.938499
_cell_length_b                    10.838431
_cell_length_c                    9.555366
_cell_angle_alpha                 90.451496
_cell_angle_beta                  89.80072
_cell_angle_gamma                 90.272895
_cell_volume                      1132.79283716

loop_
_atom_site_label
_atom_site_type_symbol
_atom_type_description
_atom_site_fract_x
_atom_site_fract_y
_atom_site_fract_z
_atom_type_partial_charge
C1    C     C_R   0.497415 0.262462 0.499468 0.571689
C2    C     C_R   0.400285 0.462114 0.074305 -0.016736
C3    C     C_R   0.400207 0.462315 0.925710 -0.015565
C4    C     C_R   0.265528 0.503549 0.500314 0.542974
C5    C     C_R   0.604832 0.524414 0.926126 0.177420
C6    C     C_3   0.679333 0.639386 0.919971 -0.278648
C7    C     C_3   0.677392 0.642133 0.078701 -0.276522
C8    C     C_R   0.498126 0.737759 0.500285 0.546845
C9    C     C_R   0.734511 0.493959 0.499956 0.545396
C10   C     C_2   0.933739 0.514494 0.392532 -0.094846
C11   C     C_2   0.866289 0.473712 0.500622 0.225752
C12   C     C_R   0.485159 0.129540 0.498447 0.012378
C13   C     C_2   0.066862 0.503341 0.387322 -0.122912
C14   C     C_2   0.134110 0.515680 0.503186 -0.073832
C15   C     C_R   0.480281 0.065124 0.624081 0.016510
C16   C     C_R   0.473452 0.063394 0.372051 -0.162083
C17   C     C_R   0.474034 0.934642 0.372757 -0.157563
C18   C     C_R   0.486263 0.870990 0.499868 0.005511
C19   C     C_R   0.480592 0.938040 0.625040 -0.024778
C20   C     C_3   0.559429 0.933207 0.752395 -0.243409
C21   C     C_3   0.559115 0.073629 0.751819 0.117546
C22   C     C_R   0.604519 0.525613 0.073409 0.170029
Cu1   Cu    Cu3+1 0.499990 0.499980 0.640670 0.966280
Cu2   Cu    Cu3+1 0.500010 0.500020 0.359330 0.940684
H1    H     H_    0.890462 0.557076 0.303366 0.088725
H2    H     H_    0.469949 0.110411 0.272551 0.139517
H3    H     H_    0.470788 0.885734 0.273543 0.134264
H4    H     H_    0.509303 0.894560 0.843559 0.106531
H5    H     H_    0.650366 0.891648 0.730575 0.140716
H6    H     H_    0.511525 0.115952 0.843142 0.154020
H7    H     H_    0.710801 0.087625 0.641459 0.331593
H8    H     H_    0.855191 0.376103 0.671065 0.353593
H9    H     H_    0.318897 0.432589 0.129218 0.118920
H10   H     H_    0.318732 0.433118 0.870846 0.126859
H11   H     H_    0.771782 0.622755 0.875187 0.138811
H12   H     H_    0.628602 0.716245 0.872575 0.141572
H13   H     H_    0.769254 0.628715 0.124579 0.122482
H14   H     H_    0.624994 0.720985 0.123169 0.145162
H15   H     H_    0.109754 0.490380 0.285582 0.126634
H16   H     H_    0.092562 0.538405 0.603375 0.162788
N1    N     N_R   0.500780 0.500930 0.147930 -0.233910
N2    N     N_R   0.500780 0.500890 0.852020 -0.232772
O1    O     O_R   0.500000 0.319640 0.618810 -0.469261
O2    O     O_3   0.919735 0.406634 0.606873 -0.721642
O3    O     O_R   0.500010 0.319680 0.381230 -0.508139
O4    O     O_R   0.321940 0.499980 0.618760 -0.513176
O5    O     O_R   0.321950 0.500020 0.381180 -0.512075
O6    O     O_R   0.499990 0.680320 0.618770 -0.502424
O7    O     O_R   0.500000 0.680360 0.381190 -0.510062
O8    O     O_R   0.678050 0.499980 0.618820 -0.503300
O9    O     O_R   0.678060 0.500020 0.381240 -0.515692
O10   O     O_3   0.675188 0.126245 0.726894 -0.681857

loop_
_geom_bond_atom_site_label_1
_geom_bond_atom_site_label_2
_ccdc_geom_bond_type
C5    N2    A    
C8    O6    A    
C3    N2    A    
C6    C7    S    
C7    C22   S    
C21   H6    S    
C10   H1    S    
C19   C20   S    
C9    O9    A    
C12   C15   A    
H7    O10   S    
Cu1   Cu2   S    
Cu2   O9    S    
C2    C3    A    
C7    H13   S    
C11   O2    S    
Cu1   O4    S    
C4    O4    A    
C13   C14   D    
C20   C21   S    
C15   C19   A    
Cu2   N1    S    
C9    C11   S    
C1    O3    A    
Cu1   N2    S    
Cu2   O3    S    
C2    H9    S    
C7    H14   S    
C6    H12   S    
C10   C13   S    
C17   C18   A    
C20   H5    S    
C4    C14   S    
C5    C6    S    
C8    C18   S    
C13   H15   S    
C22   N1    A    
C10   C11   D    
C5    C22   A    
C2    N1    A    
C14   H16   S    
C17   H3    S    
C15   C21   S    
Cu1   O1    S    
C6    H11   S    
H8    O2    S    
C18   C19   A    
Cu2   O7    S    
C4    O5    A    
Cu1   O8    S    
Cu1   O6    S    
C20   H4    S    
C3    H10   S    
Cu2   O5    S    
C8    O7    A    
C1    O1    A    
C21   O10   S    
C1    C12   S    
C9    O8    A    
C12   C16   A    
C16   C17   A    
C16   H2    S    
