data_mof_unit_11374.cif
_audit_creation_date              2012-12-11T15:24:00-0500
_audit_creation_method            fapswitch 2.2
_symmetry_space_group_name_H-M    P1
_symmetry_Int_Tables_number       1
_space_group_crystal_system       triclinic
_cell_length_a                    17.484121
_cell_length_b                    24.604938
_cell_length_c                    15.138318
_cell_angle_alpha                 89.305194
_cell_angle_beta                  126.284013
_cell_angle_gamma                 90.606512
_cell_volume                      5249.20180898

loop_
_atom_site_label
_atom_site_type_symbol
_atom_type_description
_atom_site_fract_x
_atom_site_fract_y
_atom_site_fract_z
_atom_type_partial_charge
C1    C     C_R   0.312377 0.373020 0.907764 -0.125113
C2    C     C_R   0.654802 0.351157 0.093745 -0.129643
C3    C     C_R   0.811978 0.873541 0.907456 -0.125273
C4    C     C_R   0.159275 0.852877 0.094074 -0.126842
C5    C     C_R   0.367663 0.676112 0.997388 0.012085
C6    C     C_R   0.617861 0.681727 0.999614 0.036701
C7    C     C_R   0.862137 0.173851 0.997302 0.012337
C8    C     C_R   0.117765 0.181695 0.999668 0.035822
C9    C     C_R   0.543862 0.500954 0.352797 -0.050266
C10   C     C_R   0.536957 0.501519 0.713569 -0.045888
C11   C     C_R   0.044147 0.000943 0.352892 -0.050397
C12   C     C_R   0.035592 0.001542 0.712205 -0.046139
C13   C     C_R   0.188308 0.498898 0.643432 0.115934
C14   C     C_R   0.822791 0.499238 0.268718 0.111415
C15   C     C_R   0.701392 0.998269 0.631855 0.116988
C16   C     C_R   0.325174 0.999801 0.284073 0.111022
C17   C     C_2   0.977160 0.456034 0.362410 -0.110139
C18   C     C_2   0.074686 0.459320 0.462330 -0.105253
C19   C     C_2   0.479254 0.957569 0.364350 -0.117530
C20   C     C_2   0.578668 0.954379 0.460537 -0.090150
C21   C     C_2   0.923791 0.500695 0.317679 -0.192428
C22   C     C_2   0.101346 0.500267 0.533005 -0.197929
C23   C     C_2   0.427452 0.001875 0.345595 -0.185427
C24   C     C_2   0.628935 0.999049 0.513974 -0.189028
C25   C     C_R   0.214322 0.708348 0.930958 -0.208559
C26   C     C_R   0.760626 0.729308 0.064339 -0.221367
C27   C     C_R   0.708359 0.204917 0.932403 -0.209214
C28   C     C_R   0.260624 0.229403 0.065556 -0.220090
C29   C     C_R   0.650878 0.239170 0.938946 -0.178542
C30   C     C_R   0.309694 0.272792 0.066103 -0.165470
C31   C     C_R   0.157103 0.742657 0.937594 -0.178204
C32   C     C_R   0.809547 0.772760 0.064730 -0.164773
C33   C     C_R   0.692002 0.282851 0.009611 0.101552
C34   C     C_R   0.260496 0.318302 0.002156 0.096830
C35   C     C_R   0.198485 0.786026 0.008995 0.101596
C36   C     C_R   0.760251 0.818465 0.001598 0.096329
C37   C     C_R   0.789433 0.293770 0.072378 -0.215854
C38   C     C_R   0.161705 0.321356 0.938965 -0.209191
C39   C     C_R   0.296001 0.796603 0.072534 -0.216775
C40   C     C_R   0.661534 0.821565 0.939117 -0.209324
C41   C     C_R   0.354220 0.763176 0.064316 0.303123
C42   C     C_R   0.610712 0.777563 0.939396 0.299816
C43   C     C_R   0.847709 0.260578 0.063961 0.304208
C44   C     C_R   0.110704 0.277428 0.939160 0.295556
C45   C     C_R   0.432997 0.646938 0.089992 -0.188463
C46   C     C_R   0.559143 0.650322 0.909000 -0.193660
C47   C     C_R   0.930092 0.145645 0.090096 -0.189359
C48   C     C_R   0.059142 0.150308 0.909006 -0.195896
C49   C     C_R   0.312163 0.718351 0.994338 0.112575
C50   C     C_R   0.662029 0.731203 0.001709 0.107746
C51   C     C_R   0.806000 0.215440 0.994885 0.108849
C52   C     C_R   0.161962 0.231183 0.001998 0.107923
C53   C     C_R   0.471957 0.529321 0.529517 -0.189081
C54   C     C_R   0.473353 0.528414 0.440228 -0.169384
C55   C     C_R   0.971004 0.029260 0.528335 -0.188636
C56   C     C_R   0.972819 0.028316 0.439362 -0.169048
C57   C     C_R   0.549557 0.504173 0.449784 0.174230
C58   C     C_R   0.547004 0.506086 0.627599 0.149718
C59   C     C_R   0.049344 0.004154 0.449487 0.174677
C60   C     C_R   0.045928 0.006113 0.626568 0.152747
C61   C     C_R   0.627583 0.483653 0.549330 -0.101711
C62   C     C_R   0.625965 0.484284 0.639480 -0.082169
C63   C     C_R   0.127229 0.983726 0.549208 -0.100871
C64   C     C_R   0.125167 0.984373 0.639011 -0.082392
C65   C     C_R   0.542392 0.454783 0.300529 -0.057095
C66   C     C_R   0.505953 0.454934 0.736902 -0.053858
C67   C     C_R   0.042465 0.954767 0.300538 -0.056984
C68   C     C_R   0.004658 0.954966 0.735596 -0.054742
C69   C     C_R   0.238754 0.544396 0.702294 -0.146882
C70   C     C_R   0.767592 0.544698 0.244430 -0.163986
C71   C     C_R   0.746764 0.043793 0.694314 -0.143357
C72   C     C_R   0.268826 0.045132 0.254296 -0.162273
C73   C     C_R   0.533286 0.545845 0.292470 -0.152015
C74   C     C_R   0.515811 0.546219 0.749053 -0.145886
C75   C     C_R   0.033573 0.045834 0.292626 -0.152471
C76   C     C_R   0.015044 0.046252 0.748224 -0.147029
C77   C     C_R   0.240952 0.453696 0.702220 -0.099480
C78   C     C_R   0.766837 0.453793 0.246430 -0.078138
C79   C     C_R   0.747449 0.953449 0.697178 -0.105728
C80   C     C_R   0.268430 0.953969 0.255207 -0.084563
C81   C     C_R   0.345116 0.648486 0.906718 0.312589
C82   C     C_R   0.645889 0.651463 0.090928 0.289719
C83   C     C_R   0.841285 0.147086 0.906469 0.314449
C84   C     C_R   0.145819 0.151449 0.090998 0.292909
C85   C     C_R   0.402611 0.375321 0.090858 -0.101426
C86   C     C_R   0.564553 0.350134 0.911457 -0.126635
C87   C     C_R   0.902353 0.875482 0.090667 -0.101397
C88   C     C_R   0.068013 0.851608 0.911286 -0.128637
C89   C     C_R   0.315638 0.360054 0.998832 0.026246
C90   C     C_R   0.632948 0.322834 0.005130 0.037428
C91   C     C_R   0.815209 0.860437 0.998490 0.026326
C92   C     C_R   0.139362 0.825657 0.005128 0.038300
H1    H     H_    0.256779 0.363162 0.823484 0.106079
H2    H     H_    0.699288 0.338090 0.178520 0.123101
H3    H     H_    0.756004 0.864441 0.822792 0.106286
H4    H     H_    0.205089 0.839945 0.178811 0.119721
H5    H     H_    0.956652 0.540604 0.334873 0.132789
H6    H     H_    0.056448 0.535266 0.512930 0.135027
H7    H     H_    0.459477 0.040013 0.386665 0.130136
H8    H     H_    0.608686 0.038689 0.474602 0.127330
H9    H     H_    0.182587 0.672942 0.878989 0.137948
H10   H     H_    0.799898 0.693201 0.110236 0.134269
H11   H     H_    0.677063 0.169355 0.880817 0.140754
H12   H     H_    0.299876 0.193401 0.112014 0.135116
H13   H     H_    0.574992 0.231903 0.889335 0.131174
H14   H     H_    0.386225 0.269827 0.113168 0.138426
H15   H     H_    0.081161 0.735542 0.887687 0.131153
H16   H     H_    0.886023 0.769754 0.111174 0.138699
H17   H     H_    0.819110 0.329661 0.123385 0.131977
H18   H     H_    0.125456 0.357377 0.890142 0.129768
H19   H     H_    0.325807 0.832231 0.124310 0.131072
H20   H     H_    0.625199 0.857699 0.890821 0.129649
H21   H     H_    0.410787 0.545984 0.521164 0.130227
H22   H     H_    0.413613 0.544755 0.362721 0.128786
H23   H     H_    0.909647 0.045866 0.519644 0.128980
H24   H     H_    0.913194 0.044578 0.361674 0.128577
H25   H     H_    0.687428 0.466189 0.555966 0.116857
H26   H     H_    0.683843 0.466637 0.716580 0.124277
H27   H     H_    0.187284 0.966315 0.556227 0.116647
H28   H     H_    0.182911 0.966782 0.716275 0.122555
H29   H     H_    0.468813 0.658535 0.174574 0.133200
H30   H     H_    0.519416 0.662962 0.824207 0.116876
H31   H     H_    0.965277 0.157058 0.174653 0.133200
H32   H     H_    0.019469 0.162932 0.824214 0.115578
H33   H     H_    0.222879 0.585387 0.670903 0.118902
H34   H     H_    0.790364 0.586254 0.251460 0.126896
H35   H     H_    0.737621 0.084227 0.661391 0.112636
H36   H     H_    0.291991 0.086854 0.266093 0.126689
H37   H     H_    0.541488 0.587990 0.316223 0.109604
H38   H     H_    0.522068 0.588445 0.733797 0.112545
H39   H     H_    0.041924 0.087961 0.316505 0.109198
H40   H     H_    0.021243 0.088483 0.732944 0.112402
H41   H     H_    0.227957 0.412253 0.673648 0.107764
H42   H     H_    0.788250 0.411994 0.257292 0.088399
H43   H     H_    0.740242 0.912092 0.669866 0.118512
H44   H     H_    0.291149 0.912251 0.271338 0.092220
H45   H     H_    0.428115 0.367818 0.174189 0.116581
H46   H     H_    0.526911 0.335046 0.829307 0.137925
H47   H     H_    0.927803 0.867872 0.173956 0.116782
H48   H     H_    0.031293 0.836583 0.829232 0.136531
H49   H     H_    0.945595 0.415788 0.339567 0.119155
H50   H     H_    0.119517 0.423956 0.485181 0.135095
H51   H     H_    0.444765 0.919721 0.323017 0.118844
H52   H     H_    0.602800 0.914494 0.498125 0.122635
N1    N     N_R   0.395440 0.396300 0.944370 -0.043132
N2    N     N_R   0.604560 0.396300 0.055630 -0.040075
N3    N     N_R   0.895440 0.896300 0.944370 -0.043291
N4    N     N_R   0.104560 0.896300 0.055630 -0.038922
N5    N     N_R   0.449890 0.602500 0.055780 -0.052801
N6    N     N_R   0.550110 0.602500 0.944220 -0.053041
N7    N     N_R   0.949890 0.102500 0.055780 -0.052926
N8    N     N_R   0.050110 0.102500 0.944220 -0.053237
N9    N     N_R   0.525090 0.470990 0.205640 -0.061688
N10   N     N_R   0.474910 0.470990 0.794360 -0.058982
N11   N     N_R   0.025090 0.970990 0.205640 -0.061628
N12   N     N_R   0.974910 0.970990 0.794360 -0.058427
N13   N     N_R   0.320240 0.527820 0.794510 -0.044235
N14   N     N_R   0.679760 0.527820 0.205490 -0.045507
N15   N     N_R   0.820240 0.027820 0.794510 -0.043277
N16   N     N_R   0.179760 0.027820 0.205490 -0.045366
N17   N     N_R   0.524580 0.527810 0.205160 -0.043417
N18   N     N_R   0.475420 0.527810 0.794840 -0.044894
N19   N     N_R   0.024580 0.027810 0.205160 -0.043284
N20   N     N_R   0.975420 0.027810 0.794840 -0.044569
N21   N     N_R   0.320750 0.470990 0.794990 -0.046252
N22   N     N_R   0.679250 0.470990 0.205010 -0.039851
N23   N     N_R   0.820750 0.970990 0.794990 -0.047862
N24   N     N_R   0.179250 0.970990 0.205010 -0.039585
N25   N     N_R   0.393580 0.602500 0.942610 -0.055598
N26   N     N_R   0.606420 0.602500 0.057390 -0.055064
N27   N     N_R   0.893580 0.102500 0.942610 -0.055543
N28   N     N_R   0.106420 0.102500 0.057390 -0.054787
N29   N     N_R   0.451750 0.396300 0.057540 -0.034529
N30   N     N_R   0.548250 0.396300 0.942460 -0.049820
N31   N     N_R   0.951750 0.896300 0.057540 -0.034556
N32   N     N_R   0.048250 0.896300 0.942460 -0.048908
Ni1   Ni    Ni4+2 0.435420 0.434250 0.870220 0.249567
Ni2   Ni    Ni4+2 0.564580 0.434250 0.129780 0.265873
Ni3   Ni    Ni4+2 0.935420 0.934250 0.870220 0.248584
Ni4   Ni    Ni4+2 0.064580 0.934250 0.129780 0.266729
Ni5   Ni    Ni4+2 0.563400 0.564580 0.128670 0.204202
Ni6   Ni    Ni4+2 0.436600 0.564580 0.871330 0.203257
Ni7   Ni    Ni4+2 0.063400 0.064580 0.128670 0.204023
Ni8   Ni    Ni4+2 0.936600 0.064580 0.871330 0.202004
C93   C     C_3   0.458165 0.777231 0.127981 -1.052601
H53   H     H_    0.466409 0.820422 0.112727 0.263193
H54   H     H_    0.493021 0.771221 0.216934 0.255781
H55   H     H_    0.495015 0.752385 0.103352 0.256831
C94   C     C_3   0.504511 0.780905 0.876015 -1.025347
H56   H     H_    0.478294 0.822428 0.842449 0.255363
H57   H     H_    0.469540 0.752355 0.806237 0.250283
H58   H     H_    0.483508 0.770651 0.930558 0.262076
C95   C     C_3   0.951291 0.275392 0.126110 -1.051518
H59   H     H_    0.958308 0.318684 0.110196 0.262554
H60   H     H_    0.987207 0.269510 0.215312 0.255200
H61   H     H_    0.988074 0.250982 0.100782 0.257460
C96   C     C_3   0.004400 0.280719 0.875193 -1.016515
H62   H     H_    0.978264 0.322251 0.841630 0.254085
H63   H     H_    0.969663 0.252201 0.805371 0.249051
H64   H     H_    0.982930 0.270384 0.929287 0.262102
C97   C     C_2   0.578065 0.400416 0.350069 0.927409
O1    O     O_2   0.614463 0.371785 0.318967 -0.666122
O2    O     O_R   0.568575 0.381227 0.430397 -0.784975
H65   H     H_    0.595386 0.343358 0.457262 0.328031
C98   C     C_2   0.477440 0.403529 0.675848 0.957960
O3    O     O_2   0.406171 0.379720 0.653066 -0.668390
O4    O     O_R   0.530122 0.382789 0.641826 -0.784404
H66   H     H_    0.502705 0.347594 0.599834 0.334634
C99   C     C_2   0.078022 0.900370 0.349969 0.927363
O5    O     O_2   0.114154 0.871674 0.318628 -0.665659
O6    O     O_R   0.068763 0.881236 0.430504 -0.784200
H67   H     H_    0.095470 0.843341 0.457272 0.328210
C100  C     C_2   0.974588 0.903848 0.673395 0.956823
O7    O     O_2   0.904442 0.879759 0.653319 -0.669105
O8    O     O_R   0.024564 0.883652 0.635404 -0.782672
H68   H     H_    0.996314 0.848605 0.593100 0.334868
C101  C     C_3   0.304370 0.673697 0.796873 -1.053339
H69   H     H_    0.335170 0.654627 0.758435 0.249697
H70   H     H_    0.226088 0.668965 0.743654 0.246594
H71   H     H_    0.321614 0.717750 0.805815 0.267977
C102  C     C_3   0.685317 0.674123 0.201813 -1.049454
H72   H     H_    0.675539 0.644675 0.250559 0.254580
H73   H     H_    0.761987 0.683243 0.246151 0.249312
H74   H     H_    0.647912 0.712174 0.193064 0.263175
C103  C     C_3   0.795534 0.171738 0.795163 -1.050188
H75   H     H_    0.833333 0.158781 0.760530 0.248606
H76   H     H_    0.719870 0.159320 0.740825 0.247071
H77   H     H_    0.799284 0.216786 0.800339 0.267130
C104  C     C_3   0.183223 0.174474 0.201012 -1.049251
H78   H     H_    0.171606 0.145418 0.248740 0.253760
H79   H     H_    0.260149 0.183346 0.247109 0.249111
H80   H     H_    0.145663 0.212744 0.190704 0.263029

loop_
_geom_bond_atom_site_label_1
_geom_bond_atom_site_label_2
_ccdc_geom_bond_type
C25   C31   A    
C23   H7    S    
O2    H65   S    
C82   N26   A    
C3    N3    A    
C6    C82   A    
C3    C91   A    
C87   C91   A    
C27   C29   A    
C14   C70   A    
C97   O1    D    
C20   H52   S    
C7    C83   A    
C19   C20   S    
C16   C72   A    
C55   C56   A    
C5    C49   S    
C40   H20   S    
C82   C102  S    
C98   O3    D    
C101  H71   S    
C26   C32   A    
C12   C68   A    
N4    N32   A    
C9    C73   A    
C13   C22   S    
C72   H36   S    
C22   H6    S    
C15   C71   A    
C32   C36   A    
C14   C21   S    
C75   N19   A    
C10   C58   S    
N18   Ni6   S    
C102  H74   S    
C26   C50   A    
N28   Ni7   S    
N8    N28   A    
N12   Ni3   S    
N3    N31   A    
C93   H54   S    
C24   H8    S    
C96   H62   S    
C77   N21   A    
C4    N4    A    
C29   C33   A    
C103  H77   S    
N7    N27   A    
N2    Ni2   S    
C17   H49   S    
C96   H63   S    
C88   H48   S    
C65   N9    A    
C99   O6    S    
C4    H4    S    
C1    N1    A    
N32   Ni3   S    
C15   C79   A    
C88   C92   A    
C94   H58   S    
C53   H21   S    
C95   H60   S    
C25   C49   A    
C83   N27   A    
N2    N30   A    
C69   N13   A    
C27   C51   A    
N22   Ni2   S    
C81   N25   A    
N15   Ni8   S    
N8    Ni8   S    
C8    C52   S    
N16   Ni7   S    
C37   H17   S    
C35   C92   S    
C70   H34   S    
C10   C66   A    
C69   H33   S    
C44   C96   S    
N4    Ni4   S    
C8    C84   A    
C55   C60   A    
C30   H14   S    
N5    Ni5   S    
C97   O2    S    
C79   N23   A    
C29   H13   S    
C94   H56   S    
C77   H41   S    
C79   H43   S    
C11   C59   S    
C41   C49   A    
C1    C89   A    
C11   C67   A    
C17   C18   S    
C13   C77   A    
C100  O8    S    
C99   O5    D    
C73   H37   S    
C78   N22   A    
C30   C34   A    
N19   Ni7   S    
O4    H66   S    
C20   C24   D    
N27   Ni8   S    
C2    H2    S    
C45   N5    A    
C39   C41   A    
C86   C90   A    
N13   N21   A    
C66   N10   A    
C66   C98   S    
C85   C89   A    
C19   C23   D    
C34   C38   A    
C93   H55   S    
C71   H35   S    
C45   H29   S    
C101  H69   S    
C53   C54   A    
C5    C45   A    
C73   N17   A    
C33   C37   A    
C63   C64   A    
N9    N17   A    
C86   N30   A    
C7    C47   A    
C37   C43   A    
C96   H64   S    
C35   C39   A    
O8    H68   S    
C8    C48   A    
C38   C44   A    
C104  H78   S    
N20   Ni8   S    
N24   Ni4   S    
C14   C78   A    
C102  H72   S    
C5    C81   A    
C28   H12   S    
C85   N29   A    
O6    H67   S    
C36   C40   A    
N21   Ni1   S    
C95   H61   S    
C81   C101  S    
C103  H75   S    
C56   H24   S    
C41   C93   S    
C6    C50   S    
C57   C61   A    
C84   C104  S    
C78   H42   S    
N30   Ni1   S    
N12   N20   A    
N31   Ni4   S    
C58   C62   A    
C42   C50   A    
C68   C100  S    
C36   C91   S    
C15   C24   S    
C46   N6    A    
C47   N7    A    
N23   Ni3   S    
C95   H59   S    
C16   C23   S    
C48   N8    A    
N26   Ni5   S    
C104  H79   S    
N5    N25   A    
C76   N20   A    
C38   H18   S    
N13   Ni6   S    
C85   H45   S    
C12   C76   A    
N6    Ni6   S    
C71   N15   A    
N11   Ni4   S    
N14   N22   A    
C74   N18   A    
C83   C103  S    
N9    Ni2   S    
C18   H50   S    
C19   H51   S    
C2    C90   A    
C6    C46   A    
C18   C22   D    
C31   H15   S    
N10   N18   A    
C87   H47   S    
C40   C42   A    
C84   N28   A    
C72   N16   A    
C44   C52   A    
C48   H32   S    
C101  H70   S    
C53   C58   A    
C10   C74   A    
N7    Ni7   S    
C47   H31   S    
C67   N11   A    
C2    N2    A    
C87   N31   A    
C59   C63   A    
C64   H28   S    
C56   C59   A    
C60   C64   A    
C43   C95   S    
N11   N19   A    
C13   C69   A    
C74   H38   S    
N1    N29   A    
C34   C89   S    
C7    C51   S    
C28   C30   A    
C102  H73   S    
C61   H25   S    
C11   C75   A    
C33   C90   S    
C26   H10   S    
C39   H19   S    
C28   C52   A    
C42   C94   S    
C25   H9    S    
C93   H53   S    
N6    N26   A    
C55   H23   S    
N29   Ni2   S    
C43   C51   A    
C100  O7    D    
C54   H22   S    
C31   C35   A    
C27   H11   S    
C103  H76   S    
N15   N23   A    
C76   H40   S    
C67   C99   S    
C9    C57   S    
N16   N24   A    
N17   Ni5   S    
C61   C62   A    
N14   Ni5   S    
C9    C65   A    
N25   Ni6   S    
C62   H26   S    
C80   H44   S    
C21   H5    S    
C86   H46   S    
C104  H80   S    
C12   C60   S    
N3    Ni3   S    
C88   N32   A    
C65   C97   S    
C75   H39   S    
C1    H1    S    
C63   H27   S    
C32   H16   S    
N10   Ni1   S    
N1    Ni1   S    
C46   H30   S    
C3    H3    S    
C16   C80   A    
C98   O4    S    
C68   N12   A    
C80   N24   A    
C70   N14   A    
C94   H57   S    
C4    C92   A    
C54   C57   A    
C17   C21   D    
