data_mof_unit_29064.cif
_audit_creation_date              2012-12-10T18:58:08-0500
_audit_creation_method            fapswitch 2.2
_symmetry_space_group_name_H-M    P1
_symmetry_Int_Tables_number       1
_space_group_crystal_system       triclinic
_cell_length_a                    10.72246
_cell_length_b                    9.886202
_cell_length_c                    15.693319
_cell_angle_alpha                 91.094207
_cell_angle_beta                  90.940393
_cell_angle_gamma                 90.027281
_cell_volume                      1663.03305517

loop_
_atom_site_label
_atom_site_type_symbol
_atom_type_description
_atom_site_fract_x
_atom_site_fract_y
_atom_site_fract_z
_atom_type_partial_charge
C1    C     C_R   0.872553 0.500045 0.500242 -0.015940
C2    C     C_R   0.429956 0.357470 0.951897 0.057133
C3    C     C_R   0.424438 0.484225 0.910085 0.058838
C4    C     C_R   0.434237 0.485593 0.086218 0.040918
C5    C     C_1   0.453581 0.494497 0.822615 -0.055640
C6    C     C_1   0.459118 0.488399 0.175615 -0.052531
C7    C     C_1   0.479888 0.493765 0.250214 -0.182774
C8    C     C_1   0.477670 0.502114 0.749094 -0.218420
C9    C     C_R   0.579317 0.073667 0.552832 -0.021285
C10   C     C_R   0.421320 0.926420 0.446675 -0.012114
C11   C     C_R   0.420857 0.070683 0.447113 -0.014527
C12   C     C_R   0.127471 0.500001 0.500154 -0.016126
C13   C     C_R   0.578655 0.929440 0.553261 -0.021851
C14   C     C_R   0.063826 0.376679 0.501022 -0.183013
C15   C     C_R   0.936201 0.623386 0.499551 -0.183269
C16   C     C_R   0.936132 0.376695 0.500965 -0.182514
C17   C     C_R   0.063904 0.623365 0.499514 -0.182522
C18   C     C_1   0.663273 0.148342 0.609052 0.224393
C19   C     C_1   0.338531 0.851942 0.389528 0.208411
C20   C     C_1   0.335764 0.142823 0.392298 0.218198
C21   C     C_1   0.660658 0.857917 0.610598 0.223604
C22   C     C_3   0.428988 0.742284 0.095677 -0.410775
C23   C     C_R   0.259988 0.499985 0.499972 0.873712
C24   C     C_3   0.566124 0.780286 0.113210 -0.327545
C25   C     C_3   0.578224 0.892522 0.180915 -0.884420
C26   C     C_3   0.437913 0.217527 0.906841 -0.435511
C27   C     C_3   0.442804 0.204791 0.809323 -0.311809
C28   C     C_3   0.442670 0.056750 0.779667 -0.901621
C29   C     C_3   0.352492 0.731314 0.909404 -0.415869
C30   C     C_3   0.213287 0.750565 0.928747 -0.347560
C31   C     C_3   0.160442 0.878448 0.889297 -0.890940
C32   C     C_3   0.409851 0.230791 0.093208 -0.431017
C33   C     C_3   0.273340 0.217378 0.119995 -0.320373
C34   C     C_R   0.740018 0.500025 0.500141 0.873334
C35   C     C_3   0.244867 0.076467 0.152652 -0.864636
C36   C     C_R   0.498623 0.498531 0.338917 0.912377
C37   C     C_R   0.498993 0.501151 0.661085 0.920573
C38   C     C_R   0.401851 0.606736 0.955356 0.054123
C39   C     C_R   0.426615 0.359998 0.042235 0.040748
C40   C     C_R   0.419508 0.609347 0.044395 0.052785
H1    H     H_    0.112147 0.280479 0.501754 0.164659
H2    H     H_    0.383278 0.827830 0.063702 0.195438
H3    H     H_    0.378147 0.732849 0.156454 0.221662
H4    H     H_    0.525749 0.003334 0.805556 0.263399
H5    H     H_    0.357124 0.005240 0.800523 0.266710
H6    H     H_    0.444559 0.051004 0.709065 0.257738
H7    H     H_    0.360153 0.254666 0.780090 0.237225
H8    H     H_    0.530961 0.249741 0.786935 0.249543
H9    H     H_    0.523129 0.166441 0.931602 0.202200
H10   H     H_    0.354979 0.158771 0.926114 0.208959
H11   H     H_    0.209352 0.968955 0.916166 0.255708
H12   H     H_    0.887861 0.719589 0.498941 0.163710
H13   H     H_    0.059845 0.887247 0.904144 0.257382
H14   H     H_    0.170047 0.874173 0.818948 0.265977
H15   H     H_    0.160111 0.661937 0.902809 0.229889
H16   H     H_    0.198138 0.756149 0.998557 0.220384
H17   H     H_    0.408168 0.822484 0.927271 0.198397
H18   H     H_    0.360548 0.722052 0.839207 0.218298
H19   H     H_    0.247065 0.001612 0.099169 0.248201
H20   H     H_    0.313532 0.047165 0.202670 0.272891
H21   H     H_    0.150099 0.075333 0.180091 0.258053
H22   H     H_    0.253170 0.293689 0.170827 0.239327
H23   H     H_    0.887756 0.280485 0.501451 0.164487
H24   H     H_    0.210113 0.236903 0.064686 0.218090
H25   H     H_    0.437567 0.138164 0.057852 0.194466
H26   H     H_    0.471838 0.231824 0.150619 0.208000
H27   H     H_    0.112298 0.719569 0.498967 0.164606
H28   H     H_    0.528848 0.984571 0.159701 0.257430
H29   H     H_    0.538590 0.859201 0.242037 0.273730
H30   H     H_    0.678205 0.917767 0.191742 0.250880
H31   H     H_    0.619916 0.691400 0.135582 0.231812
H32   H     H_    0.608544 0.814606 0.053165 0.214283
N1    N     N_R   0.500000 0.857200 0.500000 -0.122029
N2    N     N_R   0.500000 0.142800 0.500000 -0.122170
N3    N     N_1   0.730829 0.207399 0.654444 -0.223224
N4    N     N_1   0.271952 0.793067 0.343357 -0.229093
N5    N     N_1   0.267029 0.200594 0.348569 -0.223072
N6    N     N_1   0.726632 0.801312 0.656863 -0.217505
O1    O     O_R   0.316770 0.614620 0.499990 -0.623828
O2    O     O_R   0.683230 0.385380 0.500010 -0.624091
O3    O     O_R   0.683230 0.614620 0.500010 -0.624517
O4    O     O_R   0.316770 0.385380 0.499990 -0.623905
O5    O     O_R   0.499980 0.614630 0.378020 -0.609228
O6    O     O_R   0.500020 0.385370 0.621980 -0.615070
O7    O     O_R   0.500020 0.614630 0.621980 -0.605995
O8    O     O_R   0.499980 0.385370 0.378020 -0.609248
Zn1   Zn    Zn3+2 0.500000 0.653120 0.500000 0.963419
Zn2   Zn    Zn3+2 0.500000 0.346880 0.500000 0.961481

loop_
_geom_bond_atom_site_label_1
_geom_bond_atom_site_label_2
_ccdc_geom_bond_type
C27   H8    S    
O5    Zn1   S    
C18   N3    T    
C23   O4    A    
C7    C36   S    
O1    Zn1   S    
C12   C23   S    
C28   H6    S    
C26   C27   S    
C20   N5    T    
C37   O7    A    
C19   N4    T    
C26   H10   S    
C30   C31   S    
C10   N1    A    
O8    Zn2   S    
C36   O5    A    
C35   H19   S    
C32   C39   S    
C9    C13   A    
N1    Zn1   S    
C34   O2    A    
C2    C39   A    
C4    C40   A    
C3    C38   A    
C33   H22   S    
C29   C38   S    
C37   O6    A    
C1    C15   A    
C16   H23   S    
C25   H28   S    
C1    C34   S    
O7    Zn1   S    
C11   C20   S    
C28   H5    S    
C17   H27   S    
C24   C25   S    
C35   H21   S    
C26   H9    S    
C36   O8    A    
C30   H16   S    
C28   H4    S    
C35   H20   S    
C12   C17   A    
C29   C30   S    
C22   H3    S    
C4    C39   A    
C10   C19   S    
C22   C40   S    
C13   C21   S    
C2    C26   S    
C1    C16   A    
C15   H12   S    
C31   H13   S    
C21   N6    T    
O3    Zn1   S    
C14   H1    S    
C4    C6    S    
C34   O3    A    
C29   H17   S    
C22   C24   S    
C25   H29   S    
C8    C37   S    
C24   H32   S    
C32   H26   S    
C27   H7    S    
C15   C17   A    
C13   N1    A    
O6    Zn2   S    
C31   H11   S    
C3    C5    S    
C11   N2    A    
C5    C8    T    
C6    C7    T    
C30   H15   S    
C23   O1    A    
C32   C33   S    
C2    C3    A    
C12   C14   A    
O2    Zn2   S    
C38   C40   A    
C22   H2    S    
C33   H24   S    
O4    Zn2   S    
C33   C35   S    
C14   C16   A    
C31   H14   S    
C10   C11   A    
C9    C18   S    
C29   H18   S    
C9    N2    A    
C27   C28   S    
C25   H30   S    
N2    Zn2   S    
C24   H31   S    
C32   H25   S    
