data_mof_unit_31341.cif
_audit_creation_date              2012-12-10T20:28:45-0500
_audit_creation_method            fapswitch 2.2
_symmetry_space_group_name_H-M    P1
_symmetry_Int_Tables_number       1
_space_group_crystal_system       triclinic
_cell_length_a                    10.725518
_cell_length_b                    10.688176
_cell_length_c                    9.835031
_cell_angle_alpha                 89.478484
_cell_angle_beta                  91.194365
_cell_angle_gamma                 90.256037
_cell_volume                      1127.14884752

loop_
_atom_site_label
_atom_site_type_symbol
_atom_type_description
_atom_site_fract_x
_atom_site_fract_y
_atom_site_fract_z
_atom_type_partial_charge
Br1   Br    Br    0.146350 0.688942 0.013549 -0.590475
C1    C     C_R   0.504046 0.259709 0.500467 0.885709
C2    C     C_R   0.543058 0.936489 0.376891 -0.201317
C3    C     C_R   0.526198 0.871217 0.499419 -0.105202
C4    C     C_R   0.260828 0.513428 0.498981 0.883740
C5    C     C_R   0.533904 0.934428 0.622361 0.126459
C6    C     C_3   0.453696 0.924233 0.744322 -0.433430
C7    C     C_3   0.453124 0.065843 0.745313 -0.493448
C8    C     C_R   0.394113 0.470414 0.069280 0.292285
C9    C     C_R   0.599352 0.544756 0.073875 -0.138340
C10   C     C_R   0.598795 0.545794 0.929700 -0.159476
C11   C     C_R   0.393880 0.471050 0.926719 0.265395
C12   C     C_R   0.066254 0.552752 0.620747 0.050413
C13   C     C_3   0.321275 0.352237 0.920194 -0.517218
C14   C     C_3   0.322501 0.350857 0.074728 -0.513323
C15   C     C_R   0.504615 0.740085 0.499539 0.883160
C16   C     C_R   0.740661 0.492446 0.502383 0.880436
C17   C     C_R   0.123800 0.612540 0.733949 -0.204009
C18   C     C_R   0.068318 0.608832 0.860959 0.310767
C19   C     C_R   0.957849 0.542286 0.877026 -0.211177
C20   C     C_R   0.896346 0.492022 0.763541 -0.231235
C21   C     C_R   0.943565 0.510201 0.631238 0.112625
C22   C     C_R   0.128170 0.529606 0.498251 -0.111639
C23   C     C_R   0.061952 0.498232 0.379838 -0.172286
C24   C     C_R   0.935521 0.481954 0.384006 -0.211285
C25   C     C_R   0.875007 0.488017 0.508324 -0.118423
C26   C     C_R   0.533587 0.062158 0.623205 0.130490
C27   C     C_R   0.525296 0.128358 0.500792 -0.107495
C28   C     C_R   0.542637 0.065889 0.377576 -0.218422
H1    H     H_    0.107842 0.483801 0.284237 0.184455
H2    H     H_    0.377721 0.272712 0.120418 0.211678
H3    H     H_    0.211074 0.662773 0.724494 0.172426
H4    H     H_    0.918431 0.531041 0.976896 0.156848
H5    H     H_    0.815126 0.435128 0.782309 0.179263
H6    H     H_    0.885508 0.462790 0.289525 0.167541
H7    H     H_    0.546505 0.115698 0.281312 0.170777
H8    H     H_    0.547026 0.888759 0.280377 0.179627
H9    H     H_    0.360538 0.882529 0.721038 0.209655
H10   H     H_    0.504307 0.882257 0.833257 0.212821
H11   H     H_    0.359472 0.106053 0.722397 0.208573
H12   H     H_    0.503737 0.105061 0.835126 0.202701
H13   H     H_    0.680335 0.578965 0.129560 0.157692
H14   H     H_    0.678090 0.583031 0.876886 0.163127
H15   H     H_    0.226727 0.365934 0.874192 0.223055
H16   H     H_    0.375530 0.275424 0.876467 0.210020
H17   H     H_    0.228425 0.363409 0.117585 0.212913
N1    N     N_R   0.499160 0.499140 0.142800 -0.116023
N2    N     N_R   0.499160 0.499180 0.857150 -0.117317
O1    O     O_R   0.500020 0.316790 0.614690 -0.617707
O2    O     O_R   0.500000 0.316760 0.385350 -0.626722
O3    O     O_R   0.316770 0.500020 0.614690 -0.626671
O4    O     O_R   0.316760 0.499980 0.385350 -0.607412
O5    O     O_R   0.500000 0.683240 0.614650 -0.622100
O6    O     O_R   0.499980 0.683210 0.385310 -0.611029
O7    O     O_R   0.683240 0.500020 0.614650 -0.635398
O8    O     O_R   0.683230 0.499980 0.385310 -0.628564
Zn1   Zn    Zn3+2 0.500010 0.500020 0.653130 0.941635
Zn2   Zn    Zn3+2 0.499990 0.499980 0.346870 0.960858

loop_
_geom_bond_atom_site_label_1
_geom_bond_atom_site_label_2
_ccdc_geom_bond_type
C3    C15   S    
C1    C27   S    
C22   C23   A    
C4    O4    A    
C10   H14   S    
C5    C6    S    
O3    Zn1   S    
C1    O1    A    
C9    H13   S    
C7    H11   S    
C16   O7    A    
C18   C19   A    
C28   H7    S    
C11   N2    A    
C8    C14   S    
C23   C24   A    
C6    C7    S    
C20   C21   A    
C19   C20   A    
N1    Zn2   S    
C14   H2    S    
C16   O8    A    
C12   C22   A    
C10   N2    A    
O4    Zn2   S    
C12   C17   A    
C24   H6    S    
C16   C25   S    
C13   H15   S    
C27   C28   A    
C6    H9    S    
C11   C13   S    
C12   C21   A    
C8    N1    A    
C13   H16   S    
C15   O6    A    
O7    Zn1   S    
C21   C25   A    
C8    C11   A    
C23   H1    S    
Br1   C18   S    
C17   H3    S    
C9    C10   A    
C19   H4    S    
C2    C3    A    
O2    Zn2   S    
N2    Zn1   S    
O1    Zn1   S    
C7    H12   S    
C2    H8    S    
C3    C5    A    
C17   C18   A    
O6    Zn2   S    
C26   C27   A    
C2    C28   A    
C7    C26   S    
C6    H10   S    
C15   O5    A    
C4    O3    A    
O5    Zn1   S    
C20   H5    S    
C1    O2    A    
C14   H17   S    
C24   C25   A    
C13   C14   S    
C9    N1    A    
C5    C26   A    
O8    Zn2   S    
C4    C22   S    
