data_mof_unit_62972.cif
_audit_creation_date              2012-10-26T18:45:08-0400
_audit_creation_method            fapswitch 2.2
_symmetry_space_group_name_H-M    P1
_symmetry_Int_Tables_number       1
_space_group_crystal_system       triclinic
_cell_length_a                    16.006593
_cell_length_b                    14.765711
_cell_length_c                    10.758515
_cell_angle_alpha                 89.988283
_cell_angle_beta                  90.024684
_cell_angle_gamma                 90.005019
_cell_volume                      2542.7610186

loop_
_atom_site_label
_atom_site_type_symbol
_atom_type_description
_atom_site_fract_x
_atom_site_fract_y
_atom_site_fract_z
_atom_type_partial_charge
C1    C     C_R   0.340902 0.499995 0.500188 0.539696
C2    C     C_1   0.176955 0.499918 0.499178 -0.065444
C3    C     C_1   0.251913 0.499968 0.499598 -0.037265
C4    C     C_1   0.747978 0.499983 0.499813 -0.047134
C5    C     C_R   0.499758 0.952083 0.612158 -0.111872
C6    C     C_R   0.499758 0.047879 0.612157 -0.111818
C7    C     C_R   0.500132 0.500131 0.259419 0.545543
C8    C     C_R   0.499982 0.902862 0.500022 0.003976
C9    C     C_R   0.499981 0.097135 0.500022 0.003940
C10   C     C_R   0.500207 0.952116 0.387885 -0.111903
C11   C     C_R   0.500207 0.047913 0.387885 -0.111836
C12   C     C_3   0.500020 0.598923 0.928629 -0.234946
C13   C     C_1   0.499980 0.802719 0.500029 0.115958
C14   C     C_1   0.499980 0.197280 0.500028 0.116497
C15   C     C_R   0.659057 0.500001 0.500222 0.538799
C16   C     C_R   0.500119 0.500108 0.740701 0.538990
C17   C     C_3   0.421077 0.449370 0.071071 -0.122897
C18   C     C_3   0.579529 0.449704 0.071184 -0.121295
C19   C     C_3   0.421368 0.450936 0.926924 -0.221457
C20   C     C_3   0.579240 0.451314 0.926998 -0.221397
C21   C     C_3   0.500054 0.599241 0.070826 -0.221226
C22   C     C_3   0.500206 0.500438 0.121630 0.078436
C23   C     C_R   0.957026 0.500730 0.613372 0.009934
C24   C     C_3   0.500194 0.500304 0.878190 0.026730
C25   C     C_3   0.337269 0.485126 0.122142 -0.419531
C26   C     C_3   0.663229 0.485764 0.122428 -0.422626
C27   C     C_3   0.914500 0.501682 0.738644 -0.407973
C28   C     C_3   0.914001 0.497874 0.259988 -0.409049
C29   C     C_R   0.956818 0.498908 0.385105 0.010260
C30   C     C_R   0.912709 0.499845 0.499305 0.073935
C31   C     C_R   0.044247 0.498926 0.386636 -0.097920
C32   C     C_R   0.044421 0.500734 0.611614 -0.097536
C33   C     C_R   0.087593 0.499857 0.499093 0.011350
C34   C     C_1   0.822929 0.499924 0.499494 -0.058119
Cu1   Cu    Cu3+1 0.500000 0.589220 0.500040 0.962840
Cu2   Cu    Cu3+1 0.500000 0.410780 0.500040 0.962467
H1    H     H_    0.500384 0.916443 0.299928 0.103120
H2    H     H_    0.555348 0.637347 0.104999 0.126684
H3    H     H_    0.443795 0.635776 0.894550 0.128662
H4    H     H_    0.556089 0.636036 0.894560 0.128416
H5    H     H_    0.078923 0.501430 0.698425 0.110102
H6    H     H_    0.078622 0.498226 0.299757 0.109602
H7    H     H_    0.499582 0.083549 0.700115 0.103592
H8    H     H_    0.499582 0.916385 0.700115 0.103307
H9    H     H_    0.336148 0.482822 0.225148 0.148517
H10   H     H_    0.324908 0.555467 0.090975 0.133282
H11   H     H_    0.285431 0.441672 0.088090 0.125143
H12   H     H_    0.500384 0.083611 0.299927 0.103279
H13   H     H_    0.664323 0.483458 0.225435 0.146779
H14   H     H_    0.715227 0.442517 0.088489 0.123943
H15   H     H_    0.675415 0.556150 0.091311 0.133214
H16   H     H_    0.845396 0.501569 0.732620 0.135833
H17   H     H_    0.933741 0.440994 0.792498 0.125863
H18   H     H_    0.933666 0.563235 0.790649 0.126221
H19   H     H_    0.844911 0.497972 0.266291 0.135074
H20   H     H_    0.933104 0.558532 0.205989 0.126433
H21   H     H_    0.933029 0.436292 0.207977 0.126026
H22   H     H_    0.425293 0.377267 0.101058 0.137176
H23   H     H_    0.575535 0.377578 0.101130 0.137110
H24   H     H_    0.419984 0.380065 0.891669 0.119731
H25   H     H_    0.580920 0.380468 0.891685 0.119362
H26   H     H_    0.364660 0.485153 0.889494 0.120221
H27   H     H_    0.635809 0.485835 0.889674 0.118835
H28   H     H_    0.444674 0.637163 0.104979 0.126678
N1    N     N_1   0.499980 0.276710 0.500040 -0.196475
N2    N     N_1   0.499980 0.723290 0.500040 -0.197077
O1    O     O_R   0.380310 0.575320 0.500060 -0.488961
O2    O     O_R   0.380310 0.424680 0.500060 -0.489902
O3    O     O_R   0.499990 0.575340 0.317720 -0.504880
O4    O     O_R   0.499990 0.424660 0.317720 -0.507889
O5    O     O_R   0.619690 0.575360 0.500000 -0.488777
O6    O     O_R   0.619690 0.424640 0.500000 -0.489575
O7    O     O_R   0.500010 0.575340 0.682340 -0.502621
O8    O     O_R   0.500010 0.424660 0.682340 -0.502150

loop_
_geom_bond_atom_site_label_1
_geom_bond_atom_site_label_2
_ccdc_geom_bond_type
C7    O3    A    
C5    C8    A    
C9    C14   S    
C31   C33   A    
C12   H4    S    
C8    C13   S    
C31   H6    S    
C23   C27   S    
C19   H24   S    
C7    C22   S    
C15   O5    A    
C25   H11   S    
Cu1   Cu2   S    
C18   C26   S    
Cu1   O1    S    
C17   H22   S    
C32   H5    S    
C17   C25   S    
C23   C32   A    
Cu2   O2    S    
C6    C9    A    
C27   H17   S    
C2    C3    T    
C28   H20   S    
C27   H18   S    
Cu1   O5    S    
C16   C24   S    
C18   C22   S    
C26   H15   S    
C32   C33   A    
C7    O4    A    
C15   O6    A    
C9    C11   A    
C12   H3    S    
C11   H12   S    
C29   C30   A    
Cu2   O8    S    
C20   H27   S    
C10   H1    S    
C16   O8    A    
C12   C21   S    
C2    C33   S    
C21   C22   S    
C28   C29   S    
C1    O1    A    
C14   N1    T    
Cu2   O4    S    
C19   C24   S    
C18   C20   S    
C6    H7    S    
C26   H14   S    
C4    C15   S    
C5    C6    A    
C4    C34   T    
C10   C11   A    
C30   C34   S    
C19   H26   S    
Cu2   O6    S    
C13   N2    T    
C28   H19   S    
C23   C30   A    
C25   H9    S    
C18   H23   S    
C1    O2    A    
C27   H16   S    
Cu1   O3    S    
C29   C31   A    
C26   H13   S    
C20   H25   S    
C17   C22   S    
C12   C24   S    
Cu2   N1    S    
Cu1   O7    S    
C21   H28   S    
Cu1   N2    S    
C17   C19   S    
C28   H21   S    
C25   H10   S    
C5    H8    S    
C8    C10   A    
C21   H2    S    
C20   C24   S    
C1    C3    S    
C16   O7    A    
