data_mof_unit_60143.cif
_audit_creation_date              2012-10-26T20:55:23-0400
_audit_creation_method            fapswitch 2.2
_symmetry_space_group_name_H-M    P1
_symmetry_Int_Tables_number       1
_space_group_crystal_system       triclinic
_cell_length_a                    15.825118
_cell_length_b                    17.102016
_cell_length_c                    17.386784
_cell_angle_alpha                 89.963732
_cell_angle_beta                  95.437856
_cell_angle_gamma                 83.167005
_cell_volume                      4650.79663761

loop_
_atom_site_label
_atom_site_type_symbol
_atom_type_description
_atom_site_fract_x
_atom_site_fract_y
_atom_site_fract_z
_atom_type_partial_charge
C1    C     C_R   0.510940 0.348619 0.502449 0.586354
C2    C     C_R   0.475688 0.902198 0.488528 0.191356
C3    C     C_R   0.588705 0.135108 0.551352 -0.045915
C4    C     C_R   0.411306 0.864888 0.448628 -0.045919
C5    C     C_R   0.585892 0.216883 0.549318 0.221452
C6    C     C_R   0.414121 0.783112 0.450663 0.221439
C7    C     C_R   0.252798 0.465207 0.541796 0.086324
C8    C     C_R   0.747202 0.534791 0.458202 0.086307
C9    C     C_R   0.164019 0.462681 0.538913 0.234949
C10   C     C_R   0.835981 0.537317 0.461085 0.234943
C11   C     C_R   0.108865 0.508121 0.481914 0.223526
C12   C     C_R   0.489060 0.651381 0.497551 0.586339
C13   C     C_R   0.891135 0.491880 0.518086 0.223528
C14   C     C_R   0.146704 0.552753 0.429781 -0.135061
C15   C     C_R   0.853296 0.447251 0.570221 -0.135055
C16   C     C_R   0.509777 0.501631 0.650009 0.581009
C17   C     C_R   0.490223 0.498368 0.349992 0.581028
C18   C     C_R   0.235717 0.552987 0.434967 0.036826
C19   C     C_R   0.764282 0.447016 0.565036 0.036836
C20   C     C_R   0.511756 0.501336 0.733790 -0.039147
C21   C     C_R   0.488248 0.498655 0.266212 -0.039139
C22   C     C_R   0.447464 0.546717 0.770643 0.254566
C23   C     C_R   0.517482 0.262505 0.505845 0.030187
C24   C     C_R   0.552516 0.453233 0.229367 0.254571
C25   C     C_R   0.442819 0.536400 0.849817 0.247614
C26   C     C_R   0.557182 0.463542 0.150194 0.247581
C27   C     C_R   0.504847 0.483231 0.892643 0.016273
C28   C     C_R   0.495195 0.516748 0.107363 0.016310
C29   C     C_R   0.571017 0.440622 0.855891 0.102762
C30   C     C_R   0.429051 0.559404 0.144111 0.102752
C31   C     C_R   0.573629 0.449638 0.776529 -0.164993
C32   C     C_R   0.426416 0.550392 0.223471 -0.165008
C33   C     C_2   0.500462 0.470064 0.975357 -0.047438
C34   C     C_R   0.482518 0.737494 0.494154 0.030185
C35   C     C_2   0.499595 0.529907 0.024649 -0.047493
C36   C     C_3   0.710584 0.425252 0.925067 -0.225249
C37   C     C_3   0.289442 0.574948 0.075012 -0.225218
C38   C     C_R   0.452745 0.225064 0.465893 -0.171252
C39   C     C_R   0.547240 0.774937 0.534124 -0.171266
C40   C     C_R   0.455957 0.143544 0.468309 -0.080935
C41   C     C_R   0.544027 0.856457 0.531708 -0.080940
C42   C     C_R   0.524309 0.097801 0.511470 0.191357
Cl1   Cl    Cl    0.373193 0.617909 0.718518 -0.447057
Cl2   Cl    Cl    0.626735 0.382006 0.281502 -0.447051
Cl3   Cl    Cl    0.871855 0.602199 0.395930 -0.523010
Cl4   Cl    Cl    0.128144 0.397796 0.604065 -0.522980
Cl5   Cl    Cl    0.644585 0.413338 0.107056 -0.522830
Cl6   Cl    Cl    0.355400 0.586553 0.892971 -0.522837
Cl7   Cl    Cl    0.666505 0.259037 0.606159 -0.596173
Cl8   Cl    Cl    0.333530 0.740953 0.393800 -0.596242
Cu1   Cu    Cu3+1 0.585060 0.496170 0.503810 1.046255
Cu2   Cu    Cu3+1 0.414940 0.503830 0.496190 1.046264
H1    H     H_    0.705003 0.570233 0.415633 0.171189
H2    H     H_    0.502411 0.409953 0.996358 0.190211
H3    H     H_    0.600276 0.741027 0.567806 0.151856
H4    H     H_    0.399698 0.258976 0.432225 0.151870
H5    H     H_    0.595062 0.883244 0.563528 0.165215
H6    H     H_    0.404909 0.116759 0.436504 0.165217
H7    H     H_    0.640851 0.100168 0.585183 0.170011
H8    H     H_    0.359171 0.899826 0.414784 0.170009
H9    H     H_    0.650951 0.336486 0.870793 0.275922
H10   H     H_    0.743554 0.442107 0.874955 0.135501
H11   H     H_    0.755348 0.383092 0.962344 0.203944
H12   H     H_    0.294997 0.429762 0.584363 0.171199
H13   H     H_    0.692867 0.478542 0.959313 0.200921
H14   H     H_    0.349294 0.663637 0.129183 0.275927
H15   H     H_    0.256463 0.558207 0.125160 0.135498
H16   H     H_    0.307038 0.521603 0.040803 0.200978
H17   H     H_    0.244730 0.617137 0.037721 0.203936
H18   H     H_    0.107088 0.587107 0.384632 0.170478
H19   H     H_    0.892912 0.412899 0.615372 0.170481
H20   H     H_    0.263672 0.586952 0.393722 0.185840
H21   H     H_    0.736328 0.413054 0.606283 0.185831
H22   H     H_    0.376973 0.585190 0.252022 0.162434
H23   H     H_    0.623096 0.414877 0.747975 0.162398
H24   H     H_    0.497640 0.590018 0.003643 0.190155
N1    N     N_2   0.530729 0.014559 0.517070 -0.225694
N2    N     N_2   0.469268 0.985439 0.482927 -0.225693
N3    N     N_R   0.287170 0.509590 0.490460 -0.260389
N4    N     N_R   0.712830 0.490410 0.509540 -0.260387
N5    N     N_2   0.017650 0.507889 0.470743 -0.129341
N6    N     N_2   0.982350 0.492112 0.529257 -0.129342
N7    N     N_2   0.635374 0.388684 0.898738 -0.481991
N8    N     N_2   0.364751 0.611401 0.101264 -0.482046
O1    O     O_R   0.579730 0.382480 0.503570 -0.429486
O2    O     O_R   0.420270 0.617520 0.496430 -0.429509
O3    O     O_R   0.436070 0.388960 0.497130 -0.532330
O4    O     O_R   0.563930 0.611040 0.502870 -0.532324
O5    O     O_R   0.580160 0.496380 0.617190 -0.517959
O6    O     O_R   0.419840 0.503620 0.382810 -0.517932
O7    O     O_R   0.436500 0.502850 0.610750 -0.466631
O8    O     O_R   0.563500 0.497150 0.389250 -0.466653

loop_
_geom_bond_atom_site_label_1
_geom_bond_atom_site_label_2
_ccdc_geom_bond_type
C1    O3    A    
C38   C40   A    
C3    C42   A    
C37   H17   S    
C27   C29   A    
C14   C18   A    
Cu2   O6    S    
Cu1   O1    S    
N5    N6    D    
C39   C41   A    
N1    N2    D    
C27   C33   S    
C15   C19   A    
C24   C26   A    
C29   N7    S    
C32   H22   S    
C11   C14   A    
C36   N7    S    
C37   H16   S    
Cu1   N4    S    
C39   H3    S    
C28   C35   S    
C18   N3    A    
C22   C25   A    
C37   N8    S    
C36   H11   S    
C40   C42   A    
C16   O5    A    
C18   H20   S    
C14   H18   S    
C5    Cl7   S    
C17   O8    A    
C36   H10   S    
C1    O1    A    
C21   C32   A    
C35   H24   S    
C40   H6    S    
C12   O4    A    
Cu1   Cu2   S    
C19   H21   S    
C4    C6    A    
H9    N7    S    
C36   H13   S    
C13   N6    S    
C11   N5    S    
C34   C39   A    
Cu1   O4    S    
C2    C4    A    
C2    N2    S    
Cu1   O8    S    
C31   H23   S    
C22   Cl1   S    
C5    C23   A    
C16   C20   S    
C4    H8    S    
C10   Cl3   S    
C6    Cl8   S    
C9    C11   A    
C25   Cl6   S    
C26   Cl5   S    
C16   O7    A    
C20   C22   A    
C1    C23   S    
C13   C15   A    
C24   Cl2   S    
C12   C34   S    
Cu2   N3    S    
C7    N3    A    
C33   H2    S    
C7    C9    A    
Cu2   O3    S    
C17   O6    A    
C3    C5    A    
C10   C13   A    
C8    H1    S    
C25   C27   A    
C23   C38   A    
C15   H19   S    
C26   C28   A    
C12   O2    A    
C28   C30   A    
C41   H5    S    
C29   C31   A    
Cu1   O5    S    
C30   C32   A    
C37   H15   S    
Cu2   O2    S    
C33   C35   D    
C30   N8    S    
C19   N4    A    
C17   C21   S    
C7    H12   S    
H14   N8    S    
C6    C34   A    
C9    Cl4   S    
C38   H4    S    
C42   N1    S    
C8    C10   A    
C21   C24   A    
C8    N4    A    
Cu2   O7    S    
C2    C41   A    
C20   C31   A    
C3    H7    S    
