data_mof_unit_60066.cif
_audit_creation_date              2012-10-26T19:16:52-0400
_audit_creation_method            fapswitch 2.2
_symmetry_space_group_name_H-M    P1
_symmetry_Int_Tables_number       1
_space_group_crystal_system       triclinic
_cell_length_a                    13.902971
_cell_length_b                    14.769194
_cell_length_c                    16.014521
_cell_angle_alpha                 90.02305
_cell_angle_beta                  89.981646
_cell_angle_gamma                 84.861481
_cell_volume                      3275.13638705

loop_
_atom_site_label
_atom_site_type_symbol
_atom_type_description
_atom_site_fract_x
_atom_site_fract_y
_atom_site_fract_z
_atom_type_partial_charge
C1    C     C_R   0.499968 0.500043 0.659105 0.549759
C2    C     C_R   0.438153 0.957303 0.446966 -0.105234
C3    C     C_1   0.500031 0.197284 0.499979 0.133620
C4    C     C_1   0.499969 0.802716 0.500021 0.133620
C5    C     C_R   0.683476 0.485456 0.499974 0.547273
C6    C     C_R   0.316524 0.514544 0.500026 0.547274
C7    C     C_1   0.213505 0.523452 0.500044 -0.007057
C8    C     C_1   0.786495 0.476548 0.499956 -0.007057
C9    C     C_2   0.023288 0.537539 0.500077 -0.115348
C10   C     C_2   0.976712 0.462460 0.499923 -0.115348
C11   C     C_1   0.873223 0.469483 0.499941 -0.040921
C12   C     C_R   0.500032 0.499957 0.340895 0.549759
C13   C     C_1   0.126777 0.530517 0.500059 -0.040921
C14   C     C_R   0.493886 0.417415 0.042509 0.004441
C15   C     C_R   0.506114 0.582585 0.957491 0.004441
C16   C     C_R   0.499912 0.498701 0.087345 0.010374
C17   C     C_R   0.500088 0.501299 0.912655 0.010374
C18   C     C_R   0.505984 0.580726 0.044748 -0.121570
C19   C     C_R   0.494016 0.419274 0.955252 -0.121570
C20   C     C_1   0.499976 0.499450 0.176963 -0.039775
C21   C     C_1   0.500024 0.500550 0.823037 -0.039775
C22   C     C_1   0.487541 0.331719 0.084693 0.204551
C23   C     C_1   0.499988 0.500163 0.748092 -0.009094
C24   C     C_1   0.512459 0.668281 0.915307 0.204551
C25   C     C_1   0.500012 0.499837 0.251908 -0.009094
C26   C     C_R   0.438175 0.053084 0.446950 -0.102349
C27   C     C_R   0.561825 0.946916 0.553050 -0.102349
C28   C     C_R   0.500022 0.097134 0.499985 0.003446
C29   C     C_R   0.499978 0.902866 0.500015 0.003446
C30   C     C_R   0.561847 0.042696 0.553034 -0.105234
Cu1   Cu    Cu3+1 0.499970 0.410780 0.500000 1.007895
Cu2   Cu    Cu3+1 0.500030 0.589220 0.500000 1.007895
H1    H     H_    0.015993 0.395448 0.499784 0.140876
H2    H     H_    0.984007 0.604552 0.500216 0.140876
H3    H     H_    0.489384 0.356801 0.920392 0.124982
H4    H     H_    0.510616 0.643199 0.079607 0.124982
H5    H     H_    0.389635 0.925711 0.405363 0.116966
H6    H     H_    0.610365 0.074289 0.594637 0.116966
H7    H     H_    0.389673 0.092826 0.405336 0.121202
H8    H     H_    0.610327 0.907173 0.594664 0.121202
N1    N     N_1   0.499970 0.723290 0.500020 -0.187612
N2    N     N_1   0.500030 0.276710 0.499980 -0.187612
N3    N     N_1   0.482460 0.263086 0.118527 -0.281940
N4    N     N_1   0.517540 0.736913 0.881473 -0.281940
O1    O     O_R   0.499950 0.424680 0.619690 -0.492884
O2    O     O_R   0.500050 0.575320 0.380310 -0.492884
O3    O     O_R   0.500000 0.575360 0.619690 -0.482516
O4    O     O_R   0.500000 0.424640 0.380310 -0.482516
O5    O     O_R   0.637820 0.414010 0.499980 -0.489393
O6    O     O_R   0.362180 0.585990 0.500020 -0.489393
O7    O     O_R   0.637870 0.564690 0.499980 -0.489691
O8    O     O_R   0.362130 0.435310 0.500020 -0.489692

loop_
_geom_bond_atom_site_label_1
_geom_bond_atom_site_label_2
_ccdc_geom_bond_type
C15   C18   A    
Cu2   N1    S    
Cu2   O7    S    
C6    C7    S    
Cu1   N2    S    
C27   C29   A    
C9    C10   D    
C12   C25   S    
C26   C28   A    
C4    C29   S    
C12   O4    A    
Cu1   O8    S    
C16   C20   S    
C1    O1    A    
C14   C22   S    
C28   C30   A    
C2    C26   A    
C19   H3    S    
C6    O6    A    
C27   C30   A    
C2    H5    S    
C5    O5    A    
C18   H4    S    
Cu1   O5    S    
C8    C11   T    
C12   O2    A    
C15   C24   S    
C17   C19   A    
C1    C23   S    
C10   H1    S    
Cu1   O4    S    
C2    C29   A    
C21   C23   T    
Cu1   O1    S    
C9    H2    S    
C24   N4    T    
Cu2   O3    S    
C14   C16   A    
C26   H7    S    
C5    C8    S    
C10   C11   S    
C7    C13   T    
C3    N2    T    
C30   H6    S    
C16   C18   A    
C4    N1    T    
C5    O7    A    
C15   C17   A    
C9    C13   S    
C3    C28   S    
C27   H8    S    
C6    O8    A    
Cu2   O2    S    
C14   C19   A    
C22   N3    T    
C1    O3    A    
Cu2   O6    S    
Cu1   Cu2   S    
C20   C25   T    
C17   C21   S    
