data_mof_unit_63633.cif
_audit_creation_date              2012-12-10T19:49:10-0500
_audit_creation_method            fapswitch 2.2
_symmetry_space_group_name_H-M    P1
_symmetry_Int_Tables_number       1
_space_group_crystal_system       triclinic
_cell_length_a                    26.025175
_cell_length_b                    25.94873
_cell_length_c                    22.218377
_cell_angle_alpha                 90.02085
_cell_angle_beta                  54.159137
_cell_angle_gamma                 90.014242
_cell_volume                      12163.3594066

loop_
_atom_site_label
_atom_site_type_symbol
_atom_type_description
_atom_site_fract_x
_atom_site_fract_y
_atom_site_fract_z
_atom_type_partial_charge
C1    C     C_R   0.849483 0.750010 0.301012 0.814450
C2    C     C_R   0.849477 0.249976 0.301010 0.814313
C3    C     C_R   0.349483 0.250010 0.301012 0.814441
C4    C     C_R   0.349477 0.749976 0.301009 0.814282
C5    C     C_R   0.443977 0.724472 0.558350 -0.222553
C6    C     C_R   0.450860 0.286450 0.544353 -0.218749
C7    C     C_R   0.943982 0.224462 0.558341 -0.222214
C8    C     C_R   0.950861 0.786452 0.544350 -0.218842
C9    C     C_R   0.443574 0.753089 0.504823 -0.085178
C10   C     C_R   0.445495 0.250852 0.500173 -0.078063
C11   C     C_R   0.943572 0.253090 0.504826 -0.085306
C12   C     C_R   0.945495 0.750852 0.500173 -0.077984
C13   C     C_R   0.494294 0.786213 0.458418 0.144179
C14   C     C_R   0.495488 0.216924 0.457244 0.096449
C15   C     C_R   0.994283 0.286226 0.458439 0.144349
C16   C     C_R   0.995486 0.716922 0.457248 0.096359
C17   C     C_3   0.532781 0.792846 0.376153 -0.448657
C18   C     C_3   0.517960 0.172640 0.404923 -0.394128
C19   C     C_3   0.032769 0.292884 0.376178 -0.448706
C20   C     C_3   0.017956 0.672635 0.404932 -0.394036
C21   C     C_3   0.591133 0.792872 0.376189 -0.484902
C22   C     C_3   0.577267 0.172762 0.404693 -0.484758
C23   C     C_3   0.091121 0.292911 0.376216 -0.485001
C24   C     C_3   0.077263 0.672757 0.404701 -0.484537
C25   C     C_3   0.464156 0.743630 0.957334 -0.129918
C26   C     C_3   0.463818 0.248339 0.957354 -0.130314
C27   C     C_3   0.963721 0.250170 0.957341 -0.129741
C28   C     C_3   0.963814 0.748520 0.957354 -0.130040
C29   C     C_3   0.542000 0.801628 0.956724 -0.414868
C30   C     C_3   0.548865 0.201492 0.956637 -0.416244
C31   C     C_3   0.047618 0.298980 0.956732 -0.414363
C32   C     C_3   0.048712 0.701404 0.956636 -0.416272
C33   C     C_3   0.499046 0.801780 0.042853 -0.383882
C34   C     C_3   0.505957 0.201366 0.042777 -0.382475
C35   C     C_3   0.004680 0.299116 0.042858 -0.383132
C36   C     C_3   0.005804 0.701277 0.042777 -0.382442
C37   C     C_1   0.388970 0.750146 0.221607 -0.140257
C38   C     C_1   0.388995 0.249770 0.221604 -0.139739
C39   C     C_1   0.888956 0.250163 0.221608 -0.140265
C40   C     C_1   0.888995 0.749769 0.221603 -0.139799
C41   C     C_3   0.535319 0.749906 0.926796 0.263734
C42   C     C_3   0.535321 0.249774 0.926781 0.264426
C43   C     C_3   0.035234 0.250053 0.926796 0.263592
C44   C     C_3   0.035320 0.749776 0.926781 0.264620
C45   C     C_R   0.650552 0.750011 0.698972 0.819021
C46   C     C_R   0.650520 0.249949 0.698966 0.817885
C47   C     C_R   0.150552 0.250010 0.698972 0.819250
C48   C     C_R   0.150520 0.749949 0.698966 0.817747
C49   C     C_3   0.421610 0.742889 0.043877 -0.462285
C50   C     C_3   0.421187 0.249140 0.043894 -0.462603
C51   C     C_3   0.921092 0.249333 0.043887 -0.462570
C52   C     C_3   0.921185 0.749319 0.043894 -0.462626
C53   C     C_3   0.462456 0.750171 0.073233 0.335503
C54   C     C_3   0.462520 0.249556 0.073219 0.335024
C55   C     C_3   0.962408 0.250265 0.073234 0.335308
C56   C     C_3   0.962519 0.749557 0.073219 0.335128
C57   C     C_3   0.511126 0.705526 0.043113 -0.395215
C58   C     C_3   0.504783 0.298398 0.043120 -0.395393
C59   C     C_3   0.005828 0.202092 0.043100 -0.395441
C60   C     C_3   0.004936 0.798312 0.043120 -0.395494
C61   C     C_3   0.554835 0.705969 0.957072 -0.408904
C62   C     C_3   0.548550 0.298043 0.957082 -0.408598
C63   C     C_3   0.049567 0.202454 0.957059 -0.409100
C64   C     C_3   0.048702 0.797955 0.957082 -0.408886
C65   C     C_1   0.422095 0.750239 0.154804 -0.112846
C66   C     C_1   0.422156 0.249582 0.154797 -0.112605
C67   C     C_1   0.922067 0.250282 0.154805 -0.112819
C68   C     C_1   0.922155 0.749581 0.154796 -0.112668
C69   C     C_1   0.576859 0.750225 0.845116 -0.095557
C70   C     C_1   0.576862 0.249583 0.845104 -0.097555
C71   C     C_1   0.076815 0.250296 0.845116 -0.095553
C72   C     C_1   0.076861 0.749584 0.845103 -0.097697
C73   C     C_1   0.610642 0.750199 0.778337 -0.125546
C74   C     C_1   0.610611 0.249703 0.778326 -0.125555
C75   C     C_1   0.110621 0.250227 0.778337 -0.125892
C76   C     C_1   0.110610 0.749703 0.778326 -0.125775
C77   C     C_R   0.765566 0.973594 0.442736 0.112807
C78   C     C_R   0.765678 0.026299 0.442560 0.115912
C79   C     C_R   0.265816 0.473593 0.442643 0.112765
C80   C     C_R   0.265926 0.526301 0.442469 0.115927
C81   C     C_R   0.740184 0.945931 0.507885 -0.128261
C82   C     C_R   0.740309 0.054153 0.507544 -0.134181
C83   C     C_R   0.240227 0.445932 0.507834 -0.128159
C84   C     C_R   0.240356 0.554151 0.507496 -0.134039
C85   C     C_R   0.702882 0.972495 0.577353 0.052002
C86   C     C_R   0.702957 0.027864 0.577022 0.040701
C87   C     C_R   0.202743 0.472493 0.577283 0.052509
C88   C     C_R   0.202832 0.527861 0.576957 0.040781
C89   C     C_R   0.749944 0.609856 0.499679 0.788607
C90   C     C_R   0.749951 0.390143 0.499772 0.790014
C91   C     C_R   0.249944 0.109856 0.499678 0.788474
C92   C     C_R   0.249951 0.890143 0.499772 0.789836
C93   C     C_3   0.829603 0.029131 0.370073 -0.483631
C94   C     C_3   0.829493 0.970561 0.370242 -0.483674
C95   C     C_3   0.329979 0.529132 0.370153 -0.483651
C96   C     C_3   0.329871 0.470561 0.370320 -0.483710
C97   C     C_R   0.804272 0.526584 0.444921 0.004051
C98   C     C_R   0.804293 0.473379 0.445205 0.001077
C99   C     C_R   0.304272 0.026584 0.444920 0.004066
C100  C     C_R   0.304293 0.973379 0.445204 0.001077
C101  C     C_R   0.748830 0.554102 0.495075 -0.053337
C102  C     C_R   0.748843 0.445898 0.495331 -0.053297
C103  C     C_R   0.248830 0.054102 0.495074 -0.053104
C104  C     C_R   0.248843 0.945898 0.495331 -0.053162
C105  C     C_R   0.691292 0.526909 0.538590 -0.210573
C106  C     C_R   0.691295 0.473090 0.538684 -0.210963
C107  C     C_R   0.191292 0.026909 0.538589 -0.211220
C108  C     C_R   0.191295 0.973090 0.538683 -0.211293
C109  C     C_3   0.868384 0.470546 0.429917 -0.275282
C110  C     C_3   0.868553 0.529760 0.429054 -0.277543
C111  C     C_3   0.368384 0.970546 0.429915 -0.275282
C112  C     C_3   0.368553 0.029760 0.429051 -0.277547
C113  C     C_R   0.748309 0.890158 0.501549 0.810967
C114  C     C_R   0.748536 0.109864 0.501269 0.805544
C115  C     C_R   0.248317 0.390157 0.501539 0.811147
C116  C     C_R   0.248550 0.609864 0.501256 0.805595
C117  C     C_R   0.890014 0.750063 0.500050 0.804044
C118  C     C_R   0.890090 0.250144 0.500259 0.800164
C119  C     C_R   0.390014 0.250063 0.500050 0.804025
C120  C     C_R   0.390090 0.750144 0.500259 0.800052
C121  C     C_R   0.609673 0.750203 0.500313 0.801403
C122  C     C_R   0.609997 0.250040 0.500031 0.806286
C123  C     C_R   0.109672 0.250204 0.500314 0.801833
C124  C     C_R   0.109997 0.750040 0.500031 0.806242
C125  C     C_R   0.547321 0.786230 0.458446 0.131881
C126  C     C_R   0.547351 0.216973 0.457151 0.121987
C127  C     C_R   0.047310 0.286243 0.458469 0.132019
C128  C     C_R   0.047349 0.716971 0.457154 0.121848
C129  C     C_R   0.551624 0.753132 0.504882 -0.081774
C130  C     C_R   0.554426 0.250880 0.500101 -0.076155
C131  C     C_R   0.051622 0.253134 0.504886 -0.081872
C132  C     C_R   0.054426 0.750880 0.500101 -0.076079
C133  C     C_R   0.497704 0.724498 0.558384 -0.215729
C134  C     C_R   0.504888 0.286454 0.544335 -0.215745
C135  C     C_R   0.997709 0.224488 0.558375 -0.214940
C136  C     C_R   0.004889 0.786455 0.544332 -0.215864
H1    H     H_    0.497881 0.700470 0.598106 0.184161
H2    H     H_    0.507590 0.314097 0.578920 0.181832
H3    H     H_    0.997891 0.200450 0.598085 0.183829
H4    H     H_    0.007593 0.814101 0.578914 0.181723
H5    H     H_    0.528726 0.834379 0.936034 0.166732
H6    H     H_    0.540272 0.165809 0.935919 0.168678
H7    H     H_    0.038196 0.334208 0.936050 0.166837
H8    H     H_    0.040006 0.665781 0.935918 0.168772
H9    H     H_    0.465018 0.834472 0.063431 0.166860
H10   H     H_    0.476615 0.165719 0.063350 0.167629
H11   H     H_    0.974490 0.334293 0.063440 0.167513
H12   H     H_    0.976350 0.665691 0.063349 0.167693
H13   H     H_    0.528695 0.807902 0.063337 0.176426
H14   H     H_    0.536090 0.200788 0.063226 0.176374
H15   H     H_    0.034762 0.300674 0.063342 0.176384
H16   H     H_    0.035935 0.700571 0.063225 0.176338
H17   H     H_    0.552766 0.667948 0.935516 0.157200
H18   H     H_    0.541446 0.333953 0.935544 0.157723
H19   H     H_    0.043274 0.166139 0.935509 0.157443
H20   H     H_    0.041711 0.833921 0.935544 0.157536
H21   H     H_    0.604831 0.711569 0.937415 0.180640
H22   H     H_    0.598930 0.297984 0.937427 0.179766
H23   H     H_    0.099942 0.203446 0.937384 0.179963
H24   H     H_    0.099082 0.797767 0.937427 0.179378
H25   H     H_    0.485908 0.667914 0.063034 0.165290
H26   H     H_    0.474576 0.333561 0.063055 0.165984
H27   H     H_    0.976469 0.166450 0.063027 0.165670
H28   H     H_    0.974840 0.833539 0.063055 0.165841
H29   H     H_    0.394515 0.706161 0.066035 0.165602
H30   H     H_    0.389204 0.283308 0.066117 0.165732
H31   H     H_    0.889968 0.214649 0.066030 0.165529
H32   H     H_    0.889310 0.783552 0.066117 0.165651
H33   H     H_    0.540452 0.709263 0.064419 0.172980
H34   H     H_    0.534239 0.300199 0.064430 0.172390
H35   H     H_    0.035333 0.201270 0.064386 0.172264
H36   H     H_    0.034398 0.799985 0.064429 0.172157
H37   H     H_    0.404088 0.700425 0.598052 0.179325
H38   H     H_    0.413603 0.314102 0.578929 0.178885
H39   H     H_    0.904099 0.200404 0.598029 0.179222
H40   H     H_    0.913606 0.814105 0.578924 0.178788
H41   H     H_    0.827574 0.045942 0.325495 0.210943
H42   H     H_    0.827405 0.953621 0.325756 0.211308
H43   H     H_    0.328155 0.545943 0.325426 0.210990
H44   H     H_    0.327989 0.453621 0.325686 0.211339
H45   H     H_    0.866023 0.046175 0.375333 0.193011
H46   H     H_    0.865864 0.953521 0.375574 0.193253
H47   H     H_    0.366263 0.546177 0.375652 0.193091
H48   H     H_    0.366106 0.453523 0.375894 0.193349
H49   H     H_    0.646707 0.546963 0.575100 0.175386
H50   H     H_    0.646705 0.453045 0.575203 0.174686
H51   H     H_    0.146707 0.046962 0.575099 0.174774
H52   H     H_    0.146705 0.953045 0.575202 0.174441
H53   H     H_    0.866428 0.454377 0.477636 0.180706
H54   H     H_    0.867117 0.546894 0.475970 0.177213
H55   H     H_    0.366429 0.954378 0.477634 0.180575
H56   H     H_    0.367119 0.046894 0.475966 0.177109
H57   H     H_    0.530113 0.758874 0.347551 0.195393
H58   H     H_    0.527735 0.183795 0.350823 0.223672
H59   H     H_    0.030113 0.258920 0.347554 0.195349
H60   H     H_    0.027731 0.683788 0.350830 0.223653
H61   H     H_    0.523967 0.830640 0.360233 0.253530
H62   H     H_    0.487736 0.137940 0.431674 0.233807
H63   H     H_    0.023943 0.330682 0.360281 0.253628
H64   H     H_    0.987730 0.637937 0.431686 0.233846
H65   H     H_    0.622409 0.758910 0.347608 0.201457
H66   H     H_    0.621354 0.184115 0.350490 0.212302
H67   H     H_    0.122409 0.258959 0.347613 0.201407
H68   H     H_    0.121351 0.684108 0.350497 0.212332
H69   H     H_    0.615865 0.830687 0.360318 0.219271
H70   H     H_    0.581233 0.138071 0.431068 0.211547
H71   H     H_    0.115839 0.330732 0.360370 0.219392
H72   H     H_    0.081227 0.638067 0.431080 0.211607
H73   H     H_    0.385943 0.774400 0.065259 0.169147
H74   H     H_    0.390078 0.214480 0.065234 0.168567
H75   H     H_    0.889127 0.283468 0.065290 0.168925
H76   H     H_    0.889967 0.714724 0.065234 0.168622
H77   H     H_    0.450461 0.777874 0.939342 0.162921
H78   H     H_    0.454987 0.211319 0.939321 0.161814
H79   H     H_    0.954036 0.286780 0.939370 0.162769
H80   H     H_    0.954866 0.711556 0.939321 0.161854
H81   H     H_    0.592198 0.807667 0.936040 0.181903
H82   H     H_    0.599524 0.200963 0.935906 0.182247
H83   H     H_    0.098242 0.300450 0.936047 0.182246
H84   H     H_    0.099369 0.700747 0.935905 0.182121
O1    O     O_3   0.750020 0.750020 0.500000 -0.482661
O2    O     O_3   0.750020 0.249980 0.500000 -0.482795
O3    O     O_3   0.250020 0.250020 0.500000 -0.482514
O4    O     O_3   0.250020 0.749980 0.500000 -0.482776
O5    O     O_R   0.698170 0.634220 0.542990 -0.648366
O6    O     O_R   0.698170 0.365780 0.542990 -0.649259
O7    O     O_R   0.198170 0.134220 0.542990 -0.648883
O8    O     O_R   0.198170 0.865780 0.542990 -0.649349
O9    O     O_R   0.741140 0.865830 0.457020 -0.639427
O10   O     O_R   0.741140 0.134170 0.457020 -0.637708
O11   O     O_R   0.241140 0.365830 0.457020 -0.639406
O12   O     O_R   0.241140 0.634170 0.457020 -0.637675
O13   O     O_R   0.862350 0.719680 0.336040 -0.628312
O14   O     O_R   0.862350 0.280320 0.336040 -0.629707
O15   O     O_R   0.362350 0.219680 0.336040 -0.628311
O16   O     O_R   0.362350 0.780320 0.336040 -0.629727
O17   O     O_R   0.698420 0.780360 0.663960 -0.646907
O18   O     O_R   0.698420 0.219640 0.663960 -0.646529
O19   O     O_R   0.198420 0.280360 0.663960 -0.646704
O20   O     O_R   0.198420 0.719640 0.663960 -0.646517
O21   O     O_R   0.801620 0.780400 0.336040 -0.641054
O22   O     O_R   0.801620 0.219600 0.336040 -0.640684
O23   O     O_R   0.301620 0.280400 0.336040 -0.641035
O24   O     O_R   0.301620 0.719600 0.336040 -0.640598
O25   O     O_R   0.637700 0.719640 0.663960 -0.622477
O26   O     O_R   0.637700 0.280360 0.663960 -0.624134
O27   O     O_R   0.137700 0.219640 0.663960 -0.623581
O28   O     O_R   0.137700 0.780360 0.663960 -0.624190
O29   O     O_R   0.801870 0.634220 0.457010 -0.629013
O30   O     O_R   0.801870 0.365780 0.457010 -0.627802
O31   O     O_R   0.301870 0.134220 0.457010 -0.628939
O32   O     O_R   0.301870 0.865780 0.457010 -0.627806
O33   O     O_R   0.758890 0.865820 0.542980 -0.650804
O34   O     O_R   0.758890 0.134180 0.542980 -0.651351
O35   O     O_R   0.258890 0.365820 0.542980 -0.650750
O36   O     O_R   0.258890 0.634180 0.542980 -0.651239
O37   O     O_R   0.887320 0.719660 0.457000 -0.627452
O38   O     O_R   0.887320 0.280340 0.457000 -0.622321
O39   O     O_R   0.387320 0.219660 0.457000 -0.627450
O40   O     O_R   0.387320 0.780340 0.457000 -0.622331
O41   O     O_R   0.655700 0.780400 0.457020 -0.641950
O42   O     O_R   0.655700 0.219600 0.457020 -0.642983
O43   O     O_R   0.155700 0.280400 0.457020 -0.641907
O44   O     O_R   0.155700 0.719600 0.457020 -0.642965
O45   O     O_R   0.844340 0.780370 0.542980 -0.649891
O46   O     O_R   0.844340 0.219630 0.542980 -0.649767
O47   O     O_R   0.344340 0.280370 0.542980 -0.649879
O48   O     O_R   0.344340 0.719630 0.542980 -0.649759
O49   O     O_R   0.612730 0.719670 0.543000 -0.643473
O50   O     O_R   0.612730 0.280330 0.543000 -0.645322
O51   O     O_R   0.112730 0.219670 0.543000 -0.643548
O52   O     O_R   0.112730 0.780330 0.543000 -0.645355
Zn1   Zn    Zn3+2 0.675940 0.706640 0.561420 0.975688
Zn2   Zn    Zn3+2 0.675940 0.293360 0.561420 0.973854
Zn3   Zn    Zn3+2 0.175940 0.206640 0.561420 0.974615
Zn4   Zn    Zn3+2 0.175940 0.793360 0.561420 0.973587
Zn5   Zn    Zn3+2 0.824100 0.706650 0.438580 0.993295
Zn6   Zn    Zn3+2 0.824100 0.293350 0.438580 0.995779
Zn7   Zn    Zn3+2 0.324100 0.206650 0.438580 0.993271
Zn8   Zn    Zn3+2 0.324100 0.793350 0.438580 0.995669
Zn9   Zn    Zn3+2 0.762700 0.793390 0.561410 0.956269
Zn10  Zn    Zn3+2 0.762700 0.206610 0.561410 0.951242
Zn11  Zn    Zn3+2 0.262700 0.293390 0.561410 0.956530
Zn12  Zn    Zn3+2 0.262700 0.706610 0.561410 0.951265
Zn13  Zn    Zn3+2 0.737340 0.793410 0.438590 0.962049
Zn14  Zn    Zn3+2 0.737340 0.206590 0.438590 0.961437
Zn15  Zn    Zn3+2 0.237340 0.293410 0.438590 0.962332
Zn16  Zn    Zn3+2 0.237340 0.706590 0.438590 0.961566
C137  C     C_2   0.452641 0.696171 0.927284 0.403798
H85   H     H_    0.459374 0.658030 0.941603 0.065213
O53   O     O_2   0.435165 0.700299 0.887114 -0.564592
C138  C     C_2   0.446064 0.291743 0.927400 0.403973
H86   H     H_    0.447498 0.331422 0.941761 0.066178
O54   O     O_2   0.429448 0.282537 0.887272 -0.564758
C139  C     C_2   0.947016 0.206045 0.927270 0.403189
H87   H     H_    0.949353 0.166564 0.941566 0.065707
O55   O     O_2   0.930246 0.214433 0.887110 -0.565877
C140  C     C_2   0.946196 0.792028 0.927400 0.403744
H88   H     H_    0.947755 0.831680 0.941761 0.065800
O56   O     O_2   0.929551 0.782937 0.887274 -0.564886
C141  C     C_3   0.662614 0.941994 0.649765 -0.412585
C142  C     C_3   0.605946 0.916228 0.657403 -0.343517
C143  C     C_3   0.564918 0.886904 0.730587 -0.878442
H89   H     H_    0.593375 0.856882 0.734216 0.264471
H90   H     H_    0.545048 0.913765 0.778277 0.255422
H91   H     H_    0.525098 0.867895 0.733911 0.254132
H92   H     H_    0.576472 0.946172 0.655319 0.221074
H93   H     H_    0.622463 0.888766 0.611119 0.214915
H94   H     H_    0.691849 0.912989 0.653441 0.231847
H95   H     H_    0.643932 0.966079 0.699469 0.202459
C144  C     C_3   0.661419 0.058584 0.648736 -0.395580
C145  C     C_3   0.692642 0.064723 0.689464 -0.301850
C146  C     C_3   0.648343 0.092138 0.763741 -0.884709
H96   H     H_    0.635251 0.130770 0.755199 0.273300
H97   H     H_    0.604606 0.069059 0.800685 0.251069
H98   H     H_    0.672442 0.097069 0.791267 0.250089
H99   H     H_    0.705694 0.026668 0.699604 0.204902
H100  H     H_    0.736989 0.087444 0.654975 0.253481
H101  H     H_    0.650698 0.097366 0.637634 0.193946
H102  H     H_    0.613969 0.040393 0.685187 0.190992
C147  C     C_3   0.162251 0.441980 0.649651 -0.413150
C148  C     C_3   0.105665 0.416328 0.656973 -0.345813
C149  C     C_3   0.064515 0.386841 0.729993 -0.873105
H103  H     H_    0.092888 0.356685 0.733534 0.263999
H104  H     H_    0.044623 0.413566 0.777832 0.255191
H105  H     H_    0.024711 0.367979 0.733125 0.255673
H106  H     H_    0.076255 0.446355 0.654921 0.221433
H107  H     H_    0.122272 0.388992 0.610529 0.215265
H108  H     H_    0.191342 0.412900 0.653460 0.231875
H109  H     H_    0.143473 0.466038 0.699403 0.202460
C150  C     C_3   0.161149 0.558582 0.648641 -0.395847
C151  C     C_3   0.192157 0.564704 0.689613 -0.301845
C152  C     C_3   0.147738 0.592163 0.763824 -0.884439
H110  H     H_    0.134759 0.630804 0.755154 0.273170
H111  H     H_    0.103945 0.569124 0.800670 0.251141
H112  H     H_    0.171687 0.597081 0.791529 0.250179
H113  H     H_    0.205087 0.526638 0.699883 0.205077
H114  H     H_    0.236547 0.587387 0.655227 0.253498
H115  H     H_    0.150514 0.597371 0.637455 0.193864
H116  H     H_    0.113680 0.540399 0.684953 0.191159
C153  C     C_2   0.915827 0.443880 0.357389 0.511171
H117  H     H_    0.917425 0.451971 0.308383 0.026928
O57   O     O_2   0.952459 0.412366 0.353487 -0.575257
C154  C     C_2   0.915696 0.555369 0.355487 0.505899
H118  H     H_    0.916732 0.546167 0.307116 0.029333
O58   O     O_2   0.952716 0.587234 0.349952 -0.579364
C155  C     C_2   0.415828 0.943879 0.357387 0.511076
H119  H     H_    0.417423 0.951969 0.308381 0.026855
O59   O     O_2   0.452461 0.912367 0.353484 -0.575359
C156  C     C_2   0.415696 0.055369 0.355484 0.505812
H120  H     H_    0.416732 0.046166 0.307114 0.029259
O60   O     O_2   0.452715 0.087235 0.349948 -0.579472

loop_
_geom_bond_atom_site_label_1
_geom_bond_atom_site_label_2
_ccdc_geom_bond_type
C28   H80   S    
C85   C141  S    
C133  H1    S    
C55   C59   S    
O50   Zn2   S    
C99   C103  A    
C41   C61   S    
C136  H4    S    
C47   O27   A    
O45   Zn9   S    
C143  H90   S    
C141  C142  S    
C44   C64   S    
C111  H55   S    
C90   O30   A    
C26   C138  S    
C26   C50   S    
C124  O44   A    
C29   C33   S    
C100  C104  A    
C147  H108  S    
C94   H42   S    
C155  H119  S    
C9    C13   A    
C3    O15   A    
C11   C15   A    
C36   H12   S    
C12   C16   A    
C1    O13   A    
C70   C74   T    
O1    Zn1   S    
O2    Zn10  S    
C91   O7    A    
C92   O32   A    
C98   C109  S    
C15   C127  A    
C33   C53   S    
C130  C134  A    
C59   H35   S    
O33   Zn9   S    
O41   Zn13  S    
C114  O34   A    
O43   Zn15  S    
C43   C63   S    
C149  H103  S    
C21   H65   S    
O26   Zn2   S    
C106  H50   S    
C25   C41   S    
C122  O42   A    
C6    H38   S    
C120  O40   A    
C28   C44   S    
C17   C21   S    
O2    Zn2   S    
C19   C23   S    
O18   Zn10  S    
C78   C82   A    
C143  H89   S    
C16   C20   S    
C144  H102  S    
C45   O17   A    
C96   H44   S    
O1    Zn13  S    
C111  C155  S    
C129  C133  A    
C34   C54   S    
C140  H88   S    
O27   Zn3   S    
C58   H26   S    
C87   C147  S    
C41   C69   S    
C116  O36   A    
C152  H112  S    
C43   C71   S    
C89   C101  S    
O5    Zn1   S    
C90   O6    A    
C84   C88   A    
C27   C139  S    
C119  O39   A    
C57   C61   S    
C118  O38   A    
C59   C63   S    
C14   C126  A    
C60   C64   S    
O15   Zn7   S    
C138  O54   D    
C79   C96   S    
C48   O28   A    
C33   H13   S    
C34   H10   S    
C150  H115  S    
O4    Zn12  S    
O8    Zn4   S    
C49   C53   S    
C25   H77   S    
O29   Zn5   S    
C44   C72   S    
C51   C55   S    
C31   H7    S    
C156  H120  S    
C127  C131  A    
C32   H8    S    
C92   C104  S    
C12   C117  S    
C125  C129  A    
C57   H25   S    
C100  C111  S    
O2    Zn14  S    
C147  C148  S    
O35   Zn11  S    
C52   H76   S    
C103  C107  A    
O21   Zn13  S    
O37   Zn5   S    
O14   Zn6   S    
C142  H93   S    
C18   H58   S    
C48   C76   S    
O39   Zn7   S    
C111  C112  S    
C63   H23   S    
C95   H47   S    
C97   C98   A    
C139  O55   D    
C85   C86   A    
C5    C133  A    
C31   C43   S    
C32   C36   S    
C146  H97   S    
O3    Zn7   S    
O4    Zn8   S    
C77   C94   S    
C42   C70   S    
C145  C146  S    
C22   H70   S    
C20   H64   S    
O7    Zn3   S    
C10   C119  S    
C148  H107  S    
C99   C100  A    
C37   C65   T    
C107  C108  A    
C53   C65   S    
C42   C62   S    
C8    C12   A    
C23   H71   S    
C30   H82   S    
O46   Zn10  S    
C84   C116  S    
C116  O12   A    
C4    O16   A    
C93   H45   S    
C28   C140  S    
C27   C51   S    
C109  C153  S    
C153  O57   D    
C86   C144  S    
C30   C34   S    
O44   Zn16  S    
C83   C115  S    
C151  C152  S    
C46   O26   A    
C10   C14   A    
C93   H41   S    
C36   H16   S    
C35   H11   S    
C56   C68   S    
C149  H104  S    
C5    C9    A    
C132  C136  A    
C29   H5    S    
C137  H85   S    
C123  O43   A    
C80   C95   S    
C17   H61   S    
C2    O22   A    
C32   H84   S    
C33   H9    S    
C47   O19   A    
O34   Zn10  S    
O42   Zn14  S    
C141  H95   S    
O24   Zn16  S    
C145  H100  S    
C49   H73   S    
C121  O49   A    
C26   C42   S    
C123  O51   A    
C124  O52   A    
C29   C41   S    
C18   C22   S    
C5    H37   S    
C151  H113  S    
C8    H40   S    
C113  O9    A    
C54   C66   S    
O6    Zn2   S    
C19   H63   S    
C13   C17   S    
O1    Zn9   S    
C47   C75   S    
C140  O56   D    
C60   H28   S    
O31   Zn7   S    
C59   H27   S    
C154  H118  S    
C50   H74   S    
O20   Zn12  S    
C24   C128  S    
C9    C120  S    
C11   C118  S    
C4    O24   A    
C81   C85   A    
O23   Zn15  S    
C58   C62   S    
C83   C87   A    
C87   C88   A    
C120  O48   A    
C8    C136  A    
C80   C84   A    
C34   H14   S    
C91   O31   A    
C77   C78   A    
C15   C19   S    
C50   C54   S    
C89   O29   A    
C152  H110  S    
O30   Zn6   S    
C126  C130  A    
O22   Zn14  S    
C51   H31   S    
C2    O14   A    
C144  H101  S    
C18   H62   S    
C62   H22   S    
C69   C73   T    
O3    Zn11  S    
C108  H52   S    
C148  C149  S    
O16   Zn8   S    
C27   H79   S    
O11   Zn15  S    
C35   H15   S    
O12   Zn16  S    
C48   O20   A    
C143  H91   S    
C31   H83   S    
C152  H111  S    
O4    Zn4   S    
C113  O33   A    
C22   H66   S    
C45   O25   A    
C139  H87   S    
C53   C57   S    
C82   C86   A    
C142  H92   S    
C24   H72   S    
C147  H109  S    
C56   C60   S    
C7    C11   A    
C150  C151  S    
C49   H29   S    
C36   C56   S    
C61   H21   S    
C112  H56   S    
C77   C81   A    
O52   Zn4   S    
C64   H24   S    
C156  O60   D    
C31   C35   S    
C21   C125  S    
C104  C108  A    
C23   C127  S    
C123  C131  S    
C121  C129  S    
C6    C10   A    
C110  C154  S    
C105  C106  A    
C135  H3    S    
C30   H6    S    
O49   Zn1   S    
C26   H78   S    
O32   Zn8   S    
C98   C102  A    
C109  C110  S    
C79   C83   A    
C146  H96   S    
C110  H54   S    
C25   C49   S    
C122  O50   A    
C27   C43   S    
C4    C37   S    
C92   O8    A    
C40   C68   T    
C81   C113  S    
C30   C42   S    
C94   H46   S    
C112  C156  S    
C13   C125  A    
C144  C145  S    
C19   H59   S    
C93   C94   S    
C14   C18   S    
C17   H57   S    
C95   C96   S    
C72   C76   T    
C153  H117  S    
O51   Zn3   S    
C124  C132  S    
O48   Zn12  S    
O25   Zn1   S    
C138  H86   S    
C58   H34   S    
O28   Zn4   S    
C131  C135  A    
C88   C150  S    
O40   Zn8   S    
C150  H116  S    
C22   C126  S    
C78   C93   S    
C21   H69   S    
C107  H51   S    
C45   C73   S    
C105  H49   S    
C1    C40   S    
C121  O41   A    
C118  O46   A    
C2    C39   S    
C90   C102  S    
C38   C66   T    
C3    C38   S    
C109  H53   S    
C7    H39   S    
O47   Zn11  S    
O2    Zn6   S    
O17   Zn9   S    
C91   C103  S    
C115  O11   A    
C29   H81   S    
C134  H2    S    
C141  H94   S    
C89   O5    A    
C96   H48   S    
C128  C132  A    
C57   H33   S    
C101  C105  A    
O36   Zn12  S    
C35   C55   S    
C60   H36   S    
C20   C24   S    
C82   C114  S    
C151  H114  S    
C146  H98   S    
O19   Zn11  S    
C62   H18   S    
C25   C137  S    
C7    C135  A    
C155  O59   D    
C117  O37   A    
C148  H106  S    
C119  O47   A    
O10   Zn14  S    
C32   C44   S    
O3    Zn3   S    
C3    O23   A    
C16   C128  A    
C1    O21   A    
O3    Zn15  S    
C95   H43   S    
O4    Zn16  S    
C154  O58   D    
O38   Zn6   S    
C46   C74   S    
C54   C58   S    
C142  C143  S    
C24   H68   S    
C39   C67   T    
C61   H17   S    
C114  O10   A    
C55   C67   S    
O13   Zn5   S    
C64   H20   S    
C149  H105  S    
C63   H19   S    
C6    C134  A    
C52   H32   S    
C71   C75   T    
C97   C110  S    
C28   C52   S    
C99   C112  S    
C137  O53   D    
C122  C130  S    
C102  C106  A    
C46   O18   A    
C50   H30   S    
C117  O45   A    
O9    Zn13  S    
C79   C80   A    
C51   H75   S    
C115  O35   A    
C23   H67   S    
C145  H99   S    
O1    Zn5   S    
C20   H60   S    
C97   C101  A    
C52   C56   S    
