data_mof_unit_42503.cif
_audit_creation_date              2013-03-05T16:31:20-0500
_audit_creation_method            fapswitch 2.2
_symmetry_space_group_name_H-M    P1
_symmetry_Int_Tables_number       1
_space_group_crystal_system       triclinic
_cell_length_a                    9.544837
_cell_length_b                    10.857151
_cell_length_c                    13.521569
_cell_angle_alpha                 90.608547
_cell_angle_beta                  73.09955
_cell_angle_gamma                 90.411622
_cell_volume                      1340.63113582

loop_
_atom_site_label
_atom_site_type_symbol
_atom_site_description
_atom_site_fract_x
_atom_site_fract_y
_atom_site_fract_z
_atom_type_partial_charge
O1    O     O_R   0.381190 0.680360 0.500000 -0.576684
O2    O     O_R   0.618780 0.680320 0.499990 -0.536224
C1    C     C_R   0.500862 0.737647 0.500078 0.797786
O3    O     O_R   0.323230 0.500000 0.650990 -0.572412
O4    O     O_R   0.560820 0.499960 0.650980 -0.610662
C2    C     C_R   0.422461 0.493501 0.699521 0.803042
Cu1   Cu    Cu3+1 0.359330 0.500020 0.500010 0.975777
Cu2   Cu    Cu3+1 0.640670 0.499980 0.499990 0.979092
O5    O     O_R   0.381220 0.319680 0.500010 -0.561012
O6    O     O_R   0.618810 0.319640 0.500000 -0.607648
O7    O     O_R   0.439180 0.500040 0.349020 -0.598942
O8    O     O_R   0.676770 0.500000 0.349010 -0.523587
C3    C     C_R   0.499695 0.262472 0.499768 0.856650
C4    C     C_R   0.577958 0.503937 0.300428 0.810913
C5    C     C_R   0.803373 0.468360 0.023039 -0.286040
H1    H     H_    0.832296 0.381667 0.833069 0.177327
H2    H     H_    0.916245 0.452365 0.979140 0.165157
C6    C     C_R   0.622101 0.505224 0.187063 -0.164405
C7    C     C_R   0.236834 0.535773 0.864508 -0.191227
C8    C     C_R   0.198114 0.562372 0.969061 -0.132919
C9    C     C_R   0.297130 0.545695 0.025136 -0.148556
C10   C     C_R   0.438268 0.497413 0.977350 0.090527
C11   C     C_R   0.476761 0.465788 0.870676 0.077699
C12   C     C_R   0.545597 0.486740 0.030702 0.081996
C13   C     C_R   0.691690 0.456934 0.975386 0.084339
C14   C     C_R   0.723610 0.414421 0.873917 -0.220747
C15   C     C_R   0.614925 0.411386 0.824565 -0.194294
C16   C     C_R   0.512037 0.502785 0.137753 -0.343438
C17   C     C_R   0.770116 0.502783 0.127072 0.521016
C18   C     C_R   0.377217 0.492301 0.813202 -0.074143
H3    H     H_    0.399716 0.508024 0.184628 0.177723
H4    H     H_    0.158865 0.556581 0.822711 0.148359
H5    H     H_    0.261808 0.576444 0.104547 0.133289
H6    H     H_    0.092831 0.602501 0.005383 0.165350
H7    H     H_    0.642464 0.367075 0.749628 0.184202
C19   C     C_R   0.383283 0.934451 0.486576 -0.092134
C20   C     C_R   0.505959 0.870938 0.494507 -0.199733
C21   C     C_R   0.633412 0.938335 0.494794 0.479959
C22   C     C_R   0.631526 0.066673 0.491490 -0.295447
H8    H     H_    0.729457 0.116347 0.492960 0.161025
C23   C     C_R   0.502448 0.129410 0.494250 -0.083940
C24   C     C_R   0.380169 0.061703 0.488324 -0.081016
C25   C     C_3   0.223413 0.064980 0.554889 0.125684
C26   C     C_3   0.226679 0.924545 0.553028 0.295506
H9    H     H_    0.146437 0.104412 0.516186 0.102488
H10   H     H_    0.218233 0.882852 0.629366 0.128834
C27   C     C_R   0.960819 0.458390 0.415639 0.280355
N1    N     N_R   0.852320 0.499070 0.499340 -0.225859
C28   C     C_R   0.893555 0.551809 0.579099 -0.077281
H11   H     H_    0.811877 0.592187 0.643953 0.143597
C29   C     C_R   0.042288 0.551599 0.579212 0.002406
H12   H     H_    0.071458 0.591718 0.644092 0.128573
N2    N     N_R   0.148230 0.499110 0.499340 -0.176754
C30   C     C_R   0.108583 0.460617 0.414860 0.166481
C31   C     C_3   0.137052 0.336792 0.365253 -0.563743
C32   C     C_3   0.975736 0.331229 0.370585 0.287074
H13   H     H_    0.212202 0.341776 0.285278 0.216741
H14   H     H_    0.168466 0.268406 0.414828 0.181134
H15   H     H_    0.910410 0.262901 0.426410 0.079622
O9    O     O_3   0.883220 0.525783 0.169482 -0.523770
C33   C     C_3   0.890767 0.653979 0.187137 -0.307003
H16   H     H_    0.990935 0.673538 0.210585 0.175947
H17   H     H_    0.795704 0.686803 0.250690 0.172436
H18   H     H_    0.898089 0.707997 0.116217 0.124952
N3    N     N_R   0.206579 0.118012 0.657805 0.121917
O10   O     O_R   0.110197 0.203979 0.692954 -0.373465
O11   O     O_R   0.288645 0.082375 0.713978 -0.391181
O12   O     O_3   0.122650 0.869974 0.508139 -0.582688
C34   C     C_3   0.163199 0.873504 0.398926 -0.245351
H19   H     H_    0.256947 0.811065 0.364761 0.171306
H20   H     H_    0.188458 0.968718 0.369444 0.131850
H21   H     H_    0.069539 0.839591 0.373086 0.196887
O13   O     O_3   0.953806 0.330486 0.271848 -0.499819
C35   C     C_3   0.940306 0.207905 0.240538 -0.254551
H22   H     H_    0.837718 0.165177 0.289662 0.146090
H23   H     H_    0.036983 0.151819 0.241795 0.143384
H24   H     H_    0.933992 0.208248 0.159905 0.195147
O14   O     O_3   0.759093 0.880077 0.500688 -0.571430
C36   C     C_3   0.763733 0.886585 0.604035 -0.208200
H25   H     H_    0.852799 0.826371 0.612212 0.208859
H26   H     H_    0.660246 0.852534 0.659329 0.134571
H27   H     H_    0.788254 0.982009 0.624947 0.163238

loop_
_geom_bond_atom_site_label_1
_geom_bond_atom_site_label_2
_geom_bond_distance
_ccdc_geom_bond_type
C31   C32   1.521125 S    
C33   H18   1.113930 S    
C23   C24   1.396354 A    
C4    C6    1.467063 S    
C19   C24   1.381926 A    
C7    C8    1.381188 A    
C3    C23   1.445835 S    
Cu1   Cu2   2.685269 S    
C22   C23   1.402868 A    
N2    C30   1.364420 A    
Cu1   O7    1.960714 S    
C14   C15   1.387119 A    
C35   H23   1.113554 S    
C19   C20   1.394367 A    
O4    C2    1.294377 A    
O7    C4    1.296859 A    
C5    C13   1.400952 A    
C9    H5    1.077776 S    
C33   H17   1.110654 S    
O13   C35   1.408675 S    
C34   H20   1.111296 S    
O5    C3    1.293238 A    
N3    O11   1.302566 A    
O12   C34   1.414456 S    
C28   C29   1.420099 A    
C35   H24   1.109340 S    
C11   C15   1.414923 A    
Cu2   O8    1.969114 S    
C8    H6    1.075021 S    
C9    C10   1.415606 A    
C34   H19   1.111475 S    
O3    Cu1   1.969114 S    
C7    H4    1.083490 S    
C26   H10   1.112597 S    
C5    C17   1.396482 A    
H1    C14   1.084294 S    
C35   H22   1.112238 S    
C29   H12   1.081206 S    
C11   C18   1.423925 A    
C6    C16   1.398351 A    
C12   C13   1.415472 A    
O3    C2    1.302308 A    
C22   H8    1.080892 S    
C36   H26   1.114720 S    
O14   C36   1.411941 S    
C21   O14   1.383131 S    
C15   H7    1.078820 S    
C13   C14   1.390620 A    
O9    C33   1.414534 S    
C29   N2    1.368913 A    
C34   H21   1.109497 S    
C25   C26   1.525066 S    
Cu2   N1    2.017721 S    
C20   C21   1.416072 A    
O4    Cu2   1.960714 S    
C27   N1    1.364895 A    
C17   O9    1.381903 S    
C25   N3    1.465657 S    
C6    C17   1.410112 A    
C25   H9    1.108968 S    
C27   C30   1.407395 A    
N1    C28   1.369778 A    
C2    C18   1.470999 S    
O8    C4    1.297796 A    
N3    O10   1.300787 A    
C31   H13   1.111995 S    
C10   C12   1.420028 A    
C26   O12   1.428181 S    
C24   C25   1.505694 S    
Cu1   N2    2.017521 S    
Cu1   O5    1.970587 S    
C30   C31   1.487033 S    
C32   O13   1.410154 S    
O1    Cu1   1.967571 S    
C16   H3    1.076742 S    
O2    Cu2   1.970587 S    
C12   C16   1.397879 A    
O6    C3    1.292197 A    
C36   H27   1.112135 S    
C5    H2    1.082530 S    
C32   H15   1.113785 S    
O2    C1    1.289736 A    
C21   C22   1.394979 A    
C33   H16   1.109780 S    
C19   C26   1.507338 S    
C36   H25   1.107470 S    
C8    C9    1.386683 A    
C1    C20   1.449653 S    
Cu2   O6    1.967571 S    
C28   H11   1.080851 S    
C31   H14   1.105060 S    
C10   C11   1.420055 A    
O1    C1    1.296950 A    
C7    C18   1.400404 A    
C27   C32   1.493987 S    
