data_mof_unit_7543.cif
_audit_creation_date              2012-12-11T18:45:08-0500
_audit_creation_method            fapswitch 2.2
_symmetry_space_group_name_H-M    P1
_symmetry_Int_Tables_number       1
_space_group_crystal_system       triclinic
_cell_length_a                    8.16183
_cell_length_b                    14.422562
_cell_length_c                    18.703461
_cell_angle_alpha                 97.019982
_cell_angle_beta                  90.407293
_cell_angle_gamma                 91.75358
_cell_volume                      2184.00997908

loop_
_atom_site_label
_atom_site_type_symbol
_atom_type_description
_atom_site_fract_x
_atom_site_fract_y
_atom_site_fract_z
_atom_type_partial_charge
Ba1   Ba    Ba6+2 0.843240 0.541620 0.463500 1.692295
Ba2   Ba    Ba6+2 0.346570 0.458460 0.536510 1.658363
C1    C     C_3   0.564324 0.870156 0.264144 0.185991
C2    C     C_R   0.929034 0.397821 0.099544 0.024697
C3    C     C_R   0.785550 0.347389 0.078437 -0.113786
C4    C     C_3   0.088133 0.727571 0.259044 0.222948
C5    C     C_R   0.717657 0.348417 0.009830 0.031384
C6    C     C_R   0.795016 0.403286 0.959959 0.004581
C7    C     C_R   0.947274 0.449332 0.979656 -0.033400
C8    C     C_R   0.720982 0.418255 0.893666 0.334927
C9    C     C_R   0.814681 0.456347 0.839033 -0.073085
C10   C     C_R   0.970736 0.499555 0.858599 -0.052770
C11   C     C_R   0.031943 0.499573 0.930136 -0.003367
C12   C     C_3   0.589812 0.780337 0.297533 1.458574
C13   C     C_R   0.761937 0.452467 0.765551 0.028081
C14   C     C_R   0.866190 0.486976 0.714567 -0.320282
C15   C     C_R   0.012810 0.536609 0.733811 0.039587
C16   C     C_3   0.077627 0.751776 0.182305 -0.340326
C17   C     C_R   0.063927 0.545528 0.807710 -0.023285
C18   C     C_R   0.159216 0.497207 0.072091 0.000511
C19   C     C_R   0.219319 0.498710 0.143895 -0.020692
C20   C     C_R   0.128525 0.452274 0.194446 -0.043346
C21   C     C_R   0.988739 0.398316 0.169910 -0.040350
C22   C     C_R   0.205830 0.598489 0.832508 -0.024899
C23   C     C_3   0.504236 0.308120 0.321333 0.314496
C24   C     C_R   0.265089 0.599174 0.903300 0.069283
C25   C     C_R   0.180247 0.548221 0.951941 0.064003
C26   C     C_R   0.244185 0.546477 0.022622 0.041618
C27   C     C_R   0.412071 0.647791 0.925558 -0.038727
C28   C     C_3   0.184596 0.749824 0.613217 0.321667
C29   C     C_R   0.476377 0.644553 0.994699 -0.056064
C30   C     C_R   0.393432 0.594215 0.043736 0.049361
C31   C     C_R   0.369650 0.546596 0.164905 -0.075613
C32   C     C_R   0.456912 0.592053 0.113602 -0.105263
C33   C     C_R   0.425332 0.549035 0.237112 0.070361
C34   C     C_3   0.481356 0.276444 0.241219 -0.377371
C35   C     C_R   0.326242 0.510667 0.287686 -0.277822
C36   C     C_R   0.179240 0.462018 0.267955 0.027491
C37   C     C_R   0.694467 0.946357 0.546790 0.373366
C38   C     C_R   0.511653 0.804104 0.501924 0.045506
C39   C     C_R   0.371634 0.769022 0.462838 -0.158411
C40   C     C_3   0.224772 0.853873 0.632117 -0.344680
C41   C     C_R   0.267322 0.827977 0.432412 0.106658
C42   C     C_R   0.312939 0.921828 0.432511 -0.118388
C43   C     C_R   0.459503 0.958342 0.466692 -0.051885
C44   C     C_R   0.557324 0.901693 0.506285 -0.064759
C45   C     C_3   0.099016 0.273330 0.741511 0.391142
C46   C     C_R   0.645314 0.093498 0.498921 -0.060465
C47   C     C_R   0.744944 0.038430 0.537836 -0.019017
C48   C     C_R   0.688446 0.189374 0.498974 0.031660
C49   C     C_R   0.827127 0.228084 0.537001 -0.294010
C50   C     C_R   0.933617 0.171484 0.568570 -0.003311
C51   C     C_R   0.893646 0.077636 0.569043 -0.084356
C52   C     C_3   0.016730 0.249983 0.387815 0.281378
C53   C     C_R   0.503938 0.052355 0.463544 -0.028171
C54   C     C_3   0.014370 0.143816 0.372551 -0.343682
C55   C     C_3   0.689975 0.672456 0.674767 0.360772
C56   C     C_3   0.108485 0.249900 0.818504 0.221474
C57   C     C_3   0.698595 0.704021 0.755431 -0.359844
C58   C     C_R   0.572953 0.284757 0.992488 0.104025
C59   C     C_R   0.579210 0.210076 0.937021 -0.016349
C60   C     C_R   0.445465 0.147112 0.924054 -0.049968
C61   C     C_R   0.304652 0.158735 0.965947 -0.037791
C62   C     C_R   0.296828 0.233519 0.020699 -0.063570
C63   C     C_R   0.430829 0.295909 0.034355 -0.021074
C64   C     C_3   0.582144 0.219647 0.701429 0.319472
C65   C     C_3   0.558949 0.123742 0.726352 -0.318717
C66   C     C_R   0.012100 0.448023 0.050283 0.024417
Cl1   Cl    Cl    0.755134 0.928048 0.249977 -0.725209
Cl2   Cl    Cl    0.991069 0.145781 0.827302 -0.729048
Cl3   Cl    Cl    0.504775 0.418300 0.892516 -0.737518
Cl4   Cl    Cl    0.787450 0.903356 0.621340 -0.724586
H1    H     H_    0.667747 0.795857 0.346710 -0.016529
H2    H     H_    0.814999 0.659914 0.654475 0.006150
H3    H     H_    0.612892 0.607335 0.664999 0.039756
H4    H     H_    0.785361 0.764994 0.766683 0.158620
H5    H     H_    0.740096 0.647283 0.785337 0.043429
H6    H     H_    0.575294 0.724650 0.774995 0.116849
H7    H     H_    0.467499 0.754860 0.313532 -1.413792
H8    H     H_    0.490090 0.918242 0.300688 0.047524
H9    H     H_    0.384119 0.329583 0.343996 0.010033
H10   H     H_    0.592458 0.368752 0.328135 0.049965
H11   H     H_    0.383754 0.220733 0.232595 0.136544
H12   H     H_    0.343254 0.864164 0.662033 0.134536
H13   H     H_    0.445888 0.336097 0.212861 0.033499
H14   H     H_    0.597629 0.248727 0.218257 0.132795
H15   H     H_    0.497518 0.854064 0.211935 0.043249
H16   H     H_    0.120405 0.692766 0.144149 0.056436
H17   H     H_    0.171007 0.339263 0.738603 0.041571
H18   H     H_    0.969075 0.284213 0.727952 -0.079297
H19   H     H_    0.238066 0.240155 0.833351 0.123194
H20   H     H_    0.059942 0.307790 0.856011 0.010417
H21   H     H_    0.715045 0.232996 0.694010 -0.028379
H22   H     H_    0.517496 0.218709 0.648984 0.086309
H23   H     H_    0.233387 0.888668 0.582609 0.042413
H24   H     H_    0.601129 0.069391 0.684019 0.123046
H25   H     H_    0.427592 0.109335 0.737046 0.152447
H26   H     H_    0.009720 0.664209 0.262827 0.079530
H27   H     H_    0.631602 0.120363 0.776246 0.161629
H28   H     H_    0.725738 0.305828 0.115793 0.059400
H29   H     H_    0.828051 0.479405 0.658609 0.062809
H30   H     H_    0.922573 0.357069 0.205348 0.100242
H31   H     H_    0.273701 0.638685 0.796889 0.088223
H32   H     H_    0.479244 0.687104 0.889027 0.055951
H33   H     H_    0.591080 0.681821 0.009894 0.070554
H34   H     H_    0.127352 0.887497 0.666313 0.196505
H35   H     H_    0.572785 0.628083 0.127737 0.097505
H36   H     H_    0.217175 0.712244 0.270605 0.189234
H37   H     H_    0.366970 0.515882 0.343225 0.078235
H38   H     H_    0.337614 0.695506 0.459855 0.046472
H39   H     H_    0.233370 0.966464 0.406297 0.073752
H40   H     H_    0.981407 0.036074 0.593478 0.143555
H41   H     H_    0.858488 0.301659 0.537715 0.067451
H42   H     H_    0.426086 0.092948 0.433124 0.099500
H43   H     H_    0.948890 0.765499 0.168366 0.186450
H44   H     H_    0.155943 0.814786 0.176780 0.147069
H45   H     H_    0.895625 0.273112 0.406562 0.001386
H46   H     H_    0.293332 0.714982 0.589425 -0.022005
H47   H     H_    0.081553 0.740585 0.573883 0.073313
H48   H     H_    0.688075 0.200148 0.904701 0.125808
H49   H     H_    0.450906 0.089103 0.881693 0.090815
H50   H     H_    0.201529 0.109806 0.955932 0.132760
H51   H     H_    0.187606 0.242685 0.052968 0.076227
H52   H     H_    0.424385 0.352886 0.077505 0.064496
H53   H     H_    0.110364 0.272324 0.430042 0.074650
H54   H     H_    0.914452 0.119284 0.333542 0.182922
H55   H     H_    0.994070 0.111913 0.422816 0.057194
H56   H     H_    0.133603 0.120417 0.349708 0.123722
O1    O     O_2   0.887710 0.436190 0.327560 -0.473050
O2    O     O_2   0.273275 0.173471 0.563962 -0.498216
O3    O     O_3   0.164885 0.200149 0.695066 -0.575718
O4    O     O_3   0.135370 0.443490 0.416520 -0.498448
O5    O     O_3   0.551980 0.615210 0.532020 -0.500390
O6    O     O_2   0.394410 0.269100 0.474240 -0.471959
O7    O     O_3   0.564313 0.233842 0.354620 -0.631476
O8    O     O_2   0.418409 0.458118 0.754452 -0.427041
O9    O     O_3   0.516843 0.287343 0.752922 -0.563046
O10   O     O_3   0.634420 0.609440 0.364670 -0.448771
O11   O     O_2   0.768996 0.543527 0.240971 -0.519077
O12   O     O_3   0.620539 0.743846 0.641875 -0.573972
O13   O     O_3   0.051975 0.287115 0.324049 -0.638182
O14   O     O_3   0.665790 0.714713 0.247554 -0.655304
O15   O     O_2   0.795290 0.730930 0.525800 -0.438522
O16   O     O_3   0.044470 0.660110 0.398750 -0.502643
O17   O     O_2   0.926511 0.828839 0.437767 -0.486573
O18   O     O_3   0.033502 0.803101 0.306573 -0.544224
O19   O     O_2   0.301980 0.563840 0.672490 -0.467975
O20   O     O_3   0.054330 0.556590 0.583490 -0.504532
O21   O     O_3   0.555270 0.390630 0.635330 -0.497424
O22   O     O_3   0.141014 0.712883 0.676191 -0.630541
O23   O     O_3   0.637720 0.384870 0.467990 -0.480594
O24   O     O_3   0.145220 0.339960 0.601250 -0.490244
P1    P     P_3+3 0.061800 0.409390 0.339760 0.969556
P2    P     P_3+3 0.622760 0.718740 0.547830 1.052489
P3    P     P_3+3 0.068426 0.780474 0.395141 1.001503
P4    P     P_3+3 0.127890 0.590690 0.660240 0.975947
P5    P     P_3+3 0.129573 0.220371 0.606095 0.962439
P6    P     P_3+3 0.624326 0.602479 0.271072 1.035376
P7    P     P_3+3 0.575333 0.267359 0.447682 0.939712
P8    P     P_3+3 0.564778 0.398270 0.728267 1.019926

loop_
_geom_bond_atom_site_label_1
_geom_bond_atom_site_label_2
_ccdc_geom_bond_type
C6    C7    A    
C46   C53   A    
C12   O14   S    
O17   P3    D    
C29   H33   S    
Ba1   O4    S    
C57   H5    S    
C5    C6    A    
C43   C44   A    
C42   C43   A    
C38   C44   A    
C24   C25   A    
C49   H41   S    
O2    P5    D    
C32   H35   S    
C4    H26   S    
C1    Cl1   S    
C22   C24   A    
Ba1   O1    S    
C4    O18   S    
Ba1   O5    S    
C55   C57   S    
C21   H30   S    
C19   C31   A    
C28   H47   S    
C34   H11   S    
Ba2   O20   S    
C13   C14   A    
C20   C36   A    
C50   P5    S    
Ba1   Ba2   S    
C54   H55   S    
O3    P5    S    
C7    C11   A    
C15   C17   A    
C9    C13   A    
O18   P3    S    
O11   P6    D    
C14   C15   A    
Ba2   O4    S    
C37   Cl4   S    
C54   H54   S    
C56   H19   S    
C35   H37   S    
C65   H27   S    
C64   H22   S    
C8    Cl3   S    
Ba2   O21   S    
C46   C48   A    
C64   C65   S    
O22   P4    S    
C19   C20   A    
C59   H48   S    
C23   H9    S    
C39   C41   A    
C38   P2    S    
C59   C60   A    
O14   P6    S    
C41   P3    S    
C1    H8    S    
C57   H6    S    
C48   C49   A    
Ba2   O24   S    
C4    C16   S    
C52   H53   S    
C52   C54   S    
Ba2   O5    S    
O7    P7    S    
C1    H15   S    
C49   C50   A    
C12   H1    S    
C26   C30   A    
C40   H12   S    
C16   H44   S    
C3    C5    A    
C2    C21   A    
C56   Cl2   S    
O15   P2    D    
C18   C26   A    
C34   H14   S    
Ba2   O19   S    
C16   H16   S    
C40   H23   S    
C27   H32   S    
C45   O3    S    
C58   C59   A    
C30   C32   A    
C55   H2    S    
C41   C42   A    
C35   C36   A    
Ba1   O15   S    
O10   P6    S    
C29   C30   A    
C3    H28   S    
C60   C61   A    
O4    P1    S    
Ba2   O6    S    
C12   H7    S    
C10   C11   A    
Ba1   P1    S    
O19   P4    D    
C40   H34   S    
C1    C12   S    
C64   H21   S    
C51   H40   S    
O6    P7    D    
C46   C47   A    
C37   C47   A    
C58   C63   A    
C45   H17   S    
C39   H38   S    
C37   C44   A    
C65   H24   S    
C34   H13   S    
C45   H18   S    
C55   O12   S    
C5    C58   S    
C61   H50   S    
C50   C51   A    
C2    C66   A    
Ba2   O23   S    
O24   P5    S    
C38   C39   A    
Ba2   P4    S    
O9    P8    S    
C33   C35   A    
C18   C66   A    
C28   C40   S    
C2    C3    A    
C16   H43   S    
C9    C10   A    
C53   H42   S    
C48   P7    S    
C62   H51   S    
C28   H46   S    
C22   H31   S    
C62   C63   A    
C55   H3    S    
O16   P3    S    
C17   C22   A    
C33   P6    S    
C13   P8    S    
C27   C29   A    
Ba1   O16   S    
C45   C56   S    
O1    P1    D    
O13   P1    S    
C23   H10   S    
C64   O9    S    
C47   C51   A    
C57   H4    S    
C10   C17   A    
C31   C33   A    
C31   C32   A    
Ba1   O23   S    
C54   H56   S    
Ba1   P2    S    
C23   O7    S    
O21   P8    S    
C7    C66   A    
C28   O22   S    
C8    C9    A    
C65   H25   S    
C23   C34   S    
C61   C62   A    
C63   H52   S    
C42   H39   S    
C14   H29   S    
C52   O13   S    
C18   C19   A    
C43   C53   A    
C24   C27   A    
C6    C8    A    
C52   H45   S    
O12   P2    S    
C25   C26   A    
C4    H36   S    
C20   C21   A    
C11   C25   A    
Ba1   O20   S    
O20   P4    S    
C36   P1    S    
C15   P4    S    
C56   H20   S    
O5    P2    S    
C60   H49   S    
O8    P8    D    
Ba1   O10   S    
O23   P7    S    
