data_mof_unit_30472.cif
_audit_creation_date              2012-12-10T17:10:25-0500
_audit_creation_method            fapswitch 2.2
_symmetry_space_group_name_H-M    P1
_symmetry_Int_Tables_number       1
_space_group_crystal_system       triclinic
_cell_length_a                    10.782141
_cell_length_b                    13.036344
_cell_length_c                    11.76396
_cell_angle_alpha                 101.918226
_cell_angle_beta                  91.069197
_cell_angle_gamma                 91.063533
_cell_volume                      1617.18755144

loop_
_atom_site_label
_atom_site_type_symbol
_atom_type_description
_atom_site_fract_x
_atom_site_fract_y
_atom_site_fract_z
_atom_type_partial_charge
C1    C     C_R   0.503377 0.298496 0.476157 0.913436
C2    C     C_R   0.496715 0.701513 0.523847 0.902996
C3    C     C_R   0.489407 0.816959 0.541125 -0.211785
C4    C     C_R   0.511190 0.183081 0.458863 -0.222907
C5    C     C_R   0.467064 0.007066 0.345501 0.164966
C6    C     C_R   0.534354 0.992901 0.654397 0.173603
C7    C     C_R   0.479276 0.115293 0.351675 0.325561
C8    C     C_R   0.521771 0.884687 0.648233 0.335983
C9    C     C_R   0.551617 0.139216 0.552354 0.363268
C10   C     C_R   0.449235 0.860903 0.447624 0.383617
C11   C     C_R   0.523266 0.033245 0.552117 -0.048099
C12   C     C_R   0.477956 0.966791 0.447824 -0.049436
C13   C     C_R   0.371552 0.413210 0.025999 -0.267172
C14   C     C_R   0.628474 0.586736 0.973998 -0.267197
C15   C     C_R   0.384531 0.419586 0.146317 0.356423
C16   C     C_R   0.615520 0.580353 0.853683 0.356708
C17   C     C_R   0.557082 0.537208 0.154764 0.558773
C18   C     C_R   0.442896 0.462800 0.845232 0.558893
C19   C     C_R   0.546988 0.531420 0.032631 -0.069351
C20   C     C_R   0.453000 0.468565 0.967365 -0.068951
C21   C     C_R   0.263202 0.508701 0.504853 0.829237
C22   C     C_R   0.736795 0.491235 0.495130 0.834248
C23   C     C_R   0.113683 0.700477 0.588444 0.329006
C24   C     C_R   0.886161 0.298804 0.412198 0.241475
C25   C     C_R   0.046680 0.791989 0.589226 0.108757
C26   C     C_R   0.953815 0.207168 0.411869 0.113075
C27   C     C_R   0.922823 0.784254 0.550581 0.350393
C28   C     C_R   0.077806 0.215487 0.448537 0.430756
C29   C     C_R   0.864962 0.686186 0.518341 -0.182138
C30   C     C_R   0.135526 0.313558 0.480284 -0.222531
C31   C     C_R   0.931772 0.593015 0.513830 -0.045259
C32   C     C_R   0.068338 0.406598 0.485704 -0.037914
C33   C     C_R   0.060489 0.599795 0.538378 -0.064368
C34   C     C_R   0.939476 0.399691 0.461669 -0.022001
C35   C     C_R   0.871161 0.493804 0.485029 -0.033349
C36   C     C_R   0.128843 0.505822 0.514827 -0.035662
Cu1   Cu    Cu3+1 0.509250 0.507730 0.615930 1.108782
Cu2   Cu    Cu3+1 0.490750 0.492270 0.384070 1.109637
H1    H     H_    0.296579 0.364600 0.980135 0.209533
H2    H     H_    0.703480 0.635305 0.019858 0.209808
H3    H     H_    0.767515 0.683924 0.494303 0.184988
H4    H     H_    0.233273 0.315862 0.503173 0.184781
N1    N     N_R   0.523180 0.519350 0.790130 -0.192006
N2    N     N_R   0.476820 0.480650 0.209870 -0.191579
O1    O     O_R   0.506570 0.354460 0.582000 -0.526825
O2    O     O_R   0.493430 0.645540 0.418000 -0.529171
O3    O     O_R   0.490940 0.341410 0.386200 -0.498564
O4    O     O_R   0.509060 0.658590 0.613800 -0.500772
O5    O     O_R   0.327470 0.506520 0.597900 -0.514787
O6    O     O_R   0.672530 0.493480 0.402100 -0.511421
O7    O     O_R   0.311840 0.493460 0.402100 -0.571041
O8    O     O_R   0.688160 0.506540 0.597900 -0.572443
Cl1   Cl    Cl    0.165871 0.102988 0.446702 -0.572371
Cl2   Cl    Cl    0.835565 0.896794 0.548940 -0.600683
Cl3   Cl    Cl    0.247897 0.716335 0.678037 -0.526411
Cl4   Cl    Cl    0.751515 0.283478 0.323201 -0.581731
N3    N     N_3   0.104632 0.892520 0.633686 -0.472097
H5    H     H_    0.102043 0.935694 0.568155 0.307783
H6    H     H_    0.053120 0.931594 0.703261 0.271455
N4    N     N_3   0.898613 0.104900 0.370929 -0.454685
H7    H     H_    0.874329 0.096382 0.282998 0.273089
H8    H     H_    0.817885 0.099099 0.417342 0.279259
Cl5   Cl    Cl    0.339980 0.788911 0.344732 -0.515555
Cl6   Cl    Cl    0.660563 0.211545 0.655324 -0.530105
Cl7   Cl    Cl    0.537576 0.839900 0.779602 -0.559661
Cl8   Cl    Cl    0.463336 0.160058 0.220301 -0.562598
N5    N     N_3   0.450597 0.937503 0.234203 -0.456885
H9    H     H_    0.525854 0.947580 0.182481 0.267697
H10   H     H_    0.369050 0.956459 0.194430 0.297441
N6    N     N_3   0.551333 0.062384 0.765686 -0.455739
H11   H     H_    0.476185 0.052516 0.817618 0.272296
H12   H     H_    0.632915 0.043189 0.805212 0.291765
Cl9   Cl    Cl    0.327859 0.379186 0.763983 -0.565487
Cl10  Cl    Cl    0.672096 0.620846 0.236003 -0.563930
N7    N     N_3   0.702802 0.636347 0.797909 -0.483751
H13   H     H_    0.710342 0.713538 0.844901 0.255366
H14   H     H_    0.789628 0.603305 0.804415 0.214546
N8    N     N_3   0.297369 0.363485 0.202094 -0.482570
H15   H     H_    0.290062 0.286258 0.155175 0.256827
H16   H     H_    0.210454 0.396352 0.195505 0.214762

loop_
_geom_bond_atom_site_label_1
_geom_bond_atom_site_label_2
_ccdc_geom_bond_type
C27   C29   A    
C16   N7    S    
C19   C20   A    
C5    N5    S    
C21   O5    A    
C27   Cl2   S    
C21   C36   S    
C2    O2    A    
C22   C35   S    
C32   C36   A    
C24   C26   A    
C15   N2    A    
N8    H16   S    
N3    H6    S    
C15   N8    S    
C9    Cl6   S    
C33   C36   A    
N4    H8    S    
C34   C35   A    
N7    H14   S    
C10   Cl5   S    
C23   C33   A    
C31   C33   A    
N6    H11   S    
C18   C20   A    
C22   O6    A    
C8    Cl7   S    
C25   N3    S    
C4    C7    A    
Cu2   O2    S    
N5    H9    S    
C5    C12   A    
C3    C8    A    
C6    C11   A    
C5    C7    A    
Cu1   O8    S    
N8    H15   S    
C1    O3    A    
C6    C8    A    
Cu2   O7    S    
C2    O4    A    
C24   C34   A    
N4    H7    S    
N5    H10   S    
C32   C34   A    
Cu1   N1    S    
N7    H13   S    
Cu2   N2    S    
Cu1   Cu2   S    
Cu1   O5    S    
C11   C12   A    
Cu1   O4    S    
C9    C11   A    
C16   N1    A    
Cu2   O3    S    
C10   C12   A    
C18   Cl9   S    
C13   C15   A    
C17   Cl10  S    
C14   C16   A    
C25   C27   A    
Cu1   O1    S    
C21   O7    A    
C22   O8    A    
C6    N6    S    
C13   C20   A    
C29   H3    S    
C14   C19   A    
C28   Cl1   S    
C23   Cl3   S    
Cu2   O6    S    
C24   Cl4   S    
C26   C28   A    
C1    C4    S    
C28   C30   A    
C2    C3    S    
C17   N2    A    
C29   C31   A    
C3    C10   A    
C18   N1    A    
C7    Cl8   S    
C30   C32   A    
C1    O1    A    
N3    H5    S    
C17   C19   A    
C31   C35   A    
C23   C25   A    
C13   H1    S    
C14   H2    S    
C30   H4    S    
N6    H12   S    
C4    C9    A    
C26   N4    S    
