data_mof_unit_59365.cif
_audit_creation_date              2012-12-10T17:24:16-0500
_audit_creation_method            fapswitch 2.2
_symmetry_space_group_name_H-M    P1
_symmetry_Int_Tables_number       1
_space_group_crystal_system       triclinic
_cell_length_a                    19.355324
_cell_length_b                    10.781309
_cell_length_c                    9.604187
_cell_angle_alpha                 90.217419
_cell_angle_beta                  90.134156
_cell_angle_gamma                 92.603222
_cell_volume                      2002.07170921

loop_
_atom_site_label
_atom_site_type_symbol
_atom_type_description
_atom_site_fract_x
_atom_site_fract_y
_atom_site_fract_z
_atom_type_partial_charge
C1    C     C_R   0.497828 0.262602 0.499799 0.877066
C2    C     C_R   0.291621 0.500949 0.500031 -0.022256
C3    C     C_R   0.930096 0.506939 0.500787 0.415179
C4    C     C_R   0.070242 0.505454 0.500658 0.410127
C5    C     C_R   0.817205 0.503563 0.626780 -0.151185
C6    C     C_R   0.745176 0.501947 0.626616 -0.183639
C7    C     C_R   0.708489 0.503085 0.500386 -0.024286
C8    C     C_R   0.745120 0.506830 0.374364 -0.165560
C9    C     C_R   0.817137 0.508615 0.374534 -0.151429
C10   C     C_R   0.853916 0.506621 0.500726 0.053434
C11   C     C_R   0.387643 0.121097 0.644321 -0.142143
C12   C     C_R   0.367564 0.499855 0.499947 0.756417
C13   C     C_R   0.336376 0.052510 0.715770 -0.133877
C14   C     C_R   0.336494 0.923538 0.716634 -0.129359
C15   C     C_R   0.387900 0.862351 0.646125 -0.141808
C16   C     C_R   0.441236 0.930005 0.575062 0.099779
C17   C     C_R   0.441160 0.061206 0.574220 0.023773
C18   C     C_R   0.493412 0.128371 0.499284 -0.233709
C19   C     C_R   0.542642 0.066749 0.422137 0.614689
C20   C     C_R   0.542433 0.938771 0.422787 -0.276707
C21   C     C_R   0.493409 0.870448 0.500556 -0.180522
C22   C     C_R   0.591965 0.665057 0.144812 -0.120256
C23   C     C_R   0.497903 0.737057 0.500228 0.790972
C24   C     C_R   0.636846 0.745840 0.073168 -0.193253
C25   C     C_R   0.636713 0.745993 0.929713 -0.196911
C26   C     C_R   0.591680 0.665390 0.857080 -0.118802
C27   C     C_R   0.544927 0.581420 0.925766 0.190514
C28   C     C_R   0.545058 0.581200 0.075166 0.117786
C29   C     C_R   0.455983 0.422885 0.074412 0.602068
C30   C     C_R   0.457408 0.422125 0.924909 -0.168104
C31   C     C_R   0.632456 0.500881 0.500108 0.783229
C32   C     C_R   0.254919 0.491231 0.625725 -0.205823
C33   C     C_R   0.182979 0.492802 0.625962 -0.158823
C34   C     C_R   0.146372 0.504056 0.500499 0.062704
C35   C     C_R   0.183188 0.513820 0.374833 -0.164402
C36   C     C_R   0.255127 0.512447 0.374660 -0.184510
Cu1   Cu    Cu3+1 0.500000 0.499990 0.640660 0.931802
Cu2   Cu    Cu3+1 0.500000 0.500010 0.359340 1.006742
H1    H     H_    0.281691 0.482149 0.724077 0.144657
H2    H     H_    0.383879 0.220791 0.642686 0.130958
H3    H     H_    0.295845 0.099638 0.769110 0.128271
H4    H     H_    0.296040 0.870534 0.770619 0.137296
H5    H     H_    0.384436 0.762059 0.646104 0.148245
H6    H     H_    0.581865 0.892610 0.364753 0.161435
H7    H     H_    0.596514 0.672709 0.254558 0.186374
H8    H     H_    0.672045 0.808775 0.129723 0.161122
H9    H     H_    0.671850 0.808978 0.873952 0.158102
H10   H     H_    0.596075 0.672970 0.747374 0.193225
H11   H     H_    0.156154 0.484978 0.724559 0.151377
H12   H     H_    0.424296 0.357387 0.866536 0.147446
H13   H     H_    0.156544 0.522881 0.276393 0.152114
H14   H     H_    0.282090 0.521116 0.276326 0.153561
H15   H     H_    0.844013 0.502276 0.725805 0.156293
H16   H     H_    0.718318 0.499565 0.725451 0.160195
H17   H     H_    0.718232 0.508305 0.275391 0.161126
H18   H     H_    0.843876 0.511121 0.275614 0.156004
N1    N     N_R   0.034532 0.512285 0.379360 -0.238819
N2    N     N_R   0.965843 0.512961 0.379420 -0.237465
N3    N     N_R   0.965810 0.500309 0.622110 -0.237750
N4    N     N_R   0.034503 0.499565 0.622046 -0.239835
N5    N     N_R   0.500660 0.501210 0.147910 -0.236899
N6    N     N_R   0.500680 0.501290 0.852040 -0.218829
O1    O     O_R   0.499990 0.319640 0.618810 -0.589326
O2    O     O_R   0.500000 0.319660 0.381240 -0.483547
O3    O     O_R   0.400140 0.499970 0.618820 -0.603466
O4    O     O_R   0.400150 0.500000 0.381250 -0.545971
O5    O     O_R   0.500000 0.680340 0.618760 -0.601064
O6    O     O_R   0.500010 0.680360 0.381190 -0.597087
O7    O     O_R   0.599850 0.500000 0.618750 -0.599236
O8    O     O_R   0.599860 0.500030 0.381180 -0.591198
O9    O     O_3   0.413800 0.339766 0.149541 -0.534936
C37   C     C_3   0.346841 0.325183 0.091382 -0.366711
H19   H     H_    0.345867 0.254582 0.006795 0.164022
H20   H     H_    0.327016 0.414483 0.053489 0.133454
H21   H     H_    0.310939 0.290025 0.173581 0.202213
F1    F     F_    0.592511 0.131046 0.349395 -0.654267

loop_
_geom_bond_atom_site_label_1
_geom_bond_atom_site_label_2
_ccdc_geom_bond_type
Cu2   O8    S    
C16   C21   A    
Cu1   O7    S    
C35   C36   A    
C2    C12   S    
C13   H3    S    
Cu1   N6    S    
C7    C8    A    
C1    C18   S    
Cu1   Cu2   S    
C5    H15   S    
C19   F1    S    
C34   C35   A    
C5    C6    A    
C33   H11   S    
C15   C16   A    
C2    C32   A    
C18   C19   A    
C32   H1    S    
C23   O5    A    
Cu1   O1    S    
C31   O8    A    
C19   C20   A    
C8    C9    A    
Cu1   O3    S    
C4    N1    A    
C9    C10   A    
C25   H9    S    
C36   H14   S    
C26   H10   S    
C14   H4    S    
Cu2   N5    S    
C28   N5    A    
C30   H12   S    
N3    N4    A    
C29   N5    A    
C22   C28   A    
C13   C14   A    
C6    H16   S    
C37   H21   S    
C1    O1    A    
C8    H17   S    
C20   H6    S    
C33   C34   A    
Cu2   O2    S    
C4    C34   S    
C7    C31   S    
Cu2   O4    S    
C24   C25   A    
C37   H20   S    
C16   C17   A    
C25   C26   A    
C12   O4    A    
C23   O6    A    
C29   C30   A    
C27   N6    A    
C4    N4    A    
C17   C18   A    
C26   C27   A    
C9    H18   S    
Cu2   O6    S    
C30   N6    A    
C35   H13   S    
C22   C24   A    
C1    O2    A    
C2    C36   A    
C11   C17   A    
C37   H19   S    
C6    C7    A    
C12   O3    A    
C24   H8    S    
C32   C33   A    
C21   C23   S    
C15   H5    S    
C5    C10   A    
C3    C10   S    
C11   C13   A    
N1    N2    A    
Cu1   O5    S    
C11   H2    S    
C3    N2    A    
C31   O7    A    
C22   H7    S    
O9    C37   S    
C20   C21   A    
C27   C28   A    
C14   C15   A    
C29   O9    S    
C3    N3    A    
