data_mof_unit_31332.cif
_audit_creation_date              2012-12-10T17:03:46-0500
_audit_creation_method            fapswitch 2.2
_symmetry_space_group_name_H-M    P1
_symmetry_Int_Tables_number       1
_space_group_crystal_system       triclinic
_cell_length_a                    10.032849
_cell_length_b                    10.744018
_cell_length_c                    13.126927
_cell_angle_alpha                 89.971938
_cell_angle_beta                  70.101961
_cell_angle_gamma                 89.823917
_cell_volume                      1330.51041711

loop_
_atom_site_label
_atom_site_type_symbol
_atom_type_description
_atom_site_fract_x
_atom_site_fract_y
_atom_site_fract_z
_atom_type_partial_charge
C1    C     C_R   0.498422 0.737281 0.503468 0.924082
C2    C     C_R   0.369431 0.509336 0.822170 -0.079726
C3    C     C_2   0.604776 0.066893 0.514937 -0.120724
C4    C     C_R   0.421133 0.504941 0.704118 0.848010
C5    C     C_2   0.504971 0.130923 0.491117 -0.331562
C6    C     C_2   0.608681 0.932877 0.509014 -0.156982
C7    C     C_2   0.492062 0.868595 0.516589 -0.334493
C8    C     C_2   0.104982 0.435068 0.432563 -0.237393
C9    C     C_2   0.952765 0.428392 0.437451 0.631114
C10   C     C_R   0.500942 0.262668 0.498503 0.940267
C11   C     C_R   0.578664 0.501136 0.295916 0.874872
C12   C     C_R   0.432059 0.518503 0.984668 0.081994
C13   C     C_R   0.756992 0.645795 0.025750 -0.147424
C14   C     C_R   0.625571 0.521469 0.179950 -0.046742
C15   C     C_R   0.242063 0.449343 0.879561 -0.195179
C16   C     C_R   0.206356 0.428546 0.989979 -0.133865
C17   C     C_R   0.301653 0.459440 0.041999 -0.154851
C18   C     C_3   0.858728 0.724074 0.728397 -0.324941
C19   C     C_R   0.456526 0.556864 0.877479 0.017787
C20   C     C_R   0.538442 0.541403 0.030310 0.009311
C21   C     C_R   0.654779 0.620451 0.976960 0.047699
C22   C     C_R   0.666400 0.673465 0.876754 0.500795
C23   C     C_R   0.566952 0.641496 0.827951 -0.306308
C24   C     C_R   0.532585 0.486257 0.127677 -0.208878
C25   C     C_R   0.740924 0.598207 0.127984 -0.212986
F1    F     F_    0.920584 0.345391 0.371417 -0.652370
H1    H     H_    0.813512 0.626709 0.168558 0.164259
H2    H     H_    0.172565 0.414783 0.838431 0.159624
H3    H     H_    0.268751 0.439406 0.127533 0.139184
H4    H     H_    0.107288 0.383372 0.034517 0.164882
H5    H     H_    0.573741 0.686231 0.752501 0.173957
H6    H     H_    0.687399 0.113055 0.536888 0.188775
H7    H     H_    0.808007 0.741635 0.666589 0.168601
H8    H     H_    0.890604 0.624539 0.727788 0.142350
H9    H     H_    0.957093 0.780273 0.705492 0.196349
H10   H     H_    0.425929 0.087954 0.463325 0.151622
H11   H     H_    0.709474 0.887272 0.497996 0.174016
H12   H     H_    0.388415 0.911248 0.535276 0.153691
H13   H     H_    0.182318 0.380519 0.370481 0.188222
H14   H     H_    0.074518 0.544426 0.561633 0.139468
H15   H     H_    0.878819 0.567091 0.542856 0.078025
H16   H     H_    0.846413 0.705906 0.987037 0.187868
H17   H     H_    0.451921 0.419110 0.167692 0.139931
N1    N     N_2   0.148270 0.498670 0.498870 -0.213389
N2    N     N_2   0.852610 0.498640 0.498840 -0.225474
O1    O     O_R   0.386950 0.680940 0.500020 -0.609838
O2    O     O_R   0.613110 0.680900 0.499980 -0.630560
O3    O     O_R   0.330780 0.500000 0.653640 -0.614628
O4    O     O_R   0.556930 0.499960 0.653610 -0.614604
O5    O     O_R   0.386890 0.319100 0.500020 -0.614081
O6    O     O_R   0.613050 0.319060 0.499980 -0.559328
O7    O     O_R   0.443070 0.500040 0.346390 -0.612355
O8    O     O_R   0.669220 0.500000 0.346360 -0.570565
O9    O     O_3   0.769127 0.762889 0.831657 -0.606067
Zn1   Zn    Zn3+2 0.349000 0.500030 0.500020 0.941816
Zn2   Zn    Zn3+2 0.651000 0.499970 0.499980 0.986743

loop_
_geom_bond_atom_site_label_1
_geom_bond_atom_site_label_2
_ccdc_geom_bond_type
O1    Zn1   S    
C12   C17   A    
O3    Zn1   S    
C19   C23   A    
C9    N2    D    
C6    C7    D    
C8    H13   S    
C25   H1    S    
O4    Zn2   S    
C17   H3    S    
C18   H9    S    
C2    C4    S    
O5    Zn1   S    
C11   O8    A    
O7    Zn1   S    
C4    O4    A    
C3    C6    S    
C12   C20   A    
C6    H11   S    
C13   C21   A    
C5    C10   S    
C22   O9    S    
C21   C22   A    
C2    C15   A    
C18   H8    S    
N1    Zn1   S    
C13   C25   A    
C15   H2    S    
C16   C17   A    
C10   O6    A    
C12   C19   A    
C13   H16   S    
C11   C14   S    
C7    H12   S    
C9    F1    S    
C14   C25   A    
C3    H6    S    
C18   H7    S    
C1    O1    A    
C18   O9    S    
C16   H4    S    
C15   C16   A    
C10   O5    A    
C5    H10   S    
C8    N1    D    
H14   N1    S    
C20   C21   A    
O6    Zn2   S    
C4    O3    A    
O8    Zn2   S    
C14   C24   A    
C24   H17   S    
H15   N2    S    
C22   C23   A    
C8    C9    S    
C11   O7    A    
C2    C19   A    
C1    C7    S    
C1    O2    A    
C20   C24   A    
N2    Zn2   S    
O2    Zn2   S    
C3    C5    D    
C23   H5    S    
