data_mof_unit_34806.cif
_audit_creation_date              2012-12-10T18:58:43-0500
_audit_creation_method            fapswitch 2.2
_symmetry_space_group_name_H-M    P1
_symmetry_Int_Tables_number       1
_space_group_crystal_system       triclinic
_cell_length_a                    12.961212
_cell_length_b                    10.780508
_cell_length_c                    9.597832
_cell_angle_alpha                 89.896602
_cell_angle_beta                  96.220577
_cell_angle_gamma                 91.957203
_cell_volume                      1332.41380851

loop_
_atom_site_label
_atom_site_type_symbol
_atom_type_description
_atom_site_fract_x
_atom_site_fract_y
_atom_site_fract_z
_atom_type_partial_charge
C1    C     C_R   0.500377 0.262638 0.500494 0.793720
C2    C     C_R   0.026963 0.475122 0.557046 0.174769
C3    C     C_R   0.973652 0.538441 0.444087 0.148606
C4    C     C_R   0.866437 0.545587 0.435875 -0.259242
C5    C     C_R   0.865313 0.435199 0.656218 -0.200427
C6    C     C_R   0.972549 0.424230 0.663283 -0.207981
C7    C     C_R   0.462845 0.062344 0.609075 0.128725
C8    C     C_R   0.506300 0.129653 0.504338 -0.089726
C9    C     C_R   0.560795 0.067317 0.409009 -0.206521
C10   C     C_R   0.558606 0.938127 0.407694 -0.240170
C11   C     C_R   0.504851 0.871069 0.503605 -0.090996
C12   C     C_R   0.301079 0.506214 0.473706 0.784032
C13   C     C_R   0.462914 0.934443 0.609521 0.122242
C14   C     C_3   0.355393 0.923518 0.651657 -0.471889
C15   C     C_3   0.354868 0.064235 0.649661 -0.490471
C16   C     C_R   0.572510 0.569795 0.083257 0.185654
C17   C     C_R   0.437393 0.417888 0.062359 0.173964
C18   C     C_R   0.437170 0.420951 0.914199 -0.088454
C19   C     C_R   0.571283 0.570158 0.936490 0.218789
C20   C     C_3   0.589161 0.706415 0.928960 -0.486323
C21   C     C_3   0.593450 0.707932 0.088353 -0.167419
C22   C     C_R   0.499835 0.737444 0.500211 0.783134
C23   C     C_R   0.699280 0.498852 0.526330 0.795037
C24   C     C_R   0.811988 0.494322 0.541196 -0.045366
C25   C     C_R   0.188814 0.519726 0.459281 -0.078344
C26   C     C_R   0.028088 0.595642 0.342123 -0.243286
C27   C     C_R   0.136264 0.591056 0.350832 0.079406
C28   C     C_R   0.133688 0.463998 0.562091 -0.301849
Cu1   Cu    Cu3+1 0.499990 0.499980 0.640670 0.930491
Cu2   Cu    Cu3+1 0.500010 0.500020 0.359330 0.917190
H1    H     H_    0.298764 0.101927 0.565536 0.188303
H2    H     H_    0.352016 0.105666 0.754803 0.190987
H3    H     H_    0.529503 0.759864 0.126917 0.172916
H4    H     H_    0.823808 0.394595 0.738134 0.150922
H5    H     H_    0.986672 0.647734 0.258247 0.131650
H6    H     H_    0.012778 0.376261 0.751319 0.130598
H7    H     H_    0.602439 0.117841 0.333839 0.152408
H8    H     H_    0.596783 0.890674 0.330867 0.166254
H9    H     H_    0.299006 0.879122 0.569476 0.191390
N1    N     N_R   0.500660 0.500930 0.148010 -0.207493
N2    N     N_R   0.500660 0.500890 0.852110 -0.196442
O1    O     O_R   0.500000 0.319640 0.618810 -0.579519
O2    O     O_R   0.500010 0.319680 0.381230 -0.588440
O3    O     O_R   0.348990 0.499960 0.599490 -0.580883
O4    O     O_R   0.349000 0.500000 0.361910 -0.601114
O5    O     O_R   0.499990 0.680320 0.618770 -0.575080
O6    O     O_R   0.500000 0.680360 0.381190 -0.595636
O7    O     O_R   0.651000 0.500000 0.638090 -0.578498
O8    O     O_R   0.651010 0.500040 0.400510 -0.583641
H10   H     H_    0.825473 0.591555 0.347647 0.136851
H11   H     H_    0.354100 0.883769 0.758465 0.198701
C29   C     C_3   0.366015 0.318462 0.115519 -0.375318
C30   C     C_3   0.407866 0.188594 0.096639 -0.359395
C31   C     C_3   0.340173 0.087811 0.157277 -0.843296
H12   H     H_    0.336392 0.104072 0.270804 0.257472
H13   H     H_    0.260350 0.086888 0.101847 0.245291
H14   H     H_    0.373732 0.995679 0.143950 0.244838
H15   H     H_    0.410515 0.168810 0.983787 0.198012
H16   H     H_    0.488311 0.184671 0.148456 0.234541
H17   H     H_    0.352193 0.330657 0.224624 0.257228
H18   H     H_    0.288211 0.323067 0.054597 0.145997
H19   H     H_    0.385218 0.359406 0.848252 0.138462
H20   H     H_    0.663475 0.729900 0.885679 0.192139
H21   H     H_    0.520682 0.754408 0.877452 0.198957
C32   C     C_3   0.702002 0.742822 0.161842 -0.354771
C33   C     C_3   0.736779 0.876717 0.129516 -0.358264
C34   C     C_3   0.829178 0.920563 0.231759 -0.865639
H22   H     H_    0.807460 0.920865 0.340596 0.255429
H23   H     H_    0.895443 0.858766 0.226073 0.250069
H24   H     H_    0.853837 0.016394 0.204435 0.245613
H25   H     H_    0.760029 0.881782 0.021568 0.220530
H26   H     H_    0.672262 0.941132 0.134961 0.215705
H27   H     H_    0.699203 0.731489 0.276347 0.208367
H28   H     H_    0.760401 0.678729 0.128853 0.186167
C35   C     C_3   0.191918 0.671571 0.250713 -0.388844
C36   C     C_3   0.190986 0.608255 0.107737 -0.314577
C37   C     C_3   0.257333 0.681800 0.012159 -0.845716
H29   H     H_    0.227397 0.776471 0.994141 0.247265
H30   H     H_    0.339277 0.689176 0.059862 0.254933
H31   H     H_    0.254975 0.633649 0.909592 0.246152
H32   H     H_    0.221391 0.513752 0.122024 0.225446
H33   H     H_    0.109956 0.599464 0.056399 0.206532
H34   H     H_    0.152782 0.761680 0.236274 0.180275
H35   H     H_    0.272558 0.696320 0.295272 0.210145
H36   H     H_    0.174191 0.412107 0.646973 0.148732

loop_
_geom_bond_atom_site_label_1
_geom_bond_atom_site_label_2
_ccdc_geom_bond_type
C16   C21   S    
Cu1   O1    S    
C1    C8    S    
Cu2   O4    S    
C19   C20   S    
C30   H16   S    
C7    C8    A    
C30   C31   S    
C25   C28   A    
C26   C27   A    
C29   H18   S    
C5    C6    A    
C4    C24   A    
C35   H35   S    
C23   O8    A    
C21   H3    S    
C32   H27   S    
C29   H17   S    
C14   H9    S    
C1    O2    A    
C33   H26   S    
C14   H11   S    
C8    C9    A    
C23   C24   S    
C9    C10   A    
Cu1   N2    S    
C7    C15   S    
C22   O6    A    
C13   C14   S    
C2    C6    A    
C27   C35   S    
C17   C29   S    
C37   H30   S    
C31   H13   S    
Cu1   O7    S    
C34   H22   S    
Cu2   O6    S    
C15   H2    S    
C36   C37   S    
C18   N2    A    
C36   H33   S    
C18   H19   S    
C37   H29   S    
C32   H28   S    
C4    H10   S    
C34   H23   S    
C17   N1    A    
C20   H21   S    
C35   C36   S    
Cu1   Cu2   S    
C1    O1    A    
C33   H25   S    
C5    H4    S    
C9    H7    S    
C17   C18   A    
Cu2   N1    S    
C16   N1    A    
C22   O5    A    
Cu2   O8    S    
Cu1   O3    S    
Cu2   O2    S    
C3    C4    A    
C29   C30   S    
C37   H31   S    
C31   H12   S    
C23   O7    A    
C21   C32   S    
C3    C26   A    
C12   O4    A    
C36   H32   S    
C30   H15   S    
C15   H1    S    
C25   C27   A    
C12   C25   S    
C11   C22   S    
Cu1   O5    S    
C10   H8    S    
C34   H24   S    
C20   H20   S    
C2    C3    A    
C12   O3    A    
C11   C13   A    
C35   H34   S    
C5    C24   A    
C16   C19   A    
C6    H6    S    
C33   C34   S    
C10   C11   A    
C26   H5    S    
C7    C13   A    
C20   C21   S    
C32   C33   S    
C28   H36   S    
C14   C15   S    
C2    C28   A    
C19   N2    A    
C31   H14   S    
