data_mof_unit_37509.cif
_audit_creation_date              2012-12-10T17:42:39-0500
_audit_creation_method            fapswitch 2.2
_symmetry_space_group_name_H-M    P1
_symmetry_Int_Tables_number       1
_space_group_crystal_system       triclinic
_cell_length_a                    9.969168
_cell_length_b                    10.616671
_cell_length_c                    13.076295
_cell_angle_alpha                 92.070414
_cell_angle_beta                  69.561309
_cell_angle_gamma                 89.533145
_cell_volume                      1295.69468788

loop_
_atom_site_label
_atom_site_type_symbol
_atom_type_description
_atom_site_fract_x
_atom_site_fract_y
_atom_site_fract_z
_atom_type_partial_charge
C1    C     C_R   0.500263 0.739081 0.498420 1.010847
C2    C     C_R   0.368639 0.474324 0.822390 -0.244251
C3    C     C_R   0.529914 0.860726 0.297725 -0.188285
C4    C     C_R   0.420117 0.492203 0.704133 1.010046
C5    C     C_R   0.544822 0.922641 0.202068 0.752832
C6    C     C_R   0.545482 0.053836 0.202437 -0.221877
C7    C     C_R   0.531457 0.123338 0.298316 -0.196785
C8    C     C_R   0.516325 0.061833 0.395843 0.031522
C9    C     C_R   0.515272 0.929906 0.395624 -0.093035
C10   C     C_R   0.501682 0.871318 0.493704 -0.313694
C11   C     C_R   0.491194 0.939201 0.589390 0.583556
C12   C     C_R   0.430947 0.456317 0.985025 -0.009433
C13   C     C_R   0.492028 0.068167 0.589602 0.513526
C14   C     C_R   0.503947 0.128280 0.494019 -0.295366
C15   C     C_R   0.790495 0.667436 0.641691 -0.244854
C16   C     C_R   0.500782 0.260853 0.499320 0.947875
C17   C     C_R   0.821952 0.749379 0.714204 0.586567
C18   C     C_R   0.957932 0.750051 0.717700 -0.298604
C19   C     C_R   0.064280 0.669506 0.648612 0.636472
C20   C     C_R   0.037586 0.582744 0.571901 -0.001985
C21   C     C_R   0.893780 0.582497 0.570438 -0.000193
C22   C     C_R   0.960583 0.421617 0.432392 -0.020751
C23   C     C_R   0.464343 0.430577 0.872454 -0.075485
C24   C     C_R   0.103237 0.421762 0.432276 0.003511
C25   C     C_R   0.580279 0.498074 0.295514 0.894153
C26   C     C_R   0.775614 0.358361 0.014533 -0.246136
C27   C     C_R   0.629700 0.476781 0.177471 -0.354475
C28   C     C_R   0.227738 0.510640 0.888095 0.586675
C29   C     C_R   0.186304 0.510757 0.001174 -0.275447
C30   C     C_R   0.286600 0.485778 0.050169 0.660443
C31   C     C_R   0.542424 0.446385 0.027898 -0.016056
C32   C     C_R   0.670453 0.378470 0.967892 -0.030608
C33   C     C_R   0.691222 0.332186 0.862353 -0.111163
C34   C     C_R   0.591165 0.360412 0.814107 -0.025553
C35   C     C_R   0.533591 0.507981 0.126072 0.624975
C36   C     C_R   0.752863 0.403262 0.120966 0.554848
F1    F     F_    0.847636 0.370987 0.169508 -0.641916
F2    F     F_    0.559537 0.855170 0.108595 -0.587748
F3    F     F_    0.478024 0.134968 0.683482 -0.643370
F4    F     F_    0.719213 0.828811 0.781755 -0.556315
F5    F     F_    0.189326 0.681828 0.663013 -0.582741
F6    F     F_    0.435185 0.602338 0.171044 -0.579336
F7    F     F_    0.129118 0.544561 0.843838 -0.616355
F8    F     F_    0.237920 0.477405 0.160395 -0.617108
F9    F     F_    0.477763 0.879933 0.682798 -0.575833
H1    H     H_    0.530973 0.758956 0.294348 0.172199
H2    H     H_    0.076190 0.532935 0.051346 0.229398
H3    H     H_    0.612437 0.322807 0.731981 0.205875
H4    H     H_    0.557486 0.101997 0.128243 0.183818
H5    H     H_    0.533533 0.224959 0.295182 0.150069
H6    H     H_    0.933402 0.357313 0.376916 0.183617
H7    H     H_    0.683283 0.674681 0.644766 0.268783
H8    H     H_    0.981982 0.814266 0.774957 0.231623
H9    H     H_    0.787041 0.277955 0.815701 0.160200
H10   H     H_    0.182440 0.357556 0.376740 0.164460
H11   H     H_    0.872352 0.304017 0.970318 0.201909
N1    N     N_R   0.856860 0.501200 0.500990 -0.101064
N2    N     N_R   0.142450 0.501280 0.501020 -0.100410
O1    O     O_R   0.385310 0.683220 0.500000 -0.545132
O2    O     O_R   0.614640 0.683250 0.500010 -0.638408
O3    O     O_R   0.328400 0.499950 0.653610 -0.492977
O4    O     O_R   0.557730 0.499970 0.653620 -0.670196
O5    O     O_R   0.385360 0.316750 0.499990 -0.638108
O6    O     O_R   0.614690 0.316780 0.500000 -0.614559
O7    O     O_R   0.442270 0.500030 0.346380 -0.577407
O8    O     O_R   0.671600 0.500050 0.346390 -0.562611
Zn1   Zn    Zn3+2 0.346880 0.499980 0.499990 1.062464
Zn2   Zn    Zn3+2 0.653120 0.500020 0.500010 0.993366

loop_
_geom_bond_atom_site_label_1
_geom_bond_atom_site_label_2
_ccdc_geom_bond_type
C8    C9    A    
O8    Zn2   S    
C21   N1    A    
C6    C7    A    
C3    C9    A    
C16   O5    A    
C16   O6    A    
C27   C36   A    
C25   C27   S    
C2    C28   A    
C9    C10   A    
O3    Zn1   S    
C3    H1    S    
C2    C4    S    
C19   C20   A    
O4    Zn2   S    
C3    C5    A    
C23   C34   A    
O1    Zn1   S    
C32   C33   A    
C2    C23   A    
C22   N1    A    
C19   F5    S    
C17   C18   A    
C25   O7    A    
C7    C8    A    
C6    H4    S    
C15   H7    S    
C24   H10   S    
C26   C32   A    
C11   C13   A    
C12   C23   A    
C30   F8    S    
C29   C30   A    
C29   H2    S    
O6    Zn2   S    
C22   C24   A    
C26   C36   A    
C36   F1    S    
C33   C34   A    
C31   C35   A    
C1    O1    A    
C12   C31   A    
C5    C6    A    
O5    Zn1   S    
C11   F9    S    
C13   F3    S    
C10   C11   A    
C1    C10   S    
N1    Zn2   S    
C20   N2    A    
C13   C14   A    
C4    O4    A    
N2    Zn1   S    
C15   C21   A    
C34   H3    S    
C20   C21   A    
O2    Zn2   S    
C24   N2    A    
C18   C19   A    
C1    O2    A    
C33   H9    S    
C15   C17   A    
C35   F6    S    
C28   C29   A    
C8    C14   A    
C28   F7    S    
C18   H8    S    
C27   C35   A    
C14   C16   S    
C5    F2    S    
C12   C30   A    
C4    O3    A    
C25   O8    A    
C31   C32   A    
C7    H5    S    
C22   H6    S    
O7    Zn1   S    
C17   F4    S    
C26   H11   S    
