data_mof_unit_41499.cif
_audit_creation_date              2012-12-10T17:14:40-0500
_audit_creation_method            fapswitch 2.2
_symmetry_space_group_name_H-M    P1
_symmetry_Int_Tables_number       1
_space_group_crystal_system       triclinic
_cell_length_a                    10.616268
_cell_length_b                    13.002549
_cell_length_c                    11.757083
_cell_angle_alpha                 99.412138
_cell_angle_beta                  92.745401
_cell_angle_gamma                 91.726784
_cell_volume                      1598.05686677

loop_
_atom_site_label
_atom_site_type_symbol
_atom_type_description
_atom_site_fract_x
_atom_site_fract_y
_atom_site_fract_z
_atom_type_partial_charge
C1    C     C_R   0.498315 0.299431 0.478881 0.816368
C2    C     C_R   0.503062 0.700541 0.521062 0.805922
C3    C     C_R   0.531512 0.139431 0.561182 -0.172961
C4    C     C_R   0.476582 0.860677 0.438042 -0.230043
C5    C     C_R   0.523338 0.031163 0.553923 0.104588
C6    C     C_R   0.487228 0.968761 0.445049 0.119099
C7    C     C_R   0.378776 0.402236 0.026660 -0.278953
C8    C     C_R   0.621775 0.597221 0.973193 -0.271202
C9    C     C_R   0.390192 0.412175 0.147200 0.067056
C10   C     C_R   0.609097 0.588409 0.852843 0.061460
C11   C     C_R   0.554916 0.541281 0.154763 0.156580
C12   C     C_R   0.447346 0.456753 0.844900 0.149835
C13   C     C_R   0.545861 0.534253 0.032284 0.030429
C14   C     C_R   0.456838 0.463336 0.967315 0.021585
C15   C     C_R   0.259496 0.499933 0.501066 0.787047
C16   C     C_R   0.740522 0.499449 0.498914 0.788148
C17   C     C_3   0.045570 0.515816 0.610603 -0.139815
C18   C     C_3   0.954621 0.482608 0.389622 -0.095671
C19   C     C_3   0.957423 0.422765 0.554081 -0.160376
C20   C     C_3   0.042634 0.575730 0.446103 -0.135608
C21   C     C_3   0.877433 0.498708 0.497506 0.021281
C22   C     C_3   0.122652 0.499853 0.502634 0.006990
C23   C     C_3   0.963290 0.591707 0.554035 -0.167625
C24   C     C_3   0.036895 0.406797 0.446224 -0.200027
C25   C     C_R   0.509195 0.813795 0.533014 -0.073377
C26   C     C_R   0.496352 0.186094 0.466543 -0.076290
C27   C     C_R   0.459751 0.016549 0.346845 0.008457
C28   C     C_R   0.552378 0.983042 0.651715 0.003529
C29   C     C_R   0.460525 0.124887 0.360261 -0.280678
C30   C     C_R   0.548228 0.874633 0.638623 -0.270815
Cu1   Cu    Cu3+1 0.509400 0.507730 0.615930 0.952101
Cu2   Cu    Cu3+1 0.490600 0.492270 0.384070 0.951650
H1    H     H_    0.919372 0.359994 0.597919 0.141102
H2    H     H_    0.080587 0.638496 0.402202 0.145223
H3    H     H_    0.085178 0.529689 0.701137 0.133820
H4    H     H_    0.915828 0.467544 0.298920 0.190738
H5    H     H_    0.929923 0.667428 0.597835 0.131077
H6    H     H_    0.070323 0.331096 0.402433 0.137616
H7    H     H_    0.440405 0.811649 0.359540 0.195065
H8    H     H_    0.566607 0.188890 0.639711 0.219794
H9    H     H_    0.572802 0.837480 0.712394 0.152413
H10   H     H_    0.435983 0.161725 0.286256 0.158168
N1    N     N_R   0.523540 0.519360 0.790140 -0.213650
N2    N     N_R   0.476460 0.480640 0.209860 -0.214930
O1    O     O_R   0.506670 0.354460 0.582000 -0.561841
O2    O     O_R   0.493330 0.645540 0.418000 -0.616193
O3    O     O_R   0.490800 0.341410 0.386200 -0.591873
O4    O     O_R   0.509200 0.658590 0.613800 -0.587115
O5    O     O_R   0.324790 0.506500 0.597880 -0.610329
O6    O     O_R   0.675210 0.493500 0.402120 -0.562673
O7    O     O_R   0.308910 0.493440 0.402080 -0.587523
O8    O     O_R   0.691090 0.506560 0.597920 -0.592798
C31   C     C_2   0.432439 0.958692 0.227970 0.330004
H11   H     H_    0.368403 0.990611 0.169134 0.083582
O9    O     O_2   0.487029 0.879625 0.191773 -0.569889
C32   C     C_2   0.585853 0.040281 0.769794 0.339568
H12   H     H_    0.652415 0.007406 0.825646 0.069493
O10   O     O_2   0.533795 0.119735 0.809022 -0.496338
C33   C     C_2   0.353232 0.382981 0.776979 0.416100
H13   H     H_    0.264963 0.410587 0.745928 0.046490
O11   O     O_2   0.370588 0.289526 0.761559 -0.512077
C34   C     C_2   0.649754 0.614603 0.222410 0.411021
H14   H     H_    0.621799 0.687754 0.270504 0.103297
O12   O     O_2   0.761675 0.596407 0.218569 -0.585689
H15   H     H_    0.668097 0.637238 0.809305 0.129542
H16   H     H_    0.329566 0.364728 0.190915 0.130127
H17   H     H_    0.308057 0.346967 0.981090 0.166833
H18   H     H_    0.690697 0.654044 0.018910 0.173164

loop_
_geom_bond_atom_site_label_1
_geom_bond_atom_site_label_2
_ccdc_geom_bond_type
C24   H6    S    
C27   C31   S    
Cu2   O7    S    
C8    C13   A    
C19   C24   S    
C15   O7    A    
C29   H10   S    
C12   N1    A    
C5    C28   A    
C10   N1    A    
C4    H7    S    
C3    C26   A    
Cu1   Cu2   S    
C20   C23   S    
C12   C14   A    
Cu1   O8    S    
C3    C5    A    
C11   C34   S    
C20   H2    S    
C34   H14   S    
C28   C30   A    
C4    C25   A    
C28   C32   S    
C11   N2    A    
C30   H9    S    
C23   H5    S    
C31   H11   S    
C2    O2    A    
C16   C21   S    
C11   C13   A    
Cu2   O6    S    
C17   C23   S    
Cu1   N1    S    
Cu1   O5    S    
C18   C24   S    
C5    C6    A    
C4    C6    A    
C17   C19   S    
C16   O6    A    
C3    H8    S    
C8    H18   S    
C2    C25   S    
C18   C20   S    
Cu1   O4    S    
C15   O5    A    
C21   C23   S    
Cu2   N2    S    
C1    C26   S    
Cu2   O3    S    
C22   C24   S    
C33   O11   D    
C27   C29   A    
Cu2   O2    S    
C20   C22   S    
C31   O9    D    
C7    H17   S    
C18   C21   S    
C16   O8    A    
C33   H13   S    
C32   H12   S    
C26   C29   A    
C8    C10   A    
Cu1   O1    S    
C1    O1    A    
C25   C30   A    
C7    C9    A    
C17   C22   S    
C9    H16   S    
C1    O3    A    
C9    N2    A    
C34   O12   D    
C17   H3    S    
C2    O4    A    
C19   H1    S    
C13   C14   A    
C12   C33   S    
C18   H4    S    
C15   C22   S    
C7    C14   A    
C6    C27   A    
C32   O10   D    
C19   C21   S    
C10   H15   S    
