data_mof_unit_65370.cif
_audit_creation_date              2012-12-10T18:37:04-0500
_audit_creation_method            fapswitch 2.2
_symmetry_space_group_name_H-M    P1
_symmetry_Int_Tables_number       1
_space_group_crystal_system       triclinic
_cell_length_a                    30.191915
_cell_length_b                    21.313029
_cell_length_c                    21.318429
_cell_angle_alpha                 90.18371
_cell_angle_beta                  135.087769
_cell_angle_gamma                 89.893569
_cell_volume                      9685.17408354

loop_
_atom_site_label
_atom_site_type_symbol
_atom_type_description
_atom_site_fract_x
_atom_site_fract_y
_atom_site_fract_z
_atom_type_partial_charge
C1    C     C_R   0.121705 0.499837 0.121802 0.854571
C2    C     C_R   0.621705 0.999824 0.121801 0.854317
C3    C     C_3   0.960746 0.729281 0.915933 -0.153856
C4    C     C_3   0.953315 0.270320 0.915837 -0.148808
C5    C     C_3   0.458799 0.229265 0.915846 -0.155588
C6    C     C_3   0.475831 0.770275 0.920908 -0.152179
C7    C     C_3   0.999418 0.689291 0.999931 0.030853
C8    C     C_3   0.999518 0.310684 0.999595 0.029762
C9    C     C_3   0.499573 0.189293 0.000083 0.031581
C10   C     C_3   0.499393 0.810715 0.999134 0.031478
C11   C     C_3   0.229214 0.458368 0.186509 -0.169534
C12   C     C_3   0.229293 0.557535 0.215471 -0.154757
C13   C     C_3   0.729217 0.958935 0.185959 -0.169154
C14   C     C_3   0.729292 0.057706 0.216257 -0.154574
C15   C     C_3   0.270507 0.516261 0.213651 -0.143420
C16   C     C_3   0.770507 0.017019 0.213887 -0.143475
C17   C     C_3   0.310702 0.499756 0.311016 0.028556
C18   C     C_3   0.810700 0.999743 0.311020 0.028864
C19   C     C_3   0.270619 0.441875 0.285060 -0.174445
C20   C     C_3   0.270797 0.541026 0.314190 -0.167027
C21   C     C_3   0.770616 0.941670 0.284275 -0.174766
C22   C     C_3   0.770794 0.040424 0.314745 -0.166368
C23   C     C_3   0.229587 0.483200 0.287116 -0.174435
C24   C     C_3   0.729581 0.982406 0.286879 -0.174991
C25   C     C_3   0.189301 0.499689 0.189638 0.028834
C26   C     C_3   0.689299 0.999668 0.189635 0.028310
C27   C     C_3   0.769255 0.543960 0.730092 0.505841
C28   C     C_3   0.770097 0.445067 0.752651 0.507724
C29   C     C_3   0.269263 0.038430 0.724559 0.500670
C30   C     C_3   0.270375 0.943402 0.760654 0.508230
C31   C     C_3   0.728707 0.487366 0.670059 -0.349284
C32   C     C_3   0.228987 0.979609 0.672571 -0.339716
C33   C     C_R   0.999669 0.621696 0.999796 0.865632
C34   C     C_R   0.999678 0.378295 0.999645 0.877736
C35   C     C_R   0.499763 0.121697 0.999890 0.861571
C36   C     C_R   0.499606 0.878306 0.999512 0.880269
C37   C     C_3   0.689070 0.500207 0.689613 -0.103234
C38   C     C_3   0.189141 0.000310 0.689588 -0.102070
C39   C     C_3   0.728934 0.557786 0.747861 -0.239301
C40   C     C_3   0.729629 0.456385 0.770820 -0.229235
C41   C     C_3   0.228846 0.059932 0.739794 -0.241878
C42   C     C_3   0.229721 0.962570 0.776544 -0.236867
C43   C     C_3   0.770822 0.513775 0.829628 -0.279640
C44   C     C_3   0.270766 0.021887 0.827274 -0.277570
C45   C     C_3   0.810848 0.501182 0.811019 -0.099270
C46   C     C_3   0.310866 0.001530 0.811018 -0.097868
C47   C     C_R   0.999911 0.000128 0.878281 0.860957
C48   C     C_R   0.499919 0.500182 0.878291 0.861217
C49   C     C_R   0.999932 0.878296 0.000332 0.856728
C50   C     C_R   0.999999 0.121701 0.000267 0.858632
C51   C     C_R   0.499943 0.378296 0.000358 0.856187
C52   C     C_R   0.499956 0.621711 0.000102 0.859925
C53   C     C_R   0.000037 0.000155 0.121720 0.904426
C54   C     C_R   0.500051 0.499840 0.121715 0.905244
C55   C     C_R   0.499549 0.499855 0.377939 0.916086
C56   C     C_R   0.999454 0.999823 0.377857 0.916145
C57   C     C_R   0.378289 0.499951 0.378461 0.868042
C58   C     C_R   0.878288 0.999949 0.378464 0.867820
C59   C     C_R   0.499809 0.500114 0.621576 0.854900
C60   C     C_R   0.999769 0.000102 0.621534 0.854851
C61   C     C_R   0.878364 0.500679 0.878329 0.950594
C62   C     C_R   0.378377 0.000933 0.878342 0.949241
C63   C     C_R   0.621629 0.500034 0.622137 0.903857
C64   C     C_R   0.121652 0.000048 0.622046 0.903052
C65   C     C_3   0.036070 0.047413 0.807059 -0.162013
C66   C     C_3   0.022033 0.945160 0.792632 -0.156545
C67   C     C_3   0.540555 0.543707 0.811536 -0.163849
C68   C     C_3   0.516580 0.443314 0.787179 -0.154595
C69   C     C_3   0.557524 0.486565 0.787039 -0.151418
C70   C     C_3   0.058546 0.992230 0.788067 -0.149737
C71   C     C_3   0.499593 0.500410 0.688960 0.030270
C72   C     C_3   0.999529 0.000342 0.688891 0.030420
C73   C     C_3   0.482640 0.557538 0.712253 -0.174172
C74   C     C_3   0.458599 0.457159 0.687762 -0.165803
C75   C     C_3   0.977062 0.055514 0.706648 -0.173942
C76   C     C_3   0.962974 0.953268 0.692140 -0.167794
C77   C     C_3   0.940515 0.008401 0.711027 -0.174610
C78   C     C_3   0.441646 0.514232 0.712185 -0.174355
C79   C     C_3   0.999573 0.000302 0.810338 0.027320
C80   C     C_3   0.499618 0.500402 0.810388 0.027628
C81   C     C_3   0.039682 0.954765 0.268596 -0.227809
C82   C     C_3   0.019595 0.056651 0.249267 -0.208723
C83   C     C_3   0.542724 0.457236 0.271791 -0.227490
C84   C     C_3   0.515880 0.557527 0.245182 -0.201648
C85   C     C_3   0.557712 0.515010 0.328726 -0.276377
C86   C     C_3   0.058454 0.011192 0.329595 -0.275637
C87   C     C_3   0.499794 0.499445 0.310641 -0.107865
C88   C     C_3   0.999636 0.999296 0.310514 -0.106360
C89   C     C_3   0.058035 0.729266 0.047933 -0.152304
C90   C     C_3   0.055249 0.270730 0.034254 -0.162771
C91   C     C_3   0.557595 0.229297 0.044760 -0.151997
C92   C     C_3   0.558621 0.770862 0.065577 -0.162013
C93   C     C_3   0.484801 0.442894 0.254066 0.509931
C94   C     C_3   0.458524 0.540818 0.228077 0.504635
C95   C     C_3   0.980894 0.944093 0.249940 0.509690
C96   C     C_3   0.961246 0.043530 0.231112 0.502204
C97   C     C_3   0.940599 0.987977 0.169159 -0.373148
C98   C     C_3   0.441650 0.483773 0.170192 -0.379378
C99   C     C_3   0.000030 0.000029 0.189088 -0.104059
C100  C     C_3   0.500126 0.499563 0.189130 -0.105125
C101  C     C_3   0.019418 0.770527 0.963965 -0.160836
C102  C     C_3   0.009095 0.229060 0.950516 -0.161001
C103  C     C_3   0.516875 0.270551 0.960554 -0.157803
C104  C     C_3   0.535073 0.729182 0.987323 -0.171878
C105  C     C_3   0.999604 0.810702 0.000271 0.026615
C106  C     C_3   0.999885 0.189285 0.000171 0.030965
C107  C     C_3   0.499671 0.310702 0.000354 0.027827
C108  C     C_3   0.499647 0.689315 0.999698 0.024737
C109  C     C_3   0.038180 0.770736 0.084258 -0.168362
C110  C     C_3   0.046009 0.229660 0.083921 -0.167632
C111  C     C_3   0.540365 0.270744 0.084595 -0.169088
C112  C     C_3   0.523141 0.729703 0.077872 -0.153962
C113  C     C_3   0.979579 0.729520 0.036274 -0.175119
C114  C     C_3   0.990291 0.270779 0.049271 -0.170794
C115  C     C_3   0.482369 0.229507 0.039939 -0.176963
C116  C     C_3   0.463887 0.770848 0.011405 -0.165507
C117  C     C_3   0.940927 0.770643 0.952231 -0.171697
C118  C     C_3   0.944128 0.229278 0.965482 -0.178365
C119  C     C_3   0.441600 0.270612 0.955642 -0.173842
C120  C     C_3   0.440348 0.729265 0.933233 -0.171470
H1    H     H_    0.035631 0.789234 0.934456 0.123270
H2    H     H_    0.016767 0.210007 0.910289 0.122469
H3    H     H_    0.530908 0.289282 0.928156 0.121922
H4    H     H_    0.564093 0.710266 0.977484 0.130780
H5    H     H_    0.211319 0.469619 0.315595 0.144043
H6    H     H_    0.711300 0.968188 0.315149 0.144093
H7    H     H_    0.709405 0.475728 0.603747 0.130412
H8    H     H_    0.210023 0.962042 0.608301 0.134728
H9    H     H_    0.710369 0.604273 0.743774 0.152154
H10   H     H_    0.710948 0.420547 0.784797 0.141892
H11   H     H_    0.210219 0.107912 0.729239 0.152860
H12   H     H_    0.210630 0.931882 0.794769 0.138302
H13   H     H_    0.789583 0.524589 0.895843 0.176656
H14   H     H_    0.289572 0.039102 0.891605 0.174911
H15   H     H_    0.604765 0.475319 0.815564 0.124316
H16   H     H_    0.106660 0.985658 0.817472 0.123192
H17   H     H_    0.065846 0.085832 0.855807 0.130058
H18   H     H_    0.040325 0.900157 0.829614 0.123021
H19   H     H_    0.573958 0.579038 0.863872 0.131998
H20   H     H_    0.530376 0.396740 0.819671 0.121142
H21   H     H_    0.468702 0.604220 0.680010 0.143384
H22   H     H_    0.425132 0.421874 0.635392 0.134407
H23   H     H_    0.958619 0.100583 0.669832 0.141871
H24   H     H_    0.933099 0.914871 0.643408 0.136961
H25   H     H_    0.892230 0.015047 0.680967 0.145412
H26   H     H_    0.394269 0.525599 0.683095 0.144091
H27   H     H_    0.604592 0.527103 0.394929 0.163428
H28   H     H_    0.105950 0.019638 0.396735 0.164281
H29   H     H_    0.105768 0.710381 0.086963 0.119660
H30   H     H_    0.100557 0.289619 0.062309 0.124616
H31   H     H_    0.604875 0.210439 0.081113 0.119873
H32   H     H_    0.606829 0.789840 0.119477 0.123324
H33   H     H_    0.071427 0.918012 0.281519 0.138569
H34   H     H_    0.035233 0.102664 0.246386 0.132403
H35   H     H_    0.576741 0.422484 0.287174 0.140573
H36   H     H_    0.528533 0.604327 0.239021 0.128644
H37   H     H_    0.892769 0.979123 0.102592 0.152437
H38   H     H_    0.394590 0.471544 0.104330 0.151440
H39   H     H_    0.069668 0.789571 0.152875 0.128376
H40   H     H_    0.083767 0.211235 0.152501 0.137387
H41   H     H_    0.573539 0.289573 0.153402 0.129458
H42   H     H_    0.542277 0.711175 0.141764 0.125991
H43   H     H_    0.963280 0.711147 0.065789 0.146372
H44   H     H_    0.982625 0.289381 0.089665 0.153974
H45   H     H_    0.468341 0.211058 0.072433 0.147423
H46   H     H_    0.434953 0.790044 0.021211 0.143481
H47   H     H_    0.893028 0.789048 0.913108 0.145716
H48   H     H_    0.898913 0.210217 0.937458 0.137724
H49   H     H_    0.394164 0.289022 0.919183 0.144805
H50   H     H_    0.392033 0.710619 0.879067 0.148180
H51   H     H_    0.929074 0.710527 0.847241 0.150575
H52   H     H_    0.915411 0.288822 0.847326 0.154555
H53   H     H_    0.425470 0.210477 0.847002 0.147904
H54   H     H_    0.456373 0.788512 0.856720 0.148515
H55   H     H_    0.289202 0.529716 0.185721 0.143192
H56   H     H_    0.789204 0.031102 0.186148 0.142229
H57   H     H_    0.210401 0.424605 0.132606 0.134515
H58   H     H_    0.210439 0.604687 0.185136 0.121385
H59   H     H_    0.710418 0.925648 0.131611 0.136100
H60   H     H_    0.710436 0.105009 0.186558 0.121149
H61   H     H_    0.289031 0.394585 0.315080 0.145624
H62   H     H_    0.289637 0.574725 0.368165 0.133532
H63   H     H_    0.789020 0.894221 0.313642 0.145889
H64   H     H_    0.789638 0.073645 0.369175 0.132926
O1    O     O_R   0.093030 0.500000 0.145540 -0.630113
O2    O     O_R   0.593030 0.000000 0.145540 -0.630108
O3    O     O_R   0.052520 0.906980 0.052620 -0.626072
O4    O     O_R   0.052520 0.093020 0.052620 -0.627221
O5    O     O_R   0.552520 0.406980 0.052620 -0.626525
O6    O     O_R   0.552520 0.593020 0.052620 -0.625308
O7    O     O_R   0.947460 0.000000 0.040550 -0.635183
O8    O     O_R   0.447460 0.500000 0.040550 -0.634923
O9    O     O_R   0.052490 0.000000 0.145610 -0.620368
O10   O     O_R   0.552490 0.500000 0.145610 -0.620490
O11   O     O_R   0.499990 0.552490 0.407030 -0.605312
O12   O     O_R   0.499990 0.447510 0.407030 -0.589269
O13   O     O_R   0.999990 0.052490 0.407030 -0.602798
O14   O     O_R   0.999990 0.947510 0.407030 -0.591419
O15   O     O_R   0.406970 0.552510 0.407040 -0.620377
O16   O     O_R   0.406970 0.447490 0.407040 -0.628934
O17   O     O_R   0.906970 0.052510 0.407040 -0.620929
O18   O     O_R   0.906970 0.947490 0.407040 -0.628095
O19   O     O_R   0.500000 0.552540 0.593090 -0.632570
O20   O     O_R   0.500000 0.447460 0.593090 -0.629964
O21   O     O_R   0.000000 0.052540 0.593090 -0.631578
O22   O     O_R   0.000000 0.947460 0.593090 -0.630845
O23   O     O_R   0.593020 0.552520 0.593090 -0.637328
O24   O     O_R   0.593020 0.447480 0.593090 -0.635737
O25   O     O_R   0.093020 0.052520 0.593090 -0.636081
O26   O     O_R   0.093020 0.947480 0.593090 -0.635985
O27   O     O_R   0.093020 0.500000 0.040510 -0.630472
O28   O     O_R   0.593020 0.000000 0.040510 -0.630062
O29   O     O_R   0.999990 0.593020 0.052510 -0.633044
O30   O     O_R   0.999990 0.406980 0.052510 -0.631905
O31   O     O_R   0.499990 0.093020 0.052510 -0.633610
O32   O     O_R   0.499990 0.906980 0.052510 -0.628839
O33   O     O_R   0.999990 0.593020 0.947470 -0.622861
O34   O     O_R   0.999990 0.406980 0.947470 -0.624484
O35   O     O_R   0.499990 0.093020 0.947470 -0.622485
O36   O     O_R   0.499990 0.906980 0.947470 -0.628072
O37   O     O_R   0.906980 0.500000 0.959490 -0.641682
O38   O     O_R   0.406980 0.000000 0.959490 -0.641010
O39   O     O_R   0.906970 0.500000 0.854460 -0.588715
O40   O     O_R   0.406970 0.000000 0.854460 -0.586115
O41   O     O_R   0.947510 0.000000 0.854550 -0.627894
O42   O     O_R   0.447510 0.500000 0.854550 -0.628153
O43   O     O_R   0.052540 0.000000 0.959610 -0.624972
O44   O     O_R   0.552540 0.500000 0.959610 -0.626007
O45   O     O_R   0.947490 0.906970 0.947560 -0.629956
O46   O     O_R   0.947490 0.093030 0.947560 -0.629502
O47   O     O_R   0.447490 0.406970 0.947560 -0.629563
O48   O     O_R   0.447490 0.593030 0.947560 -0.631716
Zn1   Zn    Zn3+2 0.000000 0.500000 0.070130 0.934601
Zn2   Zn    Zn3+2 0.500000 0.000000 0.070130 0.936196
Zn3   Zn    Zn3+2 0.000000 0.500000 0.929870 0.968866
Zn4   Zn    Zn3+2 0.500000 0.000000 0.929870 0.968746
Zn5   Zn    Zn3+2 0.929870 0.000000 0.929930 0.927583
Zn6   Zn    Zn3+2 0.429870 0.500000 0.929930 0.925864
Zn7   Zn    Zn3+2 0.070130 0.000000 0.070230 0.939597
Zn8   Zn    Zn3+2 0.570130 0.500000 0.070230 0.939637
Zn9   Zn    Zn3+2 0.499990 0.570130 0.500050 0.949145
Zn10  Zn    Zn3+2 0.499990 0.429870 0.500050 0.957756
Zn11  Zn    Zn3+2 0.999990 0.070130 0.500050 0.950679
Zn12  Zn    Zn3+2 0.999990 0.929870 0.500050 0.956653
O49   O     O_3   0.794691 0.589410 0.714850 -0.646844
C121  C     C_3   0.746311 0.623354 0.636170 0.079057
H65   H     H_    0.758207 0.674018 0.651376 0.156487
H66   H     H_    0.699013 0.617823 0.610548 0.131970
C122  C     C_3   0.743092 0.604703 0.563651 -0.331508
H67   H     H_    0.789601 0.612500 0.588059 0.232362
H68   H     H_    0.731307 0.554121 0.547647 0.211840
C123  C     C_3   0.693664 0.642926 0.479222 -0.988804
H69   H     H_    0.646776 0.636342 0.453954 0.267087
H70   H     H_    0.691293 0.627198 0.427193 0.269684
H71   H     H_    0.706025 0.693554 0.492698 0.265054
O50   O     O_3   0.797246 0.387848 0.760523 -0.658713
C124  C     C_3   0.750916 0.340741 0.707866 0.077279
H72   H     H_    0.758033 0.317251 0.668956 0.158519
H73   H     H_    0.701664 0.358629 0.658602 0.143088
C125  C     C_3   0.759390 0.292216 0.768356 -0.342231
H74   H     H_    0.807416 0.272280 0.813685 0.225192
H75   H     H_    0.753962 0.315187 0.809429 0.217411
C126  C     C_3   0.711673 0.239151 0.714730 -0.973546
H76   H     H_    0.663222 0.257912 0.670155 0.266783
H77   H     H_    0.719382 0.204692 0.760647 0.264168
H78   H     H_    0.717034 0.214728 0.674310 0.263435
O51   O     O_3   0.294973 0.077695 0.703774 -0.642247
C127  C     C_3   0.247067 0.110062 0.623202 0.077416
H79   H     H_    0.260079 0.160539 0.635327 0.158916
H80   H     H_    0.199730 0.107234 0.597954 0.125814
C128  C     C_3   0.242936 0.085723 0.551628 -0.328962
H81   H     H_    0.290134 0.087456 0.576862 0.235882
H82   H     H_    0.226828 0.036153 0.535750 0.207681
C129  C     C_3   0.197454 0.124908 0.467069 -0.990259
H83   H     H_    0.150376 0.125964 0.442152 0.266042
H84   H     H_    0.192913 0.104175 0.414877 0.271506
H85   H     H_    0.215162 0.173711 0.480328 0.264667
O52   O     O_3   0.298511 0.884628 0.776887 -0.657336
C130  C     C_3   0.255021 0.835337 0.741808 0.081945
H86   H     H_    0.260681 0.802098 0.707639 0.159889
H87   H     H_    0.204908 0.850595 0.691019 0.140011
C131  C     C_3   0.269963 0.800668 0.817780 -0.345082
H88   H     H_    0.319219 0.783801 0.865849 0.228244
H89   H     H_    0.265165 0.833151 0.853494 0.216788
C132  C     C_3   0.226406 0.744699 0.783566 -0.978278
H90   H     H_    0.176860 0.760606 0.736600 0.266425
H91   H     H_    0.238613 0.720596 0.840258 0.267162
H92   H     H_    0.231558 0.710781 0.749401 0.262282
O53   O     O_3   0.469664 0.383429 0.263605 -0.629070
C133  C     C_3   0.456001 0.340394 0.201045 0.083096
H93   H     H_    0.483597 0.297067 0.237346 0.155219
H94   H     H_    0.469192 0.356923 0.166375 0.117750
C134  C     C_3   0.386190 0.323856 0.132389 -0.325964
H95   H     H_    0.374184 0.303262 0.166667 0.228397
H96   H     H_    0.357839 0.367071 0.097596 0.214425
C135  C     C_3   0.369435 0.277049 0.063919 -0.988946
H97   H     H_    0.379897 0.297297 0.027621 0.265058
H98   H     H_    0.318596 0.265937 0.015243 0.266966
H99   H     H_    0.396415 0.232909 0.097009 0.261152
O54   O     O_3   0.415311 0.584098 0.210216 -0.643485
C136  C     C_3   0.382175 0.615162 0.128602 0.075564
H100  H     H_    0.331387 0.612877 0.089147 0.155842
H101  H     H_    0.387649 0.593585 0.086607 0.135024
C137  C     C_3   0.402109 0.684063 0.146027 -0.325712
H102  H     H_    0.393127 0.706584 0.183251 0.231167
H103  H     H_    0.453129 0.687192 0.187132 0.211029
C138  C     C_3   0.366178 0.719484 0.059278 -0.994667
H104  H     H_    0.375628 0.698596 0.021876 0.268753
H105  H     H_    0.381372 0.769315 0.074082 0.264311
H106  H     H_    0.314976 0.717834 0.017444 0.266433
O55   O     O_3   0.961549 0.885707 0.254905 -0.629849
C139  C     C_3   0.947894 0.843041 0.192001 0.084391
H107  H     H_    0.973034 0.798521 0.227158 0.155241
H108  H     H_    0.963750 0.858610 0.160496 0.117786
C140  C     C_3   0.877404 0.829794 0.119694 -0.327284
H109  H     H_    0.862442 0.809988 0.150486 0.227923
H110  H     H_    0.851440 0.874268 0.085934 0.214701
C141  C     C_3   0.860776 0.783586 0.050749 -0.986796
H111  H     H_    0.874135 0.803152 0.017792 0.265618
H112  H     H_    0.809437 0.774765 0.999423 0.266497
H113  H     H_    0.885477 0.738303 0.082741 0.261048
O56   O     O_3   0.920890 0.088994 0.216927 -0.641680
C142  C     C_3   0.891640 0.124623 0.139954 0.078139
H114  H     H_    0.840449 0.125236 0.098400 0.157576
H115  H     H_    0.897367 0.105167 0.097321 0.129332
C143  C     C_3   0.916345 0.191984 0.166691 -0.329031
H116  H     H_    0.908907 0.211999 0.206866 0.232941
H117  H     H_    0.967485 0.192103 0.207977 0.210140
C144  C     C_3   0.883059 0.233139 0.085264 -0.991214
H118  H     H_    0.890128 0.214065 0.044380 0.262740
H119  H     H_    0.902538 0.281432 0.106759 0.265443
H120  H     H_    0.832008 0.235313 0.044289 0.266696

loop_
_geom_bond_atom_site_label_1
_geom_bond_atom_site_label_2
_ccdc_geom_bond_type
O7    Zn5   S    
O1    Zn1   S    
C18   C21   S    
O41   Zn5   S    
C108  C120  S    
C111  H41   S    
C103  H3    S    
C19   H61   S    
C136  H100  S    
C53   C99   S    
C66   C79   S    
C131  H88   S    
C5    C119  S    
O23   Zn9   S    
C81   C95   S    
C86   C88   S    
C60   O21   A    
C60   C72   S    
C128  H81   S    
C133  C134  S    
C87   C94   S    
C53   O9    A    
C129  H83   S    
C43   H13   S    
O9    Zn7   S    
C11   C15   S    
C18   C58   S    
C40   C43   S    
C4    C102  S    
C143  H116  S    
C6    C104  S    
C115  H45   S    
C81   C86   S    
C8    C114  S    
C65   H17   S    
C88   C95   S    
C69   H15   S    
O49   C121  S    
C106  C118  S    
C70   H16   S    
C7    C33   S    
C64   O26   A    
C42   C44   S    
O29   Zn1   S    
C37   C63   S    
C44   C46   S    
C56   O14   A    
C77   C79   S    
C140  H110  S    
C27   C31   S    
C142  H114  S    
C84   C100  S    
C41   H11   S    
C33   O29   A    
C6    H54   S    
C31   C37   S    
C19   C23   S    
C48   O42   A    
O8    Zn6   S    
C66   C76   S    
C12   C20   S    
C143  C144  S    
C13   C21   S    
C2    C26   S    
C14   C26   S    
C75   H23   S    
C76   H24   S    
C135  H97   S    
C46   C62   S    
C1    O1    A    
C83   C100  S    
O48   Zn6   S    
C68   H20   S    
O30   Zn1   S    
O45   Zn5   S    
O16   Zn10  S    
O54   C136  S    
C136  C137  S    
C67   C69   S    
C126  H77   S    
O38   Zn2   S    
C141  H113  S    
C89   C101  S    
C91   C103  S    
C35   O35   A    
C95   C97   S    
C33   O33   A    
C134  C135  S    
C132  H91   S    
C48   C80   S    
C84   H36   S    
C66   C70   S    
O27   Zn3   S    
C130  H87   S    
C92   C104  S    
C58   O18   A    
C51   C107  S    
C21   C24   S    
C28   C40   S    
C103  C107  S    
O10   Zn8   S    
C14   H60   S    
C123  H69   S    
C83   C93   S    
C12   H58   S    
C5    C103  S    
C65   C79   S    
C31   H7    S    
C90   H30   S    
C50   O4    A    
O33   Zn3   S    
C61   O39   A    
C122  H67   S    
C54   O8    A    
C24   C26   S    
O34   Zn3   S    
O44   Zn8   S    
C37   C40   S    
C27   O49   S    
C48   O44   A    
C78   C80   S    
C56   C88   S    
C83   H35   S    
C11   C25   S    
C68   C74   S    
C65   C70   S    
C81   H33   S    
C139  H107  S    
C124  H72   S    
C118  H48   S    
C90   C102  S    
C141  H112  S    
C59   O20   A    
C135  H99   S    
C11   H57   S    
C62   O40   A    
C67   H19   S    
C110  C114  S    
C3    C101  S    
C137  H103  S    
C55   O12   A    
O50   C124  S    
C24   H6    S    
C144  H119  S    
C72   C75   S    
O28   Zn4   S    
C137  C138  S    
C44   H14   S    
C30   O52   S    
C51   O47   A    
O6    Zn8   S    
C38   C41   S    
C78   H26   S    
C39   H9    S    
C116  C120  S    
C142  H115  S    
C5    C9    S    
C134  H95   S    
C113  H43   S    
C43   C45   S    
C114  H44   S    
C66   H18   S    
C20   C23   S    
C96   O56   S    
O53   C133  S    
C8    C34   S    
C75   C77   S    
C95   O55   S    
C119  H49   S    
C123  H71   S    
C113  C117  S    
C115  C119  S    
C14   C22   S    
C13   C26   S    
C109  H39   S    
C112  C116  S    
C110  H40   S    
C50   C106  S    
C105  C109  S    
C121  H65   S    
C122  C123  S    
C4    H52   S    
O37   Zn1   S    
C18   C22   S    
C5    H53   S    
C30   C46   S    
C85   H27   S    
C125  H74   S    
C86   H28   S    
C52   O6    A    
O20   Zn10  S    
O51   C127  S    
C104  H4    S    
C131  H89   S    
C139  C140  S    
C138  H106  S    
C94   O54   S    
C32   H8    S    
C36   O32   A    
C60   O22   A    
C87   C93   S    
C89   H29   S    
C50   O46   A    
C129  H84   S    
C62   O38   A    
C55   C87   S    
C47   O43   A    
C9    C91   S    
C131  C132  S    
C13   C16   S    
O52   C130  S    
O46   Zn5   S    
C143  H117  S    
O21   Zn11  S    
C35   O31   A    
O2    Zn2   S    
C121  C122  S    
C128  C129  S    
C88   C96   S    
C1    O27   A    
C129  H85   S    
O32   Zn2   S    
C82   C99   S    
C116  H46   S    
O25   Zn11  S    
C10   C116  S    
C126  H76   S    
C73   H21   S    
C11   C19   S    
O47   Zn6   S    
C54   O10   A    
O24   Zn10  S    
C29   C32   S    
C3    C7    S    
C94   C98   S    
C17   C20   S    
C21   H63   S    
C133  H93   S    
C3    C117  S    
C98   H38   S    
C68   C69   S    
C140  C141  S    
C130  H86   S    
C67   C73   S    
C38   C64   S    
C51   O5    A    
C72   C76   S    
C29   C41   S    
C27   C45   S    
C135  H98   S    
O56   C142  S    
O11   Zn9   S    
C10   C92   S    
C140  H109  S    
C63   O23   A    
C105  C117  S    
O31   Zn2   S    
C107  C111  S    
C125  C126  S    
C107  C119  S    
C136  H101  S    
C138  H104  S    
C9    C115  S    
C84   C85   S    
C34   O30   A    
C92   C112  S    
C49   C105  S    
C82   C86   S    
C101  H1    S    
C108  C112  S    
O12   Zn10  S    
C132  H90   S    
C47   O41   A    
C12   C15   S    
O43   Zn7   S    
C84   C94   S    
C53   O7    A    
C83   C85   S    
C98   C100  S    
C29   O51   S    
C41   C44   S    
C22   C24   S    
C64   O25   A    
C104  C108  S    
O15   Zn9   S    
C123  H70   S    
C56   O13   A    
C15   C17   S    
C40   H10   S    
O13   Zn11  S    
C28   C31   S    
O22   Zn12  S    
C67   C80   S    
O17   Zn11  S    
C6    C10   S    
C71   C74   S    
O3    Zn7   S    
C34   O34   A    
C81   C99   S    
C2    O28   A    
C93   O53   S    
C29   C46   S    
C124  C125  S    
O40   Zn4   S    
C37   C39   S    
O4    Zn7   S    
C120  H50   S    
C117  H47   S    
C45   C61   S    
C139  H108  S    
C49   O45   A    
C61   O37   A    
C16   H56   S    
O26   Zn12  S    
C59   O19   A    
C127  H79   S    
C74   C78   S    
C9    C35   S    
C30   C42   S    
C10   C36   S    
C102  H2    S    
O5    Zn8   S    
C17   C57   S    
C4    C118  S    
C68   C80   S    
C126  H78   S    
C55   O11   A    
O55   C139  S    
O42   Zn6   S    
C144  H118  S    
C47   C79   S    
C4    C8    S    
C36   O36   A    
C38   C42   S    
C132  H92   S    
C7    C89   S    
C89   C109  S    
C130  C131  S    
C91   C111  S    
C69   C71   S    
C58   O17   A    
C27   C39   S    
C49   O3    A    
C92   H32   S    
C22   H64   S    
C73   C78   S    
C32   C38   S    
C109  C113  S    
C23   H5    S    
C74   H22   S    
O18   Zn12  S    
C1    C25   S    
C54   C100  S    
C6    C120  S    
C97   C99   S    
C85   C87   S    
C101  C105  S    
C121  H66   S    
C28   C45   S    
C122  H68   S    
C82   C96   S    
C30   C32   S    
C76   C77   S    
C125  H75   S    
C52   O48   A    
C39   C43   S    
O14   Zn12  S    
C13   H59   S    
C124  H73   S    
C97   H37   S    
C2    O2    A    
C141  H111  S    
C127  C128  S    
C96   C97   S    
C114  C118  S    
O39   Zn3   S    
C137  H102  S    
C57   O16   A    
C144  H120  S    
C14   C16   S    
C8    C90   S    
C90   C110  S    
C77   H25   S    
C20   H62   S    
C106  C110  S    
C128  H82   S    
O35   Zn4   S    
O36   Zn4   S    
C28   O50   S    
C127  H80   S    
C70   C72   S    
O19   Zn9   S    
C112  H42   S    
C65   C75   S    
C15   H55   S    
C12   C25   S    
C63   O24   A    
C142  C143  S    
C7    C113  S    
C138  H105  S    
C134  H96   S    
C91   H31   S    
C3    H51   S    
C42   H12   S    
C17   C19   S    
C102  C106  S    
C133  H94   S    
C23   C25   S    
C82   H34   S    
C52   C108  S    
C16   C18   S    
C71   C73   S    
C111  C115  S    
C93   C98   S    
C57   O15   A    
C59   C71   S    
