data_mof_unit_62013.cif
_audit_creation_date              2012-12-11T18:47:27-0500
_audit_creation_method            fapswitch 2.2
_symmetry_space_group_name_H-M    P1
_symmetry_Int_Tables_number       1
_space_group_crystal_system       triclinic
_cell_length_a                    8.269155
_cell_length_b                    15.008351
_cell_length_c                    15.149622
_cell_angle_alpha                 99.68187
_cell_angle_beta                  97.552736
_cell_angle_gamma                 99.242688
_cell_volume                      1804.90102652

loop_
_atom_site_label
_atom_site_type_symbol
_atom_type_description
_atom_site_fract_x
_atom_site_fract_y
_atom_site_fract_z
_atom_type_partial_charge
Ba1   Ba    Ba6+2 0.844900 0.542440 0.457470 1.641890
Ba2   Ba    Ba6+2 0.344940 0.457640 0.542540 1.640732
C1    C     C_3   0.509882 0.816978 0.141031 -0.395277
C2    C     C_R   0.111054 0.467122 0.203585 0.060534
C3    C     C_R   0.930770 0.475185 0.767199 -0.264242
C4    C     C_3   0.120869 0.800882 0.228842 0.382751
C5    C     C_R   0.825052 0.450265 0.827060 0.030955
C6    C     C_R   0.884592 0.468967 0.921131 0.008770
C7    C     C_R   0.058904 0.496315 0.954342 0.003321
C8    C     C_R   0.161266 0.535855 0.894523 0.031015
C9    C     C_R   0.130722 0.495285 0.047557 0.003503
C10   C     C_R   0.299726 0.536581 0.079623 -0.037142
C11   C     C_R   0.393165 0.575180 0.021434 -0.116128
C12   C     C_3   0.562943 0.772557 0.221187 0.406096
C13   C     C_R   0.323392 0.586779 0.936388 0.085861
C14   C     C_R   0.043288 0.453188 0.110327 -0.136435
C15   C     C_R   0.273489 0.513254 0.232787 -0.282199
C16   C     C_3   0.090937 0.870330 0.168140 -0.368166
C17   C     C_R   0.092577 0.524280 0.798235 0.131391
C18   C     C_R   0.321455 0.822385 0.449475 -0.014877
C19   C     C_R   0.576144 0.790684 0.528289 0.064115
C20   C     C_R   0.767916 0.231000 0.528729 -0.272658
C21   C     C_R   0.866037 0.173037 0.562651 -0.013452
C22   C     C_R   0.802677 0.079397 0.552856 -0.161527
C23   C     C_3   0.408304 0.310385 0.261975 0.313067
C24   C     C_R   0.638414 0.041486 0.508529 0.018384
C25   C     C_R   0.543621 0.100932 0.469389 -0.022505
C26   C     C_R   0.565624 0.946512 0.500360 0.008882
C27   C     C_R   0.398850 0.914426 0.455317 -0.037608
C28   C     C_3   0.286773 0.767848 0.714838 0.703359
C29   C     C_R   0.311701 0.975083 0.417108 -0.118106
C30   C     C_R   0.383934 0.065049 0.421789 -0.054562
C31   C     C_R   0.652586 0.882272 0.534711 -0.165521
C32   C     C_R   0.406929 0.762352 0.492068 -0.229691
C33   C     C_R   0.610100 0.195405 0.478606 0.009205
C34   C     C_3   0.369412 0.280253 0.159275 -0.397167
C35   C     C_3   0.339083 0.860037 0.784723 -0.217681
C36   C     C_3   0.917897 0.261690 0.337060 0.332147
C37   C     C_3   0.849778 0.158141 0.308397 -0.230129
C38   C     C_3   0.793389 0.678026 0.740720 0.354577
C39   C     C_3   0.868551 0.725269 0.838261 0.134828
C40   C     C_3   0.664567 0.846910 0.298458 -0.260412
C41   C     C_3   0.523875 0.882602 0.822923 -0.478561
C42   C     C_3   0.958100 0.108707 0.250173 -0.379583
C43   C     C_3   0.084979 0.275456 0.834904 -0.305771
C44   C     C_3   0.080077 0.703752 0.171585 -0.290971
C45   C     C_3   0.066908 0.183807 0.769518 0.373927
C46   C     C_3   0.759802 0.487541 0.982434 -0.321236
C47   C     C_3   0.412092 0.672427 0.910435 -0.348981
C48   C     C_3   0.314633 0.671506 0.506614 -0.206853
C49   C     C_3   0.105121 0.109265 0.822189 -0.347928
C50   C     C_3   0.599058 0.223262 0.736768 0.427672
C51   C     C_3   0.580435 0.129200 0.764029 0.178556
C52   C     C_R   0.370320 0.545469 0.172165 -0.010219
H1    H     H_    0.310428 0.918638 0.753110 0.084471
H2    H     H_    0.978448 0.778536 0.837649 0.081795
H3    H     H_    0.776107 0.759564 0.870465 0.046937
H4    H     H_    0.449819 0.741483 0.245287 -0.068263
H5    H     H_    0.455455 0.878231 0.163599 0.082402
H6    H     H_    0.292933 0.324764 0.286927 0.015024
H7    H     H_    0.504646 0.374158 0.278431 0.060694
H8    H     H_    0.270958 0.217484 0.140462 0.118474
H9    H     H_    0.325371 0.335663 0.128124 0.062769
H10   H     H_    0.482802 0.265294 0.132306 0.127871
H11   H     H_    0.414816 0.767330 0.090483 0.094874
H12   H     H_    0.267350 0.858984 0.841785 0.111254
H13   H     H_    0.161522 0.862377 0.110712 0.072617
H14   H     H_    0.936297 0.161284 0.735241 0.011152
H15   H     H_    0.233019 0.128428 0.861452 0.108038
H16   H     H_    0.015590 0.099204 0.869879 0.125158
H17   H     H_    0.094344 0.043094 0.774198 0.098882
H18   H     H_    0.730912 0.246011 0.730267 -0.118378
H19   H     H_    0.519459 0.215435 0.669774 0.021629
H20   H     H_    0.620202 0.079861 0.711785 0.028887
H21   H     H_    0.447949 0.102552 0.766692 0.059370
H22   H     H_    0.327307 0.521277 0.303312 0.054019
H23   H     H_    0.827312 0.294817 0.371993 -0.013209
H24   H     H_    0.520695 0.607445 0.046374 0.102595
H25   H     H_    0.923204 0.409230 0.088452 0.083193
H26   H     H_    0.880899 0.463461 0.695648 0.044856
H27   H     H_    0.184954 0.955018 0.383137 0.097021
H28   H     H_    0.779734 0.901204 0.568062 0.099549
H29   H     H_    0.253174 0.819012 0.260355 -0.037575
H30   H     H_    0.819383 0.303273 0.535498 0.064423
H31   H     H_    0.885434 0.038528 0.579951 0.070601
H32   H     H_    0.309238 0.106408 0.389168 0.101326
H33   H     H_    0.956758 0.860546 0.140166 0.124107
H34   H     H_    0.036068 0.272684 0.384632 0.069255
H35   H     H_    0.132439 0.941338 0.208212 0.095427
H36   H     H_    0.397983 0.749378 0.688968 -0.061895
H37   H     H_    0.587891 0.897857 0.320740 0.035270
H38   H     H_    0.706643 0.815352 0.356373 0.140289
H39   H     H_    0.773578 0.884344 0.275849 0.136684
H40   H     H_    0.557734 0.829387 0.860107 0.124283
H41   H     H_    0.598337 0.887727 0.767475 0.153876
H42   H     H_    0.552868 0.949674 0.871089 0.166136
H43   H     H_    0.954250 0.131090 0.183810 0.152224
H44   H     H_    0.088482 0.123283 0.285353 0.122992
H45   H     H_    0.722040 0.146600 0.269639 0.128603
H46   H     H_    0.910834 0.033434 0.237300 0.107626
H47   H     H_    0.965769 0.697386 0.950529 0.298443
H48   H     H_    0.062873 0.329163 0.795518 0.071133
H49   H     H_    0.992983 0.270689 0.881955 0.093331
H50   H     H_    0.212246 0.296118 0.874896 0.134684
H51   H     H_    0.101173 0.653498 0.215387 0.095091
H52   H     H_    0.948295 0.687144 0.138232 0.151048
H53   H     H_    0.159575 0.697255 0.118329 0.037179
H54   H     H_    0.617799 0.157766 0.895470 0.316830
H55   H     H_    0.688292 0.422567 0.994142 0.107811
H56   H     H_    0.843406 0.127333 0.369688 0.063381
H57   H     H_    0.820485 0.534434 0.046286 0.139151
H58   H     H_    0.674039 0.527717 0.952261 0.138178
H59   H     H_    0.328193 0.722834 0.910095 0.131752
H60   H     H_    0.521506 0.709160 0.961463 0.071293
H61   H     H_    0.468680 0.660099 0.849357 0.149431
H62   H     H_    0.357691 0.652601 0.570495 0.085702
H63   H     H_    0.190275 0.675296 0.522166 0.184657
H64   H     H_    0.315114 0.615074 0.449132 0.117384
H65   H     H_    0.220180 0.827730 0.615966 0.257131
H66   H     H_    0.890455 0.651451 0.705900 0.043866
H67   H     H_    0.691005 0.620285 0.740904 0.024164
H68   H     H_    0.618155 0.838939 0.108205 0.120993
O1    O     O_2   0.826460 0.445380 0.275370 -0.442945
O2    O     O_2   0.186346 0.177980 0.537229 -0.479315
O3    O     O_3   0.179968 0.192719 0.708206 -0.577187
O4    O     O_3   0.098920 0.448470 0.388920 -0.514873
O5    O     O_3   0.590770 0.611390 0.551120 -0.506002
O6    O     O_2   0.326540 0.275010 0.446300 -0.464419
O7    O     O_3   0.465898 0.239712 0.299683 -0.652917
O8    O     O_2   0.477678 0.449851 0.819233 -0.477282
O9    O     O_3   0.548160 0.286502 0.802029 -0.593439
O10   O     O_3   0.628660 0.613390 0.338240 -0.472817
O11   O     O_2   0.705759 0.540690 0.182166 -0.486181
O12   O     O_3   0.730610 0.744336 0.698973 -0.680570
O13   O     O_3   0.943302 0.298420 0.259935 -0.638468
O14   O     O_3   0.661572 0.708044 0.193445 -0.579248
O15   O     O_2   0.863170 0.725020 0.553760 -0.396717
O16   O     O_3   0.060910 0.661460 0.386100 -0.488135
O17   O     O_2   0.994756 0.820184 0.462651 -0.466021
O18   O     O_3   0.914864 0.661658 0.889182 -0.787696
O19   O     O_3   0.680300 0.134378 0.847685 -0.748633
O20   O     O_3   0.166353 0.780374 0.646638 -0.725355
O21   O     O_3   0.015756 0.807838 0.294152 -0.578183
O22   O     O_2   0.363260 0.554650 0.724690 -0.493447
O23   O     O_3   0.090800 0.551610 0.611090 -0.501265
O24   O     O_3   0.561050 0.386690 0.661770 -0.476835
O25   O     O_3   0.213846 0.700495 0.758679 -0.650658
O26   O     O_3   0.598950 0.388690 0.448890 -0.479057
O27   O     O_3   0.128800 0.338610 0.613910 -0.466325
P1    P     P_3+3 0.996570 0.418570 0.288410 0.978584
P2    P     P_3+3 0.693070 0.712070 0.580610 0.998317
P3    P     P_3+3 0.101828 0.780101 0.395922 0.957319
P4    P     P_3+3 0.193140 0.581510 0.711600 0.985385
P5    P     P_3+3 0.086544 0.219519 0.607391 0.961860
P6    P     P_3+3 0.588349 0.601248 0.220642 0.956881
P7    P     P_3+3 0.502887 0.272826 0.418106 0.930057
P8    P     P_3+3 0.604646 0.396663 0.778956 0.975668

loop_
_geom_bond_atom_site_label_1
_geom_bond_atom_site_label_2
_ccdc_geom_bond_type
C47   H59   S    
C2    C14   A    
O2    P5    D    
C48   H63   S    
Ba2   O22   S    
Ba1   O23   S    
C51   H20   S    
C28   H36   S    
Ba1   O10   S    
C23   O7    S    
O10   P6    S    
C6    C46   S    
C28   O25   S    
O24   P8    S    
C1    H11   S    
C50   C51   S    
Ba2   O23   S    
C38   H67   S    
C24   C25   A    
C47   H61   S    
O8    P8    D    
C26   C27   A    
C22   C24   A    
C40   H37   S    
C8    C13   A    
C36   C37   S    
C19   C31   A    
Ba2   O26   S    
C40   H39   S    
C44   H51   S    
O17   P3    D    
C41   H40   S    
Ba1   Ba2   S    
C42   H43   S    
O22   P4    D    
O9    P8    S    
C39   O18   S    
C43   H49   S    
O5    P2    S    
C42   H44   S    
C37   H56   S    
C12   H4    S    
O26   P7    S    
C6    C7    A    
C15   H22   S    
C41   H41   S    
C21   C22   A    
Ba1   P2    S    
C23   H6    S    
C34   H9    S    
C7    C8    A    
C40   H38   S    
C1    H68   S    
C12   C40   S    
C18   C32   A    
Ba2   O5    S    
Ba2   O27   S    
C13   C47   S    
C46   H55   S    
O1    P1    D    
C48   H64   S    
C44   H53   S    
C16   H35   S    
C51   H21   S    
C49   H17   S    
C34   H8    S    
H54   O19   S    
H47   O18   S    
C45   O3    S    
C18   C27   A    
C43   C45   S    
C4    C16   S    
C32   C48   S    
C5    C6    A    
Ba1   O4    S    
C46   H58   S    
C50   H19   S    
C52   P6    S    
C3    C5    A    
O14   P6    S    
C22   H31   S    
C45   C49   S    
C19   C32   A    
O16   P3    S    
C16   H13   S    
C38   O12   S    
C18   P3    S    
C28   C35   S    
C36   H34   S    
C20   H30   S    
C35   C41   S    
O27   P5    S    
Ba1   O1    S    
C39   H2    S    
C50   H18   S    
C43   H50   S    
C9    C14   A    
C37   H45   S    
C29   C30   A    
C8    C17   A    
C30   H32   S    
C35   H12   S    
C48   H62   S    
C41   H42   S    
Ba1   P1    S    
C23   H7    S    
C36   O13   S    
C33   P7    S    
C3    H26   S    
C7    C9    A    
C1    C12   S    
O4    P1    S    
C5    P8    S    
C2    C15   A    
Ba2   O4    S    
O21   P3    S    
C49   H16   S    
C26   C31   A    
Ba2   P4    S    
C11   C13   A    
C17   P4    S    
C45   H14   S    
Ba1   O15   S    
O3    P5    S    
C31   H28   S    
C11   H24   S    
C38   C39   S    
C4    H29   S    
C4    C44   S    
C38   H66   S    
C25   C30   A    
O11   P6    D    
C50   O9    S    
Ba1   O5    S    
C28   O20   S    
O7    P7    S    
C9    C10   A    
C37   C42   S    
C3    C17   A    
C36   H23   S    
Ba2   O24   S    
O13   P1    S    
C2    P1    S    
C24   C26   A    
C16   H33   S    
C29   H27   S    
C14   H25   S    
C25   C33   A    
C20   C33   A    
O23   P4    S    
C27   C29   A    
C42   H46   S    
C12   O14   S    
O12   P2    S    
C44   H52   S    
C47   H60   S    
C51   O19   S    
C19   P2    S    
O25   P4    S    
C43   H48   S    
O6    P7    D    
C23   C34   S    
C39   H3    S    
C35   H1    S    
C46   H57   S    
C10   C11   A    
C21   P5    S    
H65   O20   S    
C20   C21   A    
O15   P2    D    
Ba1   O26   S    
C49   H15   S    
C4    O21   S    
C34   H10   S    
C15   C52   A    
C10   C52   A    
Ba1   O16   S    
Ba2   O6    S    
C1    H5    S    
