data_mof_unit_42063.cif
_audit_creation_date              2012-12-10T16:57:09-0500
_audit_creation_method            fapswitch 2.2
_symmetry_space_group_name_H-M    P1
_symmetry_Int_Tables_number       1
_space_group_crystal_system       triclinic
_cell_length_a                    7.771343
_cell_length_b                    8.562957
_cell_length_c                    16.824143
_cell_angle_alpha                 90.695895
_cell_angle_beta                  81.5272
_cell_angle_gamma                 93.378578
_cell_volume                      1105.42339585

loop_
_atom_site_label
_atom_site_type_symbol
_atom_type_description
_atom_site_fract_x
_atom_site_fract_y
_atom_site_fract_z
_atom_type_partial_charge
C1    C     C_R   0.545962 0.794672 0.498008 0.964351
C2    C     C_R   0.430875 0.600742 0.224132 -0.242524
C3    C     C_R   0.696375 0.528995 0.830404 0.336041
C4    C     C_R   0.451246 0.613701 0.140875 0.436890
C5    C     C_R   0.613562 0.651997 0.874258 -0.083438
C6    C     C_R   0.583137 0.530900 0.092996 -0.125090
C7    C     C_R   0.482424 0.727969 0.841678 0.443850
C8    C     C_R   0.685301 0.430445 0.130936 0.356870
C9    C     C_R   0.417759 0.662234 0.774670 -0.175112
C10   C     C_R   0.660705 0.420829 0.213982 -0.231316
C11   C     C_2   0.626500 0.664835 0.960745 0.009643
C12   C     C_R   0.454008 0.205328 0.502269 0.967988
C13   C     C_2   0.601984 0.533137 0.004902 -0.046680
C14   C     C_2   0.570299 0.958030 0.497062 -0.354147
C15   C     C_2   0.429622 0.041972 0.503656 -0.348177
C16   C     C_R   0.479615 0.501013 0.653788 0.920269
C17   C     C_R   0.521482 0.499253 0.346376 0.920175
C18   C     C_R   0.487951 0.528310 0.738115 -0.108834
C19   C     C_R   0.535295 0.505422 0.260095 -0.167104
C20   C     C_R   0.622499 0.459149 0.768342 -0.251802
H1    H     H_    0.589168 0.420291 0.975515 0.194981
H2    H     H_    0.325289 0.723810 0.746266 0.215262
H3    H     H_    0.562886 0.128015 0.905327 0.407498
H4    H     H_    0.664545 0.114503 0.064725 0.379532
H5    H     H_    0.128556 0.682745 0.013849 0.438964
H6    H     H_    0.013212 0.373518 0.726636 0.365123
H7    H     H_    0.636721 0.778095 0.989471 0.233447
H8    H     H_    0.703288 0.008685 0.490826 0.184084
H9    H     H_    0.296627 0.991317 0.509941 0.184477
H10   H     H_    0.023214 0.382150 0.439986 0.201470
H11   H     H_    0.976756 0.617689 0.560107 0.210654
H12   H     H_    0.686249 0.362885 0.736081 0.188498
H13   H     H_    0.334226 0.666135 0.261453 0.203306
H14   H     H_    0.738644 0.345499 0.243552 0.203918
N1    N     N_2   0.953500 0.457650 0.478520 -0.170740
N2    N     N_2   0.046500 0.542350 0.521480 -0.165387
O1    O     O_R   0.388470 0.738640 0.505270 -0.615424
O2    O     O_2   0.257031 0.915022 0.927691 -0.161489
O3    O     O_3   0.582578 0.015808 0.911480 -0.501788
O4    O     O_2   0.973374 0.410439 0.023668 -0.152045
O5    O     O_2   0.939113 0.228647 0.135546 -0.259093
O6    O     O_3   0.745617 0.176660 0.024545 -0.470493
O7    O     O_2   0.139561 0.740068 0.162242 -0.284639
O8    O     O_2   0.381672 0.887828 0.082117 -0.257007
O9    O     O_3   0.243286 0.641823 0.018020 -0.484365
O10   O     O_2   0.992497 0.597275 0.891614 -0.224788
O11   O     O_2   0.904793 0.319082 0.874930 -0.195827
O12   O     O_R   0.611530 0.261360 0.494730 -0.616789
O13   O     O_3   0.029337 0.480787 0.748064 -0.542950
O14   O     O_R   0.679650 0.711510 0.491500 -0.625196
O15   O     O_R   0.320350 0.288490 0.508500 -0.629381
O16   O     O_R   0.337210 0.515200 0.623500 -0.578592
O17   O     O_R   0.662790 0.484800 0.376500 -0.607870
O18   O     O_R   0.628380 0.488060 0.609730 -0.633513
O19   O     O_R   0.371620 0.511940 0.390270 -0.625035
O20   O     O_2   0.396550 0.006781 0.795976 -0.321455
S1    S     S_3+6 0.423728 0.919727 0.869843 0.089660
S2    S     S_3+6 0.843426 0.311296 0.078554 0.106594
S3    S     S_3+6 0.300481 0.726633 0.101326 0.067679
S4    S     S_3+6 0.909433 0.480004 0.839874 0.075300
Zn1   Zn    Zn3+2 0.305580 0.518120 0.509190 0.980882
Zn2   Zn    Zn3+2 0.694420 0.481880 0.490810 0.970685

loop_
_geom_bond_atom_site_label_1
_geom_bond_atom_site_label_2
_ccdc_geom_bond_type
O1    Zn1   S    
C5    C11   S    
O7    S3    D    
O2    S1    D    
H4    O6    S    
C1    O14   A    
C17   O19   A    
C2    C4    A    
N1    N2    D    
O15   Zn1   S    
C12   C15   S    
C11   H7    S    
C10   C19   A    
C12   O12   A    
O10   S4    D    
C3    S4    S    
O6    S2    S    
C2    C19   A    
C13   H1    S    
C3    C20   A    
C10   H14   S    
C6    C13   S    
C11   C13   D    
O13   S4    S    
H10   N1    S    
H5    O9    S    
H3    O3    S    
O19   Zn1   S    
C4    S3    S    
C4    C6    A    
C17   C19   S    
O5    S2    D    
C15   H9    S    
N1    Zn2   S    
C18   C20   A    
O16   Zn1   S    
C20   H12   S    
O14   Zn2   S    
C16   O18   A    
C9    H2    S    
O4    S2    D    
O8    S3    D    
C14   H8    S    
N2    Zn1   S    
O3    S1    S    
C17   O17   A    
C9    C18   A    
C12   O15   A    
O20   S1    D    
C2    H13   S    
C16   C18   S    
O17   Zn2   S    
H6    O13   S    
C5    C7    A    
C7    C9    A    
H11   N2    S    
O9    S3    S    
C6    C8    A    
C1    C14   S    
O18   Zn2   S    
C8    S2    S    
O11   S4    D    
C14   C15   D    
O12   Zn2   S    
C7    S1    S    
C8    C10   A    
C16   O16   A    
C1    O1    A    
C3    C5    A    
