data_mof_unit_22769.cif
_audit_creation_date              2012-12-11T15:26:36-0500
_audit_creation_method            fapswitch 2.2
_symmetry_space_group_name_H-M    P1
_symmetry_Int_Tables_number       1
_space_group_crystal_system       triclinic
_cell_length_a                    7.225114
_cell_length_b                    11.940927
_cell_length_c                    29.418404
_cell_angle_alpha                 89.999438
_cell_angle_beta                  89.654882
_cell_angle_gamma                 89.996756
_cell_volume                      2538.01378004

loop_
_atom_site_label
_atom_site_type_symbol
_atom_type_description
_atom_site_fract_x
_atom_site_fract_y
_atom_site_fract_z
_atom_type_partial_charge
O1    O     O_R   0.647170 0.849180 0.201220 -0.530760
O2    O     O_R   0.352830 0.150820 0.798780 -0.530762
O3    O     O_R   0.352830 0.150820 0.701220 -0.535882
O4    O     O_R   0.647170 0.849180 0.298780 -0.535865
O5    O     O_R   0.147170 0.650820 0.298780 -0.535861
O6    O     O_R   0.852830 0.349180 0.701220 -0.535862
O7    O     O_R   0.852830 0.349180 0.798780 -0.530758
O8    O     O_R   0.147170 0.650820 0.201220 -0.530761
O9    O     O_R   0.317430 0.862210 0.298450 -0.531933
O10   O     O_R   0.682570 0.137790 0.701550 -0.531921
O11   O     O_R   0.682570 0.137790 0.798450 -0.536965
O12   O     O_R   0.317430 0.862210 0.201550 -0.536966
O13   O     O_R   0.817430 0.637790 0.201550 -0.536964
O14   O     O_R   0.182570 0.362210 0.798450 -0.536964
O15   O     O_R   0.182570 0.362210 0.701550 -0.531920
O16   O     O_R   0.817430 0.637790 0.298450 -0.531932
H1    H     H_    0.094056 0.226903 0.455129 0.151055
H2    H     H_    0.905906 0.773105 0.544883 0.151058
H3    H     H_    0.099299 0.772832 0.955536 0.151288
H4    H     H_    0.900563 0.227220 0.044453 0.151287
H5    H     H_    0.400777 0.272847 0.044460 0.151292
H6    H     H_    0.599331 0.727198 0.955549 0.151290
H7    H     H_    0.405677 0.726950 0.544876 0.151051
H8    H     H_    0.593900 0.273124 0.455116 0.151065
C1    C     C_R   0.485232 0.887650 0.313425 0.693862
C2    C     C_R   0.514766 0.112352 0.686574 0.693883
C3    C     C_R   0.513985 0.112097 0.813296 0.693144
C4    C     C_R   0.486015 0.887903 0.186703 0.693140
C5    C     C_R   0.986021 0.612100 0.186703 0.693140
C6    C     C_R   0.013980 0.387899 0.813298 0.693141
C7    C     C_R   0.014764 0.387653 0.686574 0.693850
C8    C     C_R   0.985238 0.612349 0.313426 0.693855
H9    H     H_    0.031756 0.609720 0.689318 0.106440
H10   H     H_    0.968407 0.390286 0.310687 0.106439
H11   H     H_    0.007424 0.390337 0.189639 0.105653
H12   H     H_    0.992585 0.609661 0.810352 0.105643
H13   H     H_    0.492547 0.890338 0.810362 0.105652
H14   H     H_    0.507398 0.109663 0.189648 0.105644
H15   H     H_    0.468450 0.109712 0.310670 0.106427
H16   H     H_    0.531791 0.890288 0.689303 0.106454
O17   O     O_3   0.480630 0.680630 0.250000 -0.376273
O18   O     O_3   0.519370 0.319370 0.750000 -0.376275
O19   O     O_3   0.980630 0.819370 0.250000 -0.376274
O20   O     O_3   0.019370 0.180630 0.750000 -0.376278
V1    V     V_3+5 0.205800 0.762860 0.250000 1.523859
V2    V     V_3+5 0.794200 0.237140 0.750000 1.523853
V3    V     V_3+5 0.705800 0.737140 0.250000 1.523842
V4    V     V_3+5 0.294200 0.262860 0.750000 1.523823
H17   H     H_    0.130032 0.294189 0.530008 0.165355
H18   H     H_    0.869806 0.705803 0.470012 0.165383
H19   H     H_    0.129589 0.705491 0.030473 0.166301
H20   H     H_    0.870288 0.294578 0.969519 0.166302
H21   H     H_    0.370476 0.205510 0.969526 0.166297
H22   H     H_    0.629666 0.794553 0.030481 0.166298
H23   H     H_    0.369588 0.794266 0.470003 0.165383
H24   H     H_    0.629816 0.205858 0.529993 0.165421
C9    C     C_R   0.991409 0.536534 0.352726 -0.058919
C10   C     C_R   0.008607 0.463483 0.647278 -0.058906
C11   C     C_R   0.006322 0.463445 0.852648 -0.058407
C12   C     C_R   0.993679 0.536565 0.147350 -0.058408
C13   C     C_R   0.493662 0.963449 0.147353 -0.058416
C14   C     C_R   0.506338 0.036563 0.852649 -0.058415
C15   C     C_R   0.508588 0.036545 0.647273 -0.058893
C16   C     C_R   0.491384 0.963474 0.352720 -0.058903
C17   C     C_R   0.002246 0.346642 0.381026 -0.015522
C18   C     C_R   0.997840 0.653373 0.618981 -0.015508
C19   C     C_R   0.014254 0.653302 0.880977 -0.014633
C20   C     C_R   0.985718 0.346717 0.119013 -0.014647
C21   C     C_R   0.485754 0.153307 0.119023 -0.014632
C22   C     C_R   0.514246 0.846714 0.880988 -0.014645
C23   C     C_R   0.497748 0.846658 0.618970 -0.015524
C24   C     C_R   0.502208 0.153372 0.381009 -0.015499
C25   C     C_R   0.982369 0.421569 0.345132 -0.175222
C26   C     C_R   0.017738 0.578443 0.654874 -0.175247
C27   C     C_R   0.999808 0.578395 0.844934 -0.175585
C28   C     C_R   0.000190 0.421613 0.155058 -0.175580
C29   C     C_R   0.500182 0.078398 0.155066 -0.175578
C30   C     C_R   0.499795 0.921612 0.844942 -0.175579
C31   C     C_R   0.517716 0.921578 0.654863 -0.175272
C32   C     C_R   0.482367 0.078437 0.345117 -0.175246
C33   C     C_R   0.007778 0.578837 0.397291 -0.063933
C34   C     C_R   0.992159 0.421194 0.602713 -0.063910
C35   C     C_R   0.015007 0.421038 0.897338 -0.062711
C36   C     C_R   0.984986 0.578986 0.102662 -0.062701
C37   C     C_R   0.484982 0.921042 0.102663 -0.062709
C38   C     C_R   0.515044 0.078983 0.897337 -0.062703
C39   C     C_R   0.492045 0.078853 0.602711 -0.063894
C40   C     C_R   0.507706 0.921183 0.397288 -0.063946
C41   C     C_R   0.000744 0.503952 0.435308 0.044419
C42   C     C_R   0.999222 0.496073 0.564698 0.044434
C43   C     C_R   0.005057 0.496040 0.935297 0.044814
C44   C     C_R   0.994910 0.503997 0.064699 0.044802
C45   C     C_R   0.494950 0.996041 0.064703 0.044828
C46   C     C_R   0.505106 0.003996 0.935302 0.044814
C47   C     C_R   0.499055 0.003980 0.564692 0.044392
C48   C     C_R   0.500626 0.996079 0.435301 0.044429
C49   C     C_R   0.018061 0.387211 0.426029 0.076947
C50   C     C_R   0.981954 0.612809 0.573978 0.076939
C51   C     C_R   0.024442 0.612732 0.926084 0.076497
C52   C     C_R   0.975509 0.387303 0.073908 0.076488
C53   C     C_R   0.475585 0.112737 0.073915 0.076493
C54   C     C_R   0.524465 0.887297 0.926093 0.076489
C55   C     C_R   0.481792 0.887237 0.573970 0.076953
C56   C     C_R   0.517956 0.112815 0.426016 0.076960
C57   C     C_R   0.983899 0.539083 0.482025 0.061111
C58   C     C_R   0.016032 0.460928 0.517983 0.061120
C59   C     C_R   0.984703 0.461005 0.981952 0.060997
C60   C     C_R   0.015244 0.539041 0.018043 0.061006
C61   C     C_R   0.515301 0.961003 0.018048 0.061010
C62   C     C_R   0.484785 0.039043 0.981956 0.061016
C63   C     C_R   0.515853 0.039118 0.517975 0.061120
C64   C     C_R   0.483735 0.960961 0.482018 0.061111
C65   C     C_R   0.072506 0.352018 0.505901 -0.167473
C66   C     C_R   0.927402 0.647985 0.494110 -0.167521
C67   C     C_R   0.073161 0.647796 0.006179 -0.166638
C68   C     C_R   0.926746 0.352258 0.993815 -0.166633
C69   C     C_R   0.426895 0.147808 0.993820 -0.166642
C70   C     C_R   0.573220 0.852244 0.006186 -0.166630
C71   C     C_R   0.427202 0.852069 0.494104 -0.167504
C72   C     C_R   0.572310 0.148024 0.505891 -0.167539
C73   C     C_R   0.060810 0.313951 0.461578 -0.193485
C74   C     C_R   0.939153 0.686060 0.538432 -0.193519
C75   C     C_R   0.064745 0.685899 0.961827 -0.194192
C76   C     C_R   0.935156 0.314148 0.038165 -0.194162
C77   C     C_R   0.435313 0.185910 0.038171 -0.194219
C78   C     C_R   0.564782 0.814134 0.961837 -0.194190
C79   C     C_R   0.438948 0.813992 0.538426 -0.193466
C80   C     C_R   0.560655 0.186080 0.461564 -0.193528
C81   C     C_1   0.003393 0.228186 0.370626 0.273904
N1    N     N_1   0.004061 0.133433 0.362335 -0.334539
C82   C     C_1   0.996723 0.771828 0.629381 0.273902
N2    N     N_1   0.996077 0.866581 0.637671 -0.334585
C83   C     C_1   0.017427 0.771748 0.870561 0.274025
N3    N     N_1   0.019693 0.866488 0.862257 -0.334120
C84   C     C_1   0.982541 0.228267 0.129422 0.274033
N4    N     N_1   0.980272 0.133526 0.137722 -0.334109
C85   C     C_1   0.482574 0.271753 0.129437 0.274019
N5    N     N_1   0.480302 0.366493 0.137740 -0.334116
C86   C     C_1   0.517393 0.728265 0.870580 0.274025
N6    N     N_1   0.519640 0.633523 0.862281 -0.334108
C87   C     C_1   0.496660 0.728198 0.629364 0.273912
N7    N     N_1   0.496038 0.633442 0.637651 -0.334555
C88   C     C_1   0.503392 0.271825 0.370602 0.273902
N8    N     N_1   0.504092 0.366576 0.362306 -0.334556
C89   C     C_1   0.944759 0.303663 0.598149 0.288207
N9    N     N_1   0.907546 0.209699 0.595012 -0.358164
C90   C     C_1   0.054855 0.696415 0.401850 0.288102
N10   N     N_1   0.091765 0.790426 0.404979 -0.358100
C91   C     C_1   0.940249 0.696862 0.097818 0.285122
N11   N     N_1   0.905216 0.791104 0.094518 -0.357629
C92   C     C_1   0.059750 0.303165 0.902189 0.285138
N12   N     N_1   0.094785 0.208924 0.905496 -0.357615
C93   C     C_1   0.559779 0.196856 0.902178 0.285121
N13   N     N_1   0.594804 0.291097 0.905475 -0.357640
C94   C     C_1   0.440237 0.803172 0.097814 0.285136
N14   N     N_1   0.405203 0.708933 0.094509 -0.357628
C95   C     C_1   0.554815 0.803609 0.401860 0.288132
N15   N     N_1   0.591758 0.709603 0.405001 -0.358082
C96   C     C_1   0.444797 0.196411 0.598160 0.288158
N16   N     N_1   0.407755 0.290405 0.595035 -0.358134

loop_
_geom_bond_atom_site_label_1
_geom_bond_atom_site_label_2
_ccdc_geom_bond_type
C24   C88   S    
H17   C65   S    
C40   C48   A    
O9    V1    S    
C95   N15   T    
C22   C30   A    
C16   C32   A    
C21   C29   A    
C90   N10   T    
C23   C31   A    
O4    C1    A    
O9    C1    A    
C84   N4    T    
C15   C31   A    
C14   C38   A    
H3    C75   S    
O12   C4    A    
O8    C5    A    
C8    C9    S    
C60   C67   A    
O13   C5    A    
C19   C83   S    
C38   C93   S    
C11   C35   A    
C18   C82   S    
C10   C34   A    
O6    V2    S    
H21   C69   S    
H6    C78   S    
C88   N8    T    
C18   C26   A    
O3    V4    S    
C17   C25   A    
O16   V3    S    
C37   C94   S    
C9    C25   A    
O8    V1    S    
C49   C73   A    
C38   C46   A    
C37   C45   A    
C44   C60   A    
C63   C64   A    
C47   C55   A    
C33   C90   S    
C39   C47   A    
O10   V2    S    
O1    C4    A    
C53   C77   A    
C92   N12   T    
O16   C8    A    
O2    C3    A    
C55   C79   A    
C19   C51   A    
C23   C87   S    
O5    C8    A    
C33   C41   A    
C4    C13   S    
O10   C2    A    
O6    C7    A    
C22   C86   S    
O7    C6    A    
H24   C72   S    
H12   C27   S    
C87   N7    T    
O15   V4    S    
O14   C6    A    
C62   C69   A    
O20   V2    S    
C61   C70   A    
C89   N9    T    
C35   C92   S    
H20   C68   S    
C21   C85   S    
H11   C28   S    
C67   C75   A    
C58   C65   A    
O7    V2    S    
C43   C59   A    
C57   C66   A    
C42   C58   A    
C45   C53   A    
O13   V3    S    
C44   C52   A    
O1    V3    S    
O14   V4    S    
C24   C56   A    
O2    V4    S    
O5    V1    S    
C46   C62   A    
H19   C67   S    
C41   C49   A    
C63   C72   A    
H18   C66   S    
C1    C16   S    
C7    C10   S    
C2    C15   S    
C20   C52   A    
C3    C14   S    
C48   C64   A    
C96   N16   T    
C56   C80   A    
C5    C12   S    
O11   C3    A    
C59   C60   A    
C39   C96   S    
C6    C11   S    
C22   C54   A    
O17   V3    S    
H16   C31   S    
O18   V4    S    
C40   C95   S    
C36   C44   A    
O19   V1    S    
C13   C37   A    
H2    C74   S    
H1    C73   S    
C13   C29   A    
C48   C56   A    
C83   N3    T    
C9    C33   A    
C19   C27   A    
H5    C77   S    
C82   N2    T    
C11   C27   A    
C34   C89   S    
C10   C26   A    
H7    C79   S    
C81   N1    T    
C57   C58   A    
C51   C75   A    
C50   C74   A    
C23   C55   A    
C16   C40   A    
C68   C76   A    
C15   C39   A    
C14   C30   A    
O3    C2    A    
O12   V1    S    
C54   C78   A    
C64   C71   A    
C17   C81   S    
C86   N6    T    
C72   C80   A    
O15   C7    A    
H14   C29   S    
C21   C53   A    
C20   C28   A    
C35   C43   A    
C85   N5    T    
C34   C42   A    
C43   C51   A    
H15   C32   S    
C18   C50   A    
H22   C70   S    
C17   C49   A    
C24   C32   A    
C47   C63   A    
C91   N11   T    
C36   C91   S    
C12   C36   A    
C20   C84   S    
C12   C28   A    
C59   C68   A    
H4    C76   S    
H10   C25   S    
C66   C74   A    
H9    C26   S    
H23   C71   S    
C65   C73   A    
C46   C54   A    
C41   C57   A    
C94   N14   T    
H8    C80   S    
O11   V2    S    
C70   C78   A    
C52   C76   A    
C93   N13   T    
C61   C62   A    
H13   C30   S    
C69   C77   A    
C42   C50   A    
C45   C61   A    
O4    V3    S    
C71   C79   A    
