data_mof_unit_11172.cif
_audit_creation_date              2012-12-10T20:38:22-0500
_audit_creation_method            fapswitch 2.2
_symmetry_space_group_name_H-M    P1
_symmetry_Int_Tables_number       1
_space_group_crystal_system       triclinic
_cell_length_a                    9.93806
_cell_length_b                    10.785363
_cell_length_c                    17.129477
_cell_angle_alpha                 93.629757
_cell_angle_beta                  84.511242
_cell_angle_gamma                 88.379279
_cell_volume                      1822.85857049

loop_
_atom_site_label
_atom_site_type_symbol
_atom_type_description
_atom_site_fract_x
_atom_site_fract_y
_atom_site_fract_z
_atom_type_partial_charge
C1    C     C_R   0.497980 0.739215 0.498360 0.903101
C2    C     C_R   0.349834 0.459512 0.784133 -0.047693
C3    C     C_R   0.413307 0.420063 0.149139 0.070792
C4    C     C_R   0.407444 0.478502 0.224218 0.100046
C5    C     C_R   0.654494 0.489997 0.213010 -0.166396
C6    C     C_R   0.658993 0.439321 0.134491 -0.102184
C7    C     C_R   0.538535 0.400679 0.104632 0.057952
C8    C     C_2   0.481252 0.468555 0.982344 -0.189153
C9    C     C_2   0.535963 0.378389 0.020184 -0.121537
C10   C     C_R   0.528273 0.496596 0.260242 -0.147133
C11   C     C_R   0.388391 0.943323 0.530121 -0.030770
C12   C     C_R   0.481559 0.487186 0.651600 0.897852
C13   C     C_R   0.492762 0.869685 0.490049 -0.061442
C14   C     C_R   0.593737 0.924836 0.442978 -0.050387
C15   C     C_R   0.613182 0.051958 0.457365 -0.075149
C16   C     C_R   0.504879 0.126272 0.497735 -0.175204
C17   C     C_R   0.388038 0.070375 0.527853 0.132612
C18   C     C_3   0.319890 0.088699 0.610018 -0.111640
C19   C     C_3   0.328648 0.948049 0.613941 -0.321164
C20   C     C_R   0.918092 0.565936 0.557740 0.051654
C21   C     C_R   0.940996 0.423892 0.447068 -0.099694
C22   C     C_R   0.083681 0.416322 0.452669 -0.062194
C23   C     C_R   0.502067 0.259820 0.500522 0.910621
C24   C     C_R   0.059735 0.564104 0.558314 0.116450
C25   C     C_3   0.064769 0.697866 0.584109 -0.151598
C26   C     C_3   0.911542 0.704700 0.579363 0.167274
C27   C     C_R   0.518962 0.504710 0.347176 0.969560
C28   C     C_R   0.474592 0.458134 0.735244 -0.206952
C29   C     C_R   0.597513 0.431241 0.768684 0.036534
C30   C     C_R   0.599194 0.436868 0.849709 0.125273
C31   C     C_R   0.478285 0.457652 0.897849 0.063246
C32   C     C_R   0.353413 0.464555 0.866127 0.041045
H1    H     H_    0.379445 0.143560 0.651053 0.194264
H2    H     H_    0.228697 0.905689 0.620945 0.173462
H3    H     H_    0.124423 0.752040 0.540611 0.185986
H4    H     H_    0.584198 0.295102 0.989532 0.191858
H5    H     H_    0.433673 0.551061 0.014553 0.162754
N1    N     N_R   0.857140 0.500860 0.500530 -0.141196
N2    N     N_R   0.142780 0.500820 0.500530 -0.148101
O1    O     O_R   0.385310 0.683210 0.499990 -0.646451
O2    O     O_R   0.614650 0.683240 0.500000 -0.623943
O3    O     O_R   0.371780 0.500000 0.615800 -0.596943
O4    O     O_R   0.601120 0.500040 0.615800 -0.643805
O5    O     O_R   0.385350 0.316760 0.500000 -0.594150
O6    O     O_R   0.614690 0.316790 0.500010 -0.562225
O7    O     O_R   0.398880 0.499960 0.384200 -0.567736
O8    O     O_R   0.628220 0.500000 0.384200 -0.575147
Zn1   Zn    Zn3+2 0.346870 0.499980 0.499990 1.013367
Zn2   Zn    Zn3+2 0.653130 0.500020 0.500010 0.999349
N3    N     N_3   0.721272 0.390789 0.722507 -0.458684
H6    H     H_    0.769914 0.466666 0.699309 0.203862
H7    H     H_    0.701750 0.323977 0.678434 0.245854
C33   C     C_2   0.785231 0.436297 0.080264 1.003357
O9    O     O_2   0.841272 0.532934 0.065929 -0.596564
O10   O     O_R   0.836885 0.323064 0.043725 -0.797735
H8    H     H_    0.922091 0.332920 0.007400 0.348116
N4    N     N_3   0.674414 0.851595 0.382064 -0.386160
H9    H     H_    0.659707 0.889195 0.328628 0.238597
H10   H     H_    0.776518 0.857431 0.390052 0.234396
C34   C     C_2   0.754139 0.092934 0.452496 1.002233
O11   O     O_2   0.829065 0.074099 0.391728 -0.615070
O12   O     O_R   0.803706 0.145455 0.520343 -0.781929
H11   H     H_    0.902178 0.166667 0.511897 0.363702
N5    N     N_3   0.180628 0.137549 0.610947 -0.355661
H12   H     H_    0.127234 0.082502 0.572820 0.228286
H13   H     H_    0.133075 0.130330 0.667541 0.224106
C35   C     C_2   0.426337 0.906892 0.670311 0.919989
O13   O     O_2   0.391634 0.831938 0.718267 -0.638470
O14   O     O_R   0.555508 0.955665 0.668329 -0.803770
H14   H     H_    0.609552 0.923970 0.710677 0.349863
C36   C     C_2   0.891019 0.353783 0.378130 0.973335
O15   O     O_2   0.776700 0.317421 0.380323 -0.576754
O16   O     O_R   0.978300 0.324511 0.309996 -0.808492
H15   H     H_    0.934764 0.272156 0.268670 0.379826
C37   C     C_2   0.162742 0.305294 0.415919 1.046252
O17   O     O_2   0.254304 0.314724 0.364310 -0.604004
O18   O     O_R   0.125971 0.187446 0.437625 -0.835122
H16   H     H_    0.184677 0.118275 0.407800 0.349506
N6    N     N_3   0.106602 0.716995 0.663506 -0.414382
H17   H     H_    0.059952 0.654719 0.700446 0.226977
H18   H     H_    0.209958 0.694548 0.660117 0.239169
N7    N     N_3   0.280017 0.528577 0.261653 -0.409913
H19   H     H_    0.246325 0.598882 0.228205 0.172714
H20   H     H_    0.208713 0.459396 0.262679 0.249403
N8    N     N_3   0.828772 0.739894 0.653754 -0.401343
H21   H     H_    0.727123 0.735180 0.643156 0.211562
H22   H     H_    0.841547 0.673810 0.694666 0.168593
N9    N     N_3   0.881225 0.783278 0.516045 -0.435816
H23   H     H_    0.873844 0.728760 0.464137 0.209855
H24   H     H_    0.790848 0.834523 0.531232 0.234921
C38   C     C_2   0.776463 0.548448 0.241866 0.986337
O19   O     O_2   0.763376 0.642532 0.285771 -0.639153
O20   O     O_R   0.906393 0.500826 0.216011 -0.785808
H25   H     H_    0.979715 0.551977 0.238110 0.341231
N10   N     N_3   0.229437 0.469750 0.917100 -0.384258
H26   H     H_    0.225934 0.550776 0.954194 0.211568
H27   H     H_    0.227986 0.392779 0.951303 0.205222
N11   N     N_3   0.291611 0.385451 0.115324 -0.455128
H28   H     H_    0.241049 0.322815 0.150886 0.231265
H29   H     H_    0.229190 0.464629 0.113421 0.192922
C39   C     C_2   0.216596 0.440775 0.752491 0.940521
O21   O     O_2   0.208498 0.368598 0.695441 -0.629802
O22   O     O_R   0.098336 0.496601 0.791890 -0.795794
H30   H     H_    0.013911 0.469636 0.767485 0.322642
N12   N     N_3   0.725364 0.425911 0.883721 -0.427448
H31   H     H_    0.771234 0.339207 0.865244 0.215700
H32   H     H_    0.788484 0.495082 0.863010 0.220314

loop_
_geom_bond_atom_site_label_1
_geom_bond_atom_site_label_2
_ccdc_geom_bond_type
C10   C27   S    
O10   H8    S    
O20   H25   S    
C23   O6    A    
C15   C34   S    
N10   H26   S    
O8    Zn2   S    
N1    Zn2   S    
O18   H16   S    
N12   H32   S    
C11   C19   S    
O12   H11   S    
C21   C36   S    
C34   O12   S    
C28   C29   A    
C12   O4    A    
C3    C7    A    
C5    C6    A    
N4    H10   S    
C15   C16   A    
C24   N2    A    
C2    C32   A    
C18   C19   S    
O16   H15   S    
C12   O3    A    
C1    O1    A    
C21   N1    A    
C20   C24   A    
C8    C9    D    
C9    H4    S    
N3    H7    S    
C19   C35   S    
N8    H22   S    
C39   O22   S    
C21   C22   A    
C22   C37   S    
O2    Zn2   S    
C17   C18   S    
C29   N3    S    
C33   O10   S    
O7    Zn1   S    
C35   O13   D    
C39   O21   D    
C24   C25   S    
C38   O19   D    
N6    H18   S    
O4    Zn2   S    
C2    C39   S    
C25   C26   S    
N8    H21   S    
C23   O5    A    
C34   O11   D    
C35   O14   S    
N5    H13   S    
C37   O17   D    
C29   C30   A    
C38   O20   S    
C20   N1    A    
C31   C32   A    
O6    Zn2   S    
C30   C31   A    
N3    H6    S    
O3    Zn1   S    
C37   O18   S    
C5    C38   S    
C25   H3    S    
C27   O7    A    
C1    O2    A    
N9    H24   S    
N11   H28   S    
C16   C23   S    
N7    H20   S    
C30   N12   S    
C1    C13   S    
C8    H5    S    
C6    C33   S    
C4    C10   A    
C3    C4    A    
C36   O16   S    
C27   O8    A    
O1    Zn1   S    
C14   N4    S    
C11   C17   A    
C25   N6    S    
C8    C31   S    
C19   H2    S    
N10   H27   S    
C33   O9    D    
C6    C7    A    
N12   H31   S    
N11   H29   S    
N5    H12   S    
C36   O15   D    
C11   C13   A    
C3    N11   S    
C18   N5    S    
N4    H9    S    
C16   C17   A    
C20   C26   S    
C26   N8    S    
C22   N2    A    
O14   H14   S    
C18   H1    S    
N6    H17   S    
C7    C9    S    
C5    C10   A    
C32   N10   S    
C4    N7    S    
N9    H23   S    
C12   C28   S    
C26   N9    S    
N7    H19   S    
O22   H30   S    
C14   C15   A    
C2    C28   A    
C13   C14   A    
O5    Zn1   S    
N2    Zn1   S    
