data_mof_unit_45532.cif
_audit_creation_date              2013-03-05T16:45:09-0500
_audit_creation_method            fapswitch 2.2
_symmetry_space_group_name_H-M    P1
_symmetry_Int_Tables_number       1
_space_group_crystal_system       triclinic
_cell_length_a                    14.838591
_cell_length_b                    15.405986
_cell_length_c                    9.946815
_cell_angle_alpha                 89.773169
_cell_angle_beta                  89.059091
_cell_angle_gamma                 89.336641
_cell_volume                      2273.39786057

loop_
_atom_site_label
_atom_site_type_symbol
_atom_site_description
_atom_site_fract_x
_atom_site_fract_y
_atom_site_fract_z
_atom_type_partial_charge
O1    O     O_R   0.408400 0.908380 0.614690 -0.584072
O2    O     O_R   0.408400 0.091620 0.614690 -0.554532
O3    O     O_R   0.908400 0.408380 0.614690 -0.584071
O4    O     O_R   0.908400 0.591620 0.614690 -0.554535
O5    O     O_R   0.408370 0.908370 0.385350 -0.599481
O6    O     O_R   0.408370 0.091630 0.385350 -0.613843
O7    O     O_R   0.908370 0.408370 0.385350 -0.599484
O8    O     O_R   0.908370 0.591630 0.385350 -0.613844
C1    C     C_R   0.384241 0.876718 0.500509 0.936014
C2    C     C_R   0.388997 0.127019 0.499325 0.930121
C3    C     C_R   0.884241 0.376717 0.500509 0.936011
C4    C     C_R   0.888996 0.627018 0.499324 0.930113
Zn1   Zn    Zn3+2 0.500010 0.000000 0.653130 1.054839
Zn2   Zn    Zn3+2 0.000010 0.500000 0.653130 1.054841
Zn3   Zn    Zn3+2 0.499980 0.000000 0.346870 1.019947
Zn4   Zn    Zn3+2 0.999980 0.500000 0.346870 1.019946
O9    O     O_R   0.591610 0.091610 0.614650 -0.615541
O10   O     O_R   0.591610 0.908390 0.614650 -0.608765
O11   O     O_R   0.091610 0.591610 0.614650 -0.615534
O12   O     O_R   0.091610 0.408390 0.614650 -0.608764
O13   O     O_R   0.591590 0.091600 0.385310 -0.601005
O14   O     O_R   0.591590 0.908400 0.385310 -0.581405
O15   O     O_R   0.091590 0.591600 0.385310 -0.601005
O16   O     O_R   0.091590 0.408400 0.385310 -0.581413
C5    C     C_R   0.620013 0.119691 0.499321 0.881323
C6    C     C_R   0.621528 0.881142 0.499483 0.893305
C7    C     C_R   0.120013 0.619691 0.499322 0.881317
C8    C     C_R   0.121529 0.381142 0.499483 0.893298
C9    C     C_R   0.313828 0.246670 0.615728 0.103259
C10   C     C_R   0.271678 0.791108 0.616278 0.064589
C11   C     C_R   0.813825 0.746666 0.615727 0.103253
C12   C     C_R   0.771680 0.291105 0.616278 0.064609
C13   C     C_R   0.340363 0.208160 0.495022 -0.168165
C14   C     C_R   0.322835 0.806212 0.500595 -0.154996
C15   C     C_R   0.840359 0.708157 0.495021 -0.168153
C16   C     C_R   0.822838 0.306209 0.500596 -0.155017
C17   C     C_R   0.308075 0.241294 0.372024 0.143750
C18   C     C_R   0.308871 0.757742 0.383418 0.153038
C19   C     C_R   0.808069 0.741288 0.372023 0.143749
C20   C     C_R   0.808873 0.257741 0.383416 0.153042
C21   C     C_R   0.731068 0.792593 0.374928 -0.219652
C22   C     C_R   0.738788 0.198994 0.382245 -0.214223
C23   C     C_R   0.231073 0.292597 0.374928 -0.219652
C24   C     C_R   0.238787 0.698994 0.382249 -0.214238
H1    H     H_    0.702200 0.813332 0.280638 0.225690
H2    H     H_    0.729622 0.159670 0.294276 0.249018
H3    H     H_    0.202206 0.313337 0.280637 0.225691
H4    H     H_    0.229624 0.659668 0.294282 0.249021
C25   C     C_R   0.694972 0.820749 0.498180 -0.192480
C26   C     C_R   0.685769 0.186266 0.497789 -0.189952
C27   C     C_R   0.194975 0.320751 0.498179 -0.192484
C28   C     C_R   0.185768 0.686268 0.497791 -0.189940
C29   C     C_R   0.739227 0.801843 0.617796 0.107366
C30   C     C_R   0.701602 0.233546 0.614011 0.040024
C31   C     C_R   0.239229 0.301846 0.617796 0.107370
C32   C     C_R   0.201599 0.733550 0.614013 0.039996
C33   C     C_3   0.783810 0.867991 0.703539 0.054542
C34   C     C_3   0.721388 0.198403 0.750968 0.105591
C35   C     C_3   0.283811 0.367996 0.703535 0.054533
C36   C     C_3   0.221389 0.698408 0.750972 0.105599
C37   C     C_3   0.367582 0.311483 0.694136 -0.045687
C38   C     C_3   0.304417 0.755727 0.748070 -0.062503
C39   C     C_3   0.867580 0.811475 0.694138 -0.045704
C40   C     C_3   0.804417 0.255720 0.748070 -0.062510
H5    H     H_    0.789224 0.933372 0.656149 0.084270
H6    H     H_    0.735293 0.127353 0.754244 0.108071
H7    H     H_    0.289223 0.433376 0.656141 0.084272
H8    H     H_    0.235293 0.627359 0.754246 0.108075
H9    H     H_    0.391114 0.285936 0.791622 0.273073
H10   H     H_    0.308138 0.805779 0.827776 0.221874
H11   H     H_    0.891112 0.785926 0.791622 0.273068
H12   H     H_    0.808138 0.305770 0.827781 0.221872
C41   C     C_R   0.425431 0.975057 0.073846 0.036106
C42   C     C_R   0.925432 0.475053 0.073846 0.036112
N1    N     N_R   0.499140 0.000000 0.142800 -0.143256
N2    N     N_R   0.999140 0.500000 0.142800 -0.143256
C43   C     C_R   0.576958 0.015717 0.067597 0.377887
C44   C     C_R   0.076957 0.515720 0.067598 0.377896
C45   C     C_R   0.575914 0.015286 0.924589 0.024431
C46   C     C_R   0.075914 0.515287 0.924589 0.024459
H13   H     H_    0.636840 0.027811 0.867229 0.167405
H14   H     H_    0.136840 0.527815 0.867230 0.167409
N3    N     N_R   0.499160 0.000000 0.857150 -0.120034
N4    N     N_R   0.999160 0.500000 0.857150 -0.120031
C47   C     C_R   0.424236 0.977383 0.931781 0.010341
C48   C     C_R   0.924237 0.477379 0.931781 0.010337
C49   C     C_3   0.332798 0.022353 0.939039 0.509437
C50   C     C_3   0.832796 0.522343 0.939040 0.509437
C51   C     C_3   0.333443 0.011935 0.091739 -0.513515
C52   C     C_3   0.833442 0.511925 0.091740 -0.513509
H15   H     H_    0.332745 0.073794 0.147761 0.237281
H16   H     H_    0.286577 0.963339 0.134607 0.217159
H17   H     H_    0.832740 0.573785 0.147762 0.237281
H18   H     H_    0.786580 0.463326 0.134610 0.217162
N5    N     N_2   0.353296 0.225299 0.246854 -0.289208
H19   H     H_    0.314171 0.235516 0.163309 0.278019
C53   C     C_3   0.440502 0.266042 0.233696 -0.578845
H20   H     H_    0.432289 0.337844 0.233228 0.233273
H21   H     H_    0.473773 0.245726 0.138003 0.288682
H22   H     H_    0.485043 0.246444 0.317470 0.218334
N6    N     N_2   0.371672 0.761067 0.274071 -0.296073
H23   H     H_    0.421666 0.714121 0.277773 0.229981
C54   C     C_3   0.334652 0.774301 0.142449 -0.636146
H24   H     H_    0.319681 0.711004 0.096642 0.279716
H25   H     H_    0.384820 0.807637 0.078041 0.214278
H26   H     H_    0.272550 0.815016 0.148120 0.279108
N7    N     N_2   0.853289 0.725296 0.246851 -0.289199
H27   H     H_    0.814163 0.735512 0.163308 0.278023
C55   C     C_3   0.940492 0.766044 0.233693 -0.578859
H28   H     H_    0.932279 0.837844 0.233267 0.233261
H29   H     H_    0.973752 0.745752 0.137983 0.288686
H30   H     H_    0.985044 0.746429 0.317442 0.218350
N8    N     N_2   0.871674 0.261069 0.274070 -0.296076
H31   H     H_    0.921683 0.214137 0.277783 0.229982
C56   C     C_3   0.834657 0.274290 0.142444 -0.636157
H32   H     H_    0.819695 0.210989 0.096646 0.279719
H33   H     H_    0.884822 0.307629 0.078034 0.214277
H34   H     H_    0.772550 0.314999 0.148108 0.279119
N9    N     N_R   0.746993 0.871235 0.840906 0.226136
O17   O     O_R   0.671441 0.833634 0.872880 -0.358924
O18   O     O_R   0.789610 0.913969 0.932210 -0.368624
N10   N     N_R   0.651249 0.226598 0.846970 0.242099
O19   O     O_R   0.566916 0.214188 0.820272 -0.354861
O20   O     O_R   0.671953 0.255250 0.965001 -0.374584
N11   N     N_R   0.246995 0.371243 0.840903 0.226134
O21   O     O_R   0.171446 0.333637 0.872881 -0.358917
O22   O     O_R   0.289608 0.413986 0.932200 -0.368637
N12   N     N_R   0.151250 0.726601 0.846976 0.242090
O23   O     O_R   0.066921 0.714146 0.820315 -0.354867
O24   O     O_R   0.171952 0.755297 0.964975 -0.374582
N13   N     N_2   0.439567 0.350710 0.614261 -0.331123
H35   H     H_    0.421157 0.372321 0.520126 0.229941
C57   C     C_3   0.493974 0.412309 0.685210 -0.603319
H36   H     H_    0.552365 0.431193 0.620719 0.246680
H37   H     H_    0.520209 0.383051 0.779186 0.303798
H38   H     H_    0.453506 0.471399 0.710084 0.217514
N14   N     N_2   0.387773 0.705857 0.728721 -0.317678
H39   H     H_    0.386434 0.660219 0.652974 0.224550
C58   C     C_3   0.430006 0.673803 0.849026 -0.682886
H40   H     H_    0.490943 0.634899 0.821252 0.263609
H41   H     H_    0.382936 0.631724 0.906863 0.261012
H42   H     H_    0.452051 0.728952 0.910980 0.253023
N15   N     N_2   0.939566 0.850701 0.614265 -0.331140
H43   H     H_    0.921156 0.872319 0.520133 0.229944
C59   C     C_3   0.993981 0.912291 0.685218 -0.603341
H44   H     H_    0.052371 0.931175 0.620726 0.246681
H45   H     H_    0.020216 0.883024 0.779186 0.303795
H46   H     H_    0.953519 0.971381 0.710105 0.217532
N16   N     N_2   0.887773 0.205849 0.728720 -0.317680
H47   H     H_    0.886434 0.160215 0.652968 0.224552
C60   C     C_3   0.930004 0.173790 0.849023 -0.682885
H48   H     H_    0.990940 0.134885 0.821247 0.263606
H49   H     H_    0.882931 0.131711 0.906856 0.261017
H50   H     H_    0.952051 0.228936 0.910982 0.253024
N17   N     N_R   0.660817 0.034751 0.129646 0.216674
O25   O     O_R   0.694167 0.981530 0.217482 -0.374853
O26   O     O_R   0.715728 0.087866 0.069367 -0.431664
N18   N     N_R   0.160814 0.534757 0.129647 0.216672
O27   O     O_R   0.194171 0.481534 0.217472 -0.374857
O28   O     O_R   0.215718 0.587883 0.069375 -0.431685
N19   N     N_R   0.334292 0.113982 0.900139 0.204140
O29   O     O_R   0.259161 0.152671 0.868457 -0.345773
O30   O     O_R   0.402172 0.161206 0.934396 -0.426325
N20   N     N_R   0.261518 0.974762 0.871329 0.186779
O31   O     O_R   0.192574 0.944946 0.938785 -0.383090
O32   O     O_R   0.257770 0.977300 0.740892 -0.389962
N21   N     N_R   0.834282 0.613971 0.900139 0.204147
O33   O     O_R   0.902156 0.661201 0.934403 -0.426328
O34   O     O_R   0.759150 0.652654 0.868449 -0.345770
N22   N     N_R   0.761519 0.474746 0.871330 0.186771
O35   O     O_R   0.757766 0.477289 0.740894 -0.389957
O36   O     O_R   0.692583 0.444915 0.938789 -0.383116

loop_
_geom_bond_atom_site_label_1
_geom_bond_atom_site_label_2
_geom_bond_distance
_ccdc_geom_bond_type
Zn3   N1    2.030091 S    
N6    H23   1.031048 S    
C31   C35   1.498187 S    
N17   O26   1.299433 A    
N7    C55   1.448504 S    
C50   C52   1.526886 S    
N5    H19   1.032029 S    
O10   C6    1.291651 A    
Zn2   N4    2.029182 S    
C46   N4    1.354673 A    
C40   H12   1.110624 S    
N12   O23   1.299924 A    
C59   H46   1.111188 S    
C53   H20   1.111473 S    
N16   H47   1.033155 S    
C19   C21   1.381758 A    
O7    C3    1.290052 A    
N14   C58   1.442685 S    
C17   N5    1.425581 S    
C26   C30   1.393459 A    
C42   N2    1.360447 A    
Zn1   O10   1.982077 S    
C12   C16   1.388419 A    
N20   O31   1.301433 A    
N4    C48   1.374160 A    
C18   N6    1.421756 S    
C55   H29   1.109490 S    
C59   H44   1.110375 S    
C58   H42   1.107174 S    
C44   C46   1.422857 A    
N22   O35   1.299946 A    
C56   H32   1.104402 S    
C9    C13   1.390421 A    
C38   H10   1.110622 S    
C36   C38   1.523911 S    
C22   H2    1.077586 S    
C60   H50   1.107171 S    
C21   C25   1.398312 A    
O2    Zn1   1.988657 S    
C5    C26   1.423665 S    
C35   H7    1.113591 S    
O6    Zn3   1.982393 S    
C44   N18   1.431908 S    
Zn3   O14   1.988441 S    
C56   H33   1.104069 S    
C57   H38   1.111201 S    
N7    H27   1.032030 S    
N19   O30   1.300061 A    
C33   C39   1.511188 S    
O15   C7    1.294243 A    
O4    C4    1.303596 A    
O11   C7    1.290406 A    
C27   C31   1.396490 A    
C33   N9    1.464009 S    
C56   H34   1.109501 S    
C24   C28   1.396541 A    
N9    O18   1.300531 A    
C49   N20   1.468040 S    
C60   H48   1.110727 S    
O8    Zn4   1.982393 S    
C14   C18   1.406215 A    
N18   O28   1.299426 A    
C41   N1    1.360448 A    
C12   C30   1.374928 A    
C53   H21   1.109522 S    
C34   H6    1.111970 S    
C18   C24   1.386735 A    
C52   H18   1.107124 S    
C43   C45   1.422858 A    
C34   C40   1.523908 S    
C9    C37   1.512118 S    
C35   C37   1.511183 S    
C34   N10   1.464206 S    
C59   H45   1.110423 S    
C47   C49   1.517088 S    
Zn2   O12   1.982077 S    
C36   N12   1.464210 S    
O1    C1    1.295436 A    
C12   C40   1.503584 S    
C46   H14   1.079959 S    
C55   H30   1.110757 S    
C33   H5    1.113589 S    
N21   O33   1.300056 A    
C45   H13   1.079958 S    
C10   C14   1.388418 A    
C2    C13   1.437003 S    
C9    C31   1.387770 A    
C50   N22   1.468044 S    
C10   C32   1.374934 A    
C13   C17   1.412633 A    
C32   C36   1.496267 S    
N21   O34   1.300801 A    
C4    C15   1.436993 S    
C51   H15   1.105718 S    
C17   C23   1.381761 A    
C15   C19   1.412634 A    
O5    C1    1.290049 A    
C11   C39   1.512111 S    
C57   H36   1.110380 S    
C20   N8    1.421758 S    
C16   C20   1.406218 A    
O8    C4    1.286730 A    
C50   N21   1.462537 S    
C54   H25   1.104066 S    
C21   H1    1.082988 S    
C11   C29   1.387763 A    
C51   H16   1.107124 S    
N1    C43   1.388602 A    
C41   C47   1.413802 A    
O3    Zn2   2.012997 S    
C22   C26   1.396546 A    
O7    Zn4   2.002548 S    
C49   N19   1.462535 S    
C39   H11   1.105443 S    
Zn4   O15   2.012779 S    
C10   C38   1.503579 S    
N11   O21   1.302082 A    
C11   C15   1.390417 A    
C6    C25   1.424664 S    
O1    Zn1   2.012998 S    
N10   O20   1.298720 A    
N13   H35   1.032499 S    
O2    C2    1.303596 A    
N17   O25   1.295995 A    
C53   H22   1.110781 S    
C7    C28   1.423663 S    
C52   H17   1.105723 S    
N11   O22   1.300528 A    
N8    H31   1.031036 S    
C30   C34   1.496260 S    
C37   H9    1.105444 S    
N15   C59   1.446420 S    
O13   C5    1.294238 A    
C3    C16   1.425824 S    
C29   C33   1.498191 S    
N3    C47   1.374158 A    
Zn4   N2    2.030091 S    
Zn2   O11   2.002226 S    
O16   C8    1.293016 A    
N2    C44   1.388596 A    
C20   C22   1.386743 A    
N13   C57   1.446427 S    
N12   O24   1.298660 A    
O6    C2    1.286735 A    
C58   H40   1.110728 S    
N5    C53   1.448505 S    
C42   C48   1.413801 A    
O12   C8    1.291653 A    
N14   H39   1.033156 S    
Zn1   N3    2.029182 S    
Zn1   O9    2.002226 S    
C40   N16   1.458960 S    
O9    C5    1.290411 A    
C42   C52   1.480704 S    
N16   C60   1.442684 S    
N15   H43   1.032496 S    
C41   C51   1.480705 S    
N19   O29   1.300810 A    
C35   N11   1.464009 S    
C43   N17   1.431918 S    
C45   N3    1.354673 A    
C58   H41   1.110587 S    
C23   C27   1.398314 A    
N18   O27   1.295989 A    
N22   O36   1.301430 A    
C25   C29   1.396489 A    
N20   O32   1.299946 A    
C8    C27   1.424670 S    
C1    C14   1.425822 S    
C54   H26   1.109502 S    
C48   C50   1.517089 S    
C60   H49   1.110587 S    
C38   N14   1.458960 S    
O4    Zn2   1.988657 S    
C19   N7    1.425583 S    
Zn4   O16   1.988441 S    
O5    Zn3   2.002548 S    
O3    C3    1.295435 A    
C37   N13   1.456257 S    
C28   C32   1.393469 A    
Zn3   O13   2.012779 S    
C36   H8    1.111969 S    
N6    C54   1.440927 S    
N9    O17   1.302080 A    
O14   C6    1.293016 A    
C54   H24   1.104403 S    
C57   H37   1.110434 S    
C49   C51   1.526883 S    
C39   N15   1.456254 S    
N10   O19   1.299962 A    
C55   H28   1.111438 S    
C23   H3    1.082988 S    
C24   H4    1.077580 S    
N8    C56   1.440924 S    
