data_mof_unit_57221.cif
_audit_creation_date              2012-10-26T19:18:47-0400
_audit_creation_method            fapswitch 2.2
_symmetry_space_group_name_H-M    P1
_symmetry_Int_Tables_number       1
_space_group_crystal_system       triclinic
_cell_length_a                    9.680137
_cell_length_b                    10.935658
_cell_length_c                    15.553287
_cell_angle_alpha                 89.897222
_cell_angle_beta                  73.284312
_cell_angle_gamma                 89.981789
_cell_volume                      1576.87490071

loop_
_atom_site_label
_atom_site_type_symbol
_atom_type_description
_atom_site_fract_x
_atom_site_fract_y
_atom_site_fract_z
_atom_type_partial_charge
C1    C     C_R   0.999581 0.265309 0.501066 0.557640
C2    C     C_R   0.218770 0.514839 0.040069 0.027784
C3    C     C_R   0.321066 0.493766 0.087390 0.038371
C4    C     C_R   0.916032 0.496331 0.672076 0.540771
C5    C     C_R   0.073651 0.532065 0.087383 -0.079099
C6    C     C_R   0.030083 0.525172 0.180886 -0.111139
C7    C     C_R   0.281567 0.518146 0.180422 0.223905
C8    C     C_2   0.885825 0.933074 0.501737 -0.144384
C9    C     C_2   0.005120 0.866655 0.493972 -0.095013
C10   C     C_2   0.887677 0.067017 0.497780 -0.139321
C11   C     C_2   0.999822 0.133340 0.505555 -0.102280
C12   C     C_R   0.659588 0.454483 0.902037 0.003315
C13   C     C_2   0.399304 0.426112 0.549251 -0.014058
C14   C     C_2   0.553550 0.430320 0.552478 -0.016250
C15   C     C_R   0.000660 0.734693 0.498755 0.566680
C16   C     C_R   0.084418 0.506784 0.327689 0.578433
C17   C     C_R   0.866474 0.474205 0.769150 0.003830
C18   C     C_R   0.132912 0.517024 0.228688 -0.008294
C19   C     C_R   0.896022 0.375544 0.902089 -0.103944
C20   C     C_R   0.954159 0.415423 0.813807 -0.152667
C21   C     C_R   0.721954 0.496840 0.814335 -0.115062
C22   C     C_R   0.748570 0.393358 0.947317 0.039803
C23   C     C_R   0.510885 0.472503 0.945976 0.027831
C24   C     C_R   0.461000 0.453933 0.039447 0.027712
C25   C     C_R   0.545990 0.385469 0.081627 -0.061115
C26   C     C_R   0.686534 0.350418 0.035820 0.221097
C27   C     C_R   0.409062 0.503867 0.899923 -0.115861
C28   C     C_R   0.263665 0.518925 0.946365 -0.111588
Cu1   Cu    Cu3+1 0.138640 0.500020 0.499980 1.036035
Cu2   Cu    Cu3+1 0.861360 0.499980 0.500020 0.958117
H1    H     H_    0.782566 0.888411 0.510018 0.159023
H2    H     H_    0.967664 0.330057 0.933762 0.189578
H3    H     H_    0.066273 0.396274 0.779500 0.123765
H4    H     H_    0.659530 0.548744 0.779635 0.126648
H5    H     H_    0.498969 0.353277 0.149429 0.191634
H6    H     H_    0.437161 0.509007 0.827642 0.104177
H7    H     H_    0.668821 0.265384 0.231054 0.356554
H8    H     H_    0.993177 0.545259 0.052065 0.150998
H9    H     H_    0.582841 0.370830 0.600312 0.138354
H10   H     H_    0.564145 0.524689 0.294099 0.348006
H11   H     H_    0.110666 0.907632 0.482048 0.123008
H12   H     H_    0.791988 0.111772 0.489645 0.161623
H13   H     H_    0.094459 0.092283 0.517309 0.106917
H14   H     H_    0.328590 0.358716 0.591015 0.130932
H15   H     H_    0.410153 0.567022 0.465094 0.235988
H16   H     H_    0.627697 0.550959 0.452706 0.209605
H17   H     H_    0.915941 0.529911 0.215788 0.163409
H18   H     H_    0.186893 0.536576 0.909004 0.115037
N1    N     N_2   0.346430 0.498660 0.500980 -0.321192
N2    N     N_2   0.652550 0.498630 0.501000 -0.346446
O1    O     O_R   0.117050 0.321960 0.499980 -0.495024
O2    O     O_2   0.907598 0.301879 0.103563 -0.322132
O3    O     O_3   0.665361 0.198874 0.188544 -0.472000
O4    O     O_2   0.534273 0.640911 0.152700 -0.274629
O5    O     O_2   0.341701 0.692323 0.287525 -0.250863
O6    O     O_3   0.476507 0.486316 0.285350 -0.549456
O7    O     O_R   0.882890 0.321920 0.500020 -0.494861
O8    O     O_R   0.052910 0.500040 0.629810 -0.507958
O9    O     O_R   0.818750 0.499990 0.629840 -0.506914
O10   O     O_R   0.117110 0.678080 0.499980 -0.480170
O11   O     O_R   0.882950 0.678040 0.500020 -0.498330
O12   O     O_R   0.181250 0.500010 0.370160 -0.399044
O13   O     O_R   0.947090 0.499960 0.370190 -0.510560
O14   O     O_2   0.819670 0.135137 0.029577 -0.218500
S1    S     S_3+6 0.775100 0.245015 0.088982 0.017768
S2    S     S_3+6 0.411417 0.589294 0.226474 0.013808

loop_
_geom_bond_atom_site_label_1
_geom_bond_atom_site_label_2
_ccdc_geom_bond_type
C8    C9    D    
C26   S1    S    
C23   C24   A    
C11   H13   S    
Cu1   Cu2   S    
O4    S2    D    
C16   O13   A    
C1    O7    A    
C27   H6    S    
C10   H12   S    
O3    S1    S    
C15   O10   A    
H16   N2    S    
C9    H11   S    
C19   C20   A    
C1    C11   S    
Cu1   O10   S    
H15   N1    S    
C7    C18   A    
H7    O3    S    
Cu2   O9    S    
C17   C20   A    
C2    C3    A    
C15   O11   A    
Cu1   N1    S    
C13   C14   S    
C24   C25   A    
C7    S2    S    
C1    O1    A    
C12   C23   A    
C3    C24   A    
C14   N2    D    
C16   O12   A    
C25   H5    S    
O6    S2    S    
C20   H3    S    
C4    O9    A    
C8    C10   S    
Cu1   O1    S    
C3    C7    A    
C23   C27   A    
C9    C15   S    
C5    C6    A    
C6    C18   A    
C13   N1    D    
C2    C5    A    
C10   C11   D    
C19   H2    S    
C22   C26   A    
Cu2   O7    S    
C12   C22   A    
C19   C22   A    
Cu1   O8    S    
C16   C18   S    
C6    H17   S    
Cu2   O11   S    
C4    O8    A    
C27   C28   A    
Cu1   O12   S    
C28   H18   S    
C2    C28   A    
C21   H4    S    
Cu2   N2    S    
C25   C26   A    
C5    H8    S    
C8    H1    S    
C12   C21   A    
C13   H14   S    
C17   C21   A    
O2    S1    D    
Cu2   O13   S    
C14   H9    S    
O5    S2    D    
H10   O6    S    
O14   S1    D    
C4    C17   S    
