data_mof_unit_60175.cif
_audit_creation_date              2012-12-10T19:29:54-0500
_audit_creation_method            fapswitch 2.2
_symmetry_space_group_name_H-M    P1
_symmetry_Int_Tables_number       1
_space_group_crystal_system       triclinic
_cell_length_a                    16.651044
_cell_length_b                    17.305784
_cell_length_c                    17.742674
_cell_angle_alpha                 94.606878
_cell_angle_beta                  90.802858
_cell_angle_gamma                 86.902013
_cell_volume                      5088.51185136

loop_
_atom_site_label
_atom_site_type_symbol
_atom_type_description
_atom_site_fract_x
_atom_site_fract_y
_atom_site_fract_z
_atom_type_partial_charge
C1    C     C_R   0.499301 0.501290 0.355988 0.818498
C2    C     C_R   0.500871 0.497881 0.644541 0.826010
C3    C     C_R   0.571889 0.479522 0.848889 0.165545
C4    C     C_R   0.448836 0.560575 0.158691 0.169713
C5    C     C_R   0.573862 0.474164 0.768915 0.105706
C6    C     C_R   0.449148 0.561463 0.238577 0.111358
C7    C     C_R   0.502606 0.494473 0.727809 -0.104052
C8    C     C_R   0.497247 0.504328 0.273801 -0.082031
C9    C     C_R   0.430387 0.511716 0.766938 -0.231531
C10   C     C_R   0.543778 0.448314 0.230433 -0.255285
C11   C     C_R   0.427564 0.511292 0.845085 0.177613
C12   C     C_R   0.542113 0.446304 0.152069 0.186430
C13   C     C_R   0.498327 0.496661 0.886310 -0.023215
C14   C     C_R   0.495056 0.502393 0.116001 -0.028960
C15   C     C_1   0.495619 0.498802 0.967226 0.098768
C16   C     C_1   0.494839 0.500361 0.035020 0.097188
C17   C     C_R   0.827663 0.561182 0.537383 0.066847
C18   C     C_R   0.172251 0.439371 0.461585 0.064637
C19   C     C_R   0.741833 0.557931 0.541218 0.313760
C20   C     C_R   0.258123 0.442634 0.457955 0.314369
C21   C     C_R   0.747054 0.442443 0.457947 0.316584
C22   C     C_R   0.252994 0.556722 0.543183 0.313813
C23   C     C_R   0.509573 0.350428 0.501955 0.837108
C24   C     C_R   0.490483 0.649642 0.497970 0.829600
C25   C     C_R   0.833229 0.438476 0.462033 0.056607
C26   C     C_R   0.166775 0.560374 0.539756 0.057525
C27   C     C_R   0.873936 0.499403 0.500286 0.054071
C28   C     C_R   0.126041 0.500251 0.500175 0.054172
C29   C     C_1   0.963146 0.499752 0.500292 0.008764
C30   C     C_1   0.036827 0.499832 0.500169 0.008918
C31   C     C_R   0.510825 0.266298 0.501438 -0.141427
C32   C     C_R   0.489203 0.733958 0.499137 -0.148625
C33   C     C_R   0.457039 0.230998 0.546949 0.140621
C34   C     C_R   0.545414 0.770334 0.456918 0.133177
C35   C     C_R   0.444777 0.151381 0.533153 0.107955
C36   C     C_R   0.554933 0.850463 0.471031 0.112102
C37   C     C_R   0.493351 0.106233 0.479252 0.076509
C38   C     C_R   0.502436 0.894606 0.522222 0.077379
C39   C     C_R   0.547910 0.142311 0.435347 0.169632
C40   C     C_R   0.446102 0.857468 0.563082 0.169514
C41   C     C_R   0.555825 0.221892 0.446398 -0.262809
C42   C     C_R   0.440152 0.777709 0.551487 -0.255358
C43   C     C_2   0.491102 0.021277 0.470959 -0.183512
C44   C     C_2   0.503029 0.979579 0.530948 -0.186078
Cu1   Cu    Cu3+1 0.580420 0.500000 0.499980 0.949722
Cu2   Cu    Cu3+1 0.419580 0.500000 0.500020 0.948275
H1    H     H_    0.398984 0.749460 0.585577 0.173434
H2    H     H_    0.595220 0.249544 0.410001 0.171873
H3    H     H_    0.509788 0.008238 0.587276 0.195608
H4    H     H_    0.484742 0.992295 0.414713 0.196756
H5    H     H_    0.375212 0.525645 0.736707 0.188577
H6    H     H_    0.580087 0.404552 0.257710 0.162084
N1    N     N_R   0.701220 0.499980 0.499970 -0.194840
N2    N     N_R   0.298780 0.500020 0.500030 -0.195763
O1    O     O_R   0.567930 0.499990 0.391240 -0.565822
O2    O     O_R   0.432070 0.500010 0.608760 -0.575539
O3    O     O_R   0.432120 0.500000 0.391270 -0.595768
O4    O     O_R   0.567880 0.500000 0.608730 -0.597108
O5    O     O_R   0.575780 0.386400 0.499970 -0.591072
O6    O     O_R   0.424220 0.613600 0.500030 -0.589227
O7    O     O_R   0.439960 0.386410 0.500000 -0.565536
O8    O     O_R   0.560040 0.613590 0.500000 -0.561195
I1    I     I_    0.396169 0.297278 0.638775 -0.327674
I2    I     I_    0.614702 0.705371 0.369585 -0.332994
C45   C     C_3   0.871958 0.629711 0.573152 -0.829363
H7    H     H_    0.910741 0.651901 0.530201 0.237770
H8    H     H_    0.832729 0.680048 0.594546 0.242185
H9    H     H_    0.910203 0.610778 0.620747 0.240144
C46   C     C_3   0.127736 0.371692 0.424232 -0.830372
H10   H     H_    0.090182 0.347562 0.466979 0.236841
H11   H     H_    0.088203 0.392253 0.378187 0.241302
H12   H     H_    0.166667 0.322315 0.400190 0.241024
C47   C     C_3   0.698156 0.619482 0.593057 -0.747369
H13   H     H_    0.729602 0.625129 0.648688 0.199098
H14   H     H_    0.695946 0.676000 0.567340 0.228223
H15   H     H_    0.637198 0.607182 0.607632 0.261740
C48   C     C_3   0.301767 0.381539 0.405576 -0.731848
H16   H     H_    0.271294 0.377775 0.349397 0.202156
H17   H     H_    0.363416 0.392753 0.392507 0.261112
H18   H     H_    0.302327 0.324373 0.429993 0.220384
C49   C     C_3   0.709465 0.380886 0.405201 -0.730927
H19   H     H_    0.738587 0.377350 0.349088 0.210020
H20   H     H_    0.717369 0.323661 0.429187 0.212090
H21   H     H_    0.646087 0.390956 0.391779 0.251598
C50   C     C_3   0.290561 0.617613 0.596745 -0.739228
H22   H     H_    0.280077 0.675611 0.574831 0.213068
H23   H     H_    0.263212 0.618388 0.653490 0.207723
H24   H     H_    0.354565 0.609237 0.608120 0.255076
C51   C     C_3   0.881043 0.369281 0.423429 -0.819461
H25   H     H_    0.876048 0.370337 0.361098 0.244514
H26   H     H_    0.945792 0.367451 0.438201 0.234758
H27   H     H_    0.858390 0.314347 0.440878 0.241480
C52   C     C_3   0.118959 0.628449 0.580384 -0.816204
H28   H     H_    0.125842 0.626594 0.642514 0.245085
H29   H     H_    0.140072 0.684055 0.563050 0.241459
H30   H     H_    0.053805 0.629583 0.567452 0.234239
I3    I     I_    0.619694 0.081051 0.349848 -0.359018
I4    I     I_    0.368567 0.917436 0.644715 -0.365330
C53   C     C_3   0.623873 0.886415 0.434455 -0.746232
H31   H     H_    0.680539 0.851097 0.442544 0.246357
H32   H     H_    0.611548 0.889205 0.373061 0.264520
H33   H     H_    0.635376 0.945307 0.460024 0.249968
C54   C     C_3   0.376729 0.117279 0.572744 -0.747511
H34   H     H_    0.321043 0.155075 0.568802 0.247373
H35   H     H_    0.361286 0.059819 0.546210 0.252280
H36   H     H_    0.392703 0.112076 0.633144 0.262294
I5    I     I_    0.680053 0.467503 0.915230 -0.282409
I6    I     I_    0.378642 0.644992 0.100227 -0.271423
C55   C     C_3   0.650050 0.444102 0.728230 -0.731445
H37   H     H_    0.679930 0.492741 0.705072 0.237990
H38   H     H_    0.693860 0.414102 0.764698 0.246875
H39   H     H_    0.635705 0.399605 0.682094 0.238393
C56   C     C_3   0.400218 0.622515 0.286871 -0.730672
H40   H     H_    0.375350 0.671153 0.255634 0.251975
H41   H     H_    0.349170 0.595488 0.312260 0.239823
H42   H     H_    0.438424 0.648667 0.332768 0.224714
I7    I     I_    0.313996 0.534574 0.897346 -0.262328
I8    I     I_    0.610650 0.355145 0.091758 -0.255910

loop_
_geom_bond_atom_site_label_1
_geom_bond_atom_site_label_2
_ccdc_geom_bond_type
C44   H3    S    
C38   C40   A    
C52   H28   S    
C27   C29   S    
C1    C8    S    
C47   H13   S    
C2    C7    S    
C9    H5    S    
C10   H6    S    
C49   H19   S    
C39   C41   A    
C48   H16   S    
C23   O5    A    
C4    I6    S    
C20   C48   S    
C35   C37   A    
C35   C54   S    
C55   H38   S    
C40   I4    S    
C50   H24   S    
C15   C16   T    
Cu1   O8    S    
C22   C50   S    
C46   H11   S    
C33   C35   A    
C45   H8    S    
C31   C33   A    
C51   H26   S    
C18   C20   A    
C3    C13   A    
C33   I1    S    
C56   H42   S    
C19   N1    A    
C18   C46   S    
C40   C42   A    
Cu1   N1    S    
C52   H29   S    
C47   H14   S    
C26   C28   A    
C49   H20   S    
C48   H17   S    
Cu1   O4    S    
Cu2   O7    S    
C17   C27   A    
C19   C47   S    
C18   C28   A    
C20   N2    A    
C55   H39   S    
C5    C7    A    
C6    C8    A    
C3    I5    S    
C50   H22   S    
C23   C31   S    
C37   C43   S    
C46   H12   S    
C43   C44   D    
C24   C32   S    
C6    C56   S    
C38   C44   S    
C29   C30   T    
C1    O3    A    
C53   H31   S    
C24   O6    A    
C45   H9    S    
Cu2   N2    S    
C34   I2    S    
C54   H35   S    
C51   H27   S    
C9    C11   A    
C10   C12   A    
C12   I8    S    
C4    C6    A    
C36   C53   S    
C53   H32   S    
C12   C14   A    
C52   H30   S    
C22   N2    A    
C13   C15   S    
Cu2   O3    S    
C47   H15   S    
C14   C16   S    
C11   I7    S    
C49   H21   S    
C56   H40   S    
C48   H18   S    
C7    C9    A    
C21   C25   A    
Cu1   O5    S    
C24   O8    A    
C31   C41   A    
Cu2   O6    S    
C25   C51   S    
C21   C49   S    
C3    C5    A    
C2    O4    A    
C43   H4    S    
C25   C27   A    
C17   C45   S    
C28   C30   S    
C1    O1    A    
C37   C39   A    
C2    O2    A    
C55   H37   S    
C21   N1    A    
C11   C13   A    
C5    C55   S    
C26   C52   S    
C36   C38   A    
C17   C19   A    
C41   H2    S    
C54   H36   S    
C34   C36   A    
C42   H1    S    
C4    C14   A    
C46   H10   S    
C39   I3    S    
Cu1   Cu2   S    
C50   H23   S    
C23   O7    A    
C53   H33   S    
Cu1   O1    S    
C8    C10   A    
C45   H7    S    
C22   C26   A    
Cu2   O2    S    
C54   H34   S    
C32   C42   A    
C51   H25   S    
C32   C34   A    
C56   H41   S    
