data_mof_unit_56638.cif
_audit_creation_date              2012-12-11T17:11:41-0500
_audit_creation_method            fapswitch 2.2
_symmetry_space_group_name_H-M    P1
_symmetry_Int_Tables_number       1
_space_group_crystal_system       triclinic
_cell_length_a                    15.037985
_cell_length_b                    6.94178
_cell_length_c                    13.667357
_cell_angle_alpha                 90.129952
_cell_angle_beta                  101.116725
_cell_angle_gamma                 89.923685
_cell_volume                      1399.96569939

loop_
_atom_site_label
_atom_site_type_symbol
_atom_type_description
_atom_site_fract_x
_atom_site_fract_y
_atom_site_fract_z
_atom_type_partial_charge
O1    O     O_R   0.398250 0.605080 0.401520 -0.533889
O2    O     O_R   0.898250 0.394920 0.901520 -0.542546
O3    O     O_R   0.584130 0.932110 0.405450 -0.513819
O4    O     O_R   0.084130 0.067890 0.905450 -0.512149
O5    O     O_R   0.601750 0.105090 0.598480 -0.541257
O6    O     O_R   0.101750 0.894910 0.098480 -0.534371
C1    C     C_R   0.615009 0.763593 0.387038 0.756196
C2    C     C_R   0.109972 0.237023 0.882030 0.762477
O7    O     O_R   0.397870 0.934620 0.389680 -0.538199
O8    O     O_R   0.897870 0.065380 0.889680 -0.540383
O9    O     O_R   0.414160 0.107620 0.582600 -0.561130
O10   O     O_R   0.914160 0.892380 0.082600 -0.554775
C3    C     C_R   0.364000 0.765709 0.362674 0.743102
C4    C     C_R   0.864181 0.234272 0.862402 0.716878
O11   O     O_R   0.585840 0.602550 0.417400 -0.554331
O12   O     O_R   0.085840 0.397450 0.917400 -0.545902
O13   O     O_3   0.505560 0.772440 0.563310 -0.377442
O14   O     O_3   0.005560 0.227560 0.063310 -0.372662
V1    V     V_3+5 0.498970 0.046250 0.488250 1.428832
V2    V     V_3+5 0.998970 0.953750 0.988250 1.426482
O15   O     O_R   0.415870 0.437500 0.594550 -0.524647
O16   O     O_R   0.915870 0.562500 0.094550 -0.533827
C5    C     C_R   0.386448 0.269121 0.614482 0.675298
C6    C     C_R   0.885745 0.731515 0.113767 0.652960
O17   O     O_R   0.602130 0.434980 0.610320 -0.543834
O18   O     O_R   0.102130 0.565020 0.110320 -0.536820
C7    C     C_R   0.635849 0.265934 0.637492 0.728208
C8    C     C_R   0.135979 0.734104 0.137299 0.741702
V3    V     V_3+5 0.501030 0.546580 0.511750 1.418935
V4    V     V_3+5 0.001030 0.453420 0.011750 1.416040
O19   O     O_3   0.494440 0.270520 0.436690 -0.364946
O20   O     O_3   0.994440 0.729480 0.936690 -0.375889
C9    C     C_1   0.716437 0.255273 0.716764 -0.184609
C10   C     C_1   0.216343 0.744830 0.216877 -0.189254
C11   C     C_1   0.783904 0.244983 0.782732 -0.203741
C12   C     C_1   0.283651 0.754989 0.283081 -0.185299
C13   C     C_2   0.261041 0.118162 0.686288 0.035894
C14   C     C_2   0.798943 0.889759 0.231293 0.029762
C15   C     C_2   0.320264 0.268056 0.682775 0.154199
C16   C     C_2   0.809716 0.738308 0.170262 0.173048
C17   C     C_2   0.190152 0.110230 0.750814 0.462535
C18   C     C_2   0.719854 0.904682 0.283911 0.495351
C19   C     C_2   0.172988 0.253282 0.812430 -0.451440
C20   C     C_2   0.690683 0.753063 0.331015 -0.385661
H1    H     H_    0.200981 0.394547 0.811746 0.184675
H2    H     H_    0.728577 0.620456 0.335642 0.121139
N1    N     N_3   0.263276 0.949177 0.625476 -0.639918
H3    H     H_    0.324473 0.875850 0.647979 0.259410
H4    H     H_    0.254158 0.988466 0.550382 0.217117
N2    N     N_3   0.862209 0.047202 0.245548 -0.706744
H5    H     H_    0.855392 0.127801 0.180053 0.261767
H6    H     H_    0.928289 0.994644 0.266938 0.225956
O21   O     O_3   0.310706 0.441017 0.730360 -0.569898
C21   C     C_3   0.383944 0.466794 0.811285 0.055244
H7    H     H_    0.448350 0.487482 0.784003 0.125752
H8    H     H_    0.390771 0.340479 0.862515 0.110816
C22   C     C_3   0.366013 0.647025 0.869472 -0.249650
H9    H     H_    0.355658 0.772928 0.818612 0.209676
H10   H     H_    0.303364 0.626637 0.900026 0.197009
C23   C     C_3   0.444391 0.690763 0.955354 -0.875749
H11   H     H_    0.456178 0.567264 0.007733 0.243052
H12   H     H_    0.427775 0.819720 0.996607 0.236205
H13   H     H_    0.506996 0.721271 0.926364 0.227242
O22   O     O_3   0.752460 0.580087 0.166348 -0.590560
C24   C     C_3   0.708414 0.540671 0.067311 0.050584
H14   H     H_    0.757424 0.510336 0.017938 0.135613
H15   H     H_    0.664837 0.664662 0.036638 0.117241
C25   C     C_3   0.649158 0.361876 0.067677 -0.255644
H16   H     H_    0.690006 0.244939 0.109846 0.223719
H17   H     H_    0.592004 0.396301 0.105584 0.199677
C26   C     C_3   0.612306 0.288584 0.962328 -0.885038
H18   H     H_    0.579322 0.406738 0.914181 0.230031
H19   H     H_    0.561886 0.172851 0.964844 0.235169
H20   H     H_    0.668311 0.228427 0.929361 0.231768
O23   O     O_3   0.141838 0.939464 0.748013 -0.544342
C27   C     C_3   0.061298 0.957013 0.675504 0.142963
H21   H     H_    0.077122 0.974163 0.599653 0.126150
H22   H     H_    0.020528 0.083246 0.691912 0.080527
C28   C     C_3   0.004486 0.775139 0.676673 -0.262589
H23   H     H_    0.041200 0.649101 0.653436 0.192638
H24   H     H_    0.993745 0.749280 0.753474 0.222419
C29   C     C_3   0.912232 0.793963 0.607750 -0.893588
H25   H     H_    0.876244 0.924559 0.626735 0.238172
H26   H     H_    0.870268 0.666842 0.617271 0.242724
H27   H     H_    0.920471 0.801539 0.528841 0.232653
O24   O     O_3   0.672430 0.076538 0.281357 -0.575611
C30   C     C_3   0.722191 0.223436 0.340170 0.117178
H28   H     H_    0.671039 0.328573 0.354710 0.160697
H29   H     H_    0.765917 0.300184 0.296524 0.182705
C31   C     C_3   0.777435 0.161320 0.442702 -0.357255
H30   H     H_    0.733248 0.086231 0.486480 0.203049
H31   H     H_    0.833002 0.062197 0.433069 0.206674
C32   C     C_3   0.819918 0.335455 0.501878 -0.858077
H32   H     H_    0.866083 0.411491 0.460492 0.243054
H33   H     H_    0.859647 0.287741 0.574874 0.229911
H34   H     H_    0.766282 0.436550 0.515441 0.229210

loop_
_geom_bond_atom_site_label_1
_geom_bond_atom_site_label_2
_ccdc_geom_bond_type
C14   C16   D    
C30   H28   S    
C32   H32   S    
O13   V3    S    
C27   C28   S    
O4    C2    A    
V1    O19   S    
C22   H9    S    
N1    H4    S    
O21   C21   S    
C7    C9    S    
O9    V1    S    
C23   H13   S    
C27   H22   S    
C14   C18   S    
O3    C1    A    
C9    C11   T    
C22   H10   S    
O12   V4    S    
C23   H12   S    
O7    C3    A    
C32   H33   S    
C26   H20   S    
O13   V1    S    
O5    C7    A    
O7    V1    S    
O6    C8    A    
O8    V2    S    
C25   H16   S    
C24   H15   S    
N2    H6    S    
C2    C19   S    
O3    V1    S    
C18   O24   S    
C13   N1    S    
C10   C12   T    
C1    O11   A    
C8    C10   S    
C2    O12   A    
C17   C19   D    
C18   C20   D    
C20   H2    S    
O11   V3    S    
O17   V3    S    
C13   C15   D    
C21   H8    S    
C14   N2    S    
C27   H21   S    
C3    C12   S    
O8    C4    A    
C4    C11   S    
C28   H24   S    
O24   C30   S    
C22   C23   S    
O15   V3    S    
C23   H11   S    
O23   C27   S    
C17   O23   S    
C31   H31   S    
N1    H3    S    
C24   C25   S    
O10   V2    S    
O1    V3    S    
N2    H5    S    
C1    C20   S    
C19   H1    S    
O14   V4    S    
O18   V4    S    
C32   H34   S    
C29   H26   S    
O15   C5    A    
O16   C6    A    
O1    C3    A    
C31   C32   S    
C26   H19   S    
V2    O20   S    
C21   H7    S    
O16   V4    S    
C28   C29   S    
O5    V1    S    
O17   C7    A    
C29   H27   S    
O6    V2    S    
O10   C6    A    
O18   C8    A    
C16   O22   S    
O2    V4    S    
O22   C24   S    
C30   H29   S    
C26   H18   S    
V3    O19   S    
V4    O20   S    
C31   H30   S    
C15   O21   S    
C25   C26   S    
C5    C15   S    
O9    C5    A    
C6    C16   S    
O14   V2    S    
C24   H14   S    
C13   C17   S    
O2    C4    A    
C28   H23   S    
O4    V2    S    
C25   H17   S    
C29   H25   S    
C30   C31   S    
C21   C22   S    
