data_mof_unit_32522.cif
_audit_creation_date              2012-12-10T18:05:43-0500
_audit_creation_method            fapswitch 2.2
_symmetry_space_group_name_H-M    P1
_symmetry_Int_Tables_number       1
_space_group_crystal_system       triclinic
_cell_length_a                    10.915342
_cell_length_b                    10.795097
_cell_length_c                    9.622915
_cell_angle_alpha                 88.471847
_cell_angle_beta                  92.198052
_cell_angle_gamma                 92.260372
_cell_volume                      1131.81374275

loop_
_atom_site_label
_atom_site_type_symbol
_atom_type_description
_atom_site_fract_x
_atom_site_fract_y
_atom_site_fract_z
_atom_type_partial_charge
C1    C     C_R   0.499295 0.262400 0.501059 0.803751
C2    C     C_R   0.500705 0.737600 0.498941 0.803752
C3    C     C_R   0.871691 0.495382 0.507615 -0.082985
C4    C     C_R   0.128309 0.504616 0.492385 -0.082984
C5    C     C_R   0.945854 0.532874 0.623621 0.001705
C6    C     C_R   0.054146 0.467122 0.376380 0.001706
C7    C     C_R   0.460448 0.065591 0.380704 -0.174542
C8    C     C_R   0.539552 0.934408 0.619296 -0.174542
C9    C     C_R   0.461804 0.937547 0.379110 -0.140267
C10   C     C_R   0.538196 0.062453 0.620890 -0.140267
C11   C     C_R   0.501449 0.871648 0.498327 -0.022204
C12   C     C_R   0.498551 0.128352 0.501673 -0.022203
C13   C     C_R   0.447547 0.403838 0.076503 -0.086940
C14   C     C_R   0.552453 0.596162 0.923497 -0.086938
C15   C     C_R   0.447471 0.402727 0.929478 0.339651
C16   C     C_R   0.552529 0.597273 0.070522 0.339650
C17   C     C_R   0.262374 0.501444 0.497105 0.793233
C18   C     C_R   0.737626 0.498555 0.502895 0.793232
C19   C     C_R   0.165807 0.522895 0.014464 -0.139188
C20   C     C_R   0.834188 0.477096 0.985533 -0.139191
C21   C     C_R   0.145941 0.540725 0.154817 -0.083989
C22   C     C_R   0.854056 0.459268 0.845181 -0.083989
C23   C     C_R   0.100938 0.441891 0.238651 0.126137
C24   C     C_R   0.899062 0.558103 0.761351 0.126137
C25   C     C_R   0.078412 0.324704 0.180978 -0.187242
C26   C     C_R   0.921589 0.675288 0.819027 -0.187242
C27   C     C_R   0.097301 0.307623 0.040316 -0.121867
C28   C     C_R   0.902697 0.692366 0.959688 -0.121868
C29   C     C_R   0.138560 0.407212 0.956841 -0.076291
C30   C     C_R   0.861434 0.592778 0.043159 -0.076296
C31   C     C_R   0.927382 0.460110 0.387249 -0.238245
C32   C     C_R   0.072617 0.539887 0.612752 -0.238246
Cu1   Cu    Cu3+1 0.500000 0.500020 0.640660 0.981340
Cu2   Cu    Cu3+1 0.500000 0.499980 0.359340 0.981340
H1    H     H_    0.149252 0.394317 0.847183 0.172757
H2    H     H_    0.850739 0.605671 0.152816 0.172760
H3    H     H_    0.198627 0.599650 0.949557 0.132142
H4    H     H_    0.801365 0.400342 0.050437 0.132144
H5    H     H_    0.160462 0.632519 0.196724 0.121739
H6    H     H_    0.839535 0.367476 0.803272 0.121738
H7    H     H_    0.041124 0.248304 0.243541 0.136043
H8    H     H_    0.958879 0.751687 0.756468 0.136044
H9    H     H_    0.076978 0.218015 0.995162 0.152081
H10   H     H_    0.923020 0.781972 0.004845 0.152084
H11   H     H_    0.871354 0.428247 0.298961 0.154469
H12   H     H_    0.128645 0.571749 0.701041 0.154469
H13   H     H_    0.430266 0.890274 0.285738 0.177073
H14   H     H_    0.569734 0.109726 0.714262 0.177073
H15   H     H_    0.404117 0.327366 0.133246 0.171613
H16   H     H_    0.595883 0.672634 0.866753 0.171613
N1    N     N_R   0.500030 0.500030 0.852070 -0.202870
N2    N     N_R   0.499970 0.499970 0.147930 -0.202870
O1    O     O_R   0.499990 0.319660 0.618740 -0.536053
O2    O     O_R   0.500010 0.680340 0.381260 -0.536053
O3    O     O_R   0.499990 0.319630 0.381170 -0.602804
O4    O     O_R   0.500010 0.680370 0.618830 -0.602803
O5    O     O_R   0.319650 0.500020 0.618780 -0.562333
O6    O     O_R   0.680350 0.499980 0.381220 -0.562333
O7    O     O_R   0.319640 0.500000 0.381210 -0.582495
O8    O     O_R   0.680360 0.500000 0.618790 -0.582494
Br1   Br    Br    0.368334 0.257628 0.851275 -0.580731
Br2   Br    Br    0.631667 0.742372 0.148725 -0.580732
H17   H     H_    0.428674 0.115283 0.287726 0.157310
H18   H     H_    0.571326 0.884717 0.712274 0.157310

loop_
_geom_bond_atom_site_label_1
_geom_bond_atom_site_label_2
_ccdc_geom_bond_type
C17   O5    A    
Cu1   O5    S    
C28   C30   A    
C9    H13   S    
C15   N1    A    
Cu1   N1    S    
C13   N2    A    
C20   H4    S    
C20   C22   A    
C29   H1    S    
Cu2   N2    S    
C14   N1    A    
C21   H5    S    
C30   H2    S    
C17   O7    A    
C5    C32   A    
C22   H6    S    
C7    C9    A    
Cu1   O4    S    
C23   C25   A    
C6    C31   A    
C15   Br1   S    
Cu2   O3    S    
C2    O4    A    
C3    C31   A    
C9    C11   A    
C7    H17   S    
C14   H16   S    
C1    C12   S    
C16   Br2   S    
C8    H18   S    
C8    C11   A    
C13   H15   S    
C2    C11   S    
C10   C12   A    
C18   O8    A    
C19   C21   A    
Cu1   Cu2   S    
Cu2   O2    S    
Cu1   O8    S    
C22   C24   A    
C13   C15   A    
C21   C23   A    
C10   H14   S    
Cu2   O7    S    
C14   C16   A    
C7    C12   A    
C2    O2    A    
C4    C6    A    
C27   C29   A    
C32   H12   S    
C4    C17   S    
C4    C32   A    
C19   C29   A    
C27   H9    S    
Cu1   O1    S    
C26   H8    S    
C3    C18   S    
C8    C10   A    
C31   H11   S    
C25   H7    S    
Cu2   O6    S    
C1    O1    A    
C5    C24   S    
C20   C30   A    
C19   H3    S    
C3    C5    A    
C6    C23   S    
C26   C28   A    
C28   H10   S    
C16   N2    A    
C24   C26   A    
C18   O6    A    
C1    O3    A    
C25   C27   A    
