data_mof_unit_25878.cif
_audit_creation_date              2012-12-11T16:46:31-0500
_audit_creation_method            fapswitch 2.2
_symmetry_space_group_name_H-M    P1
_symmetry_Int_Tables_number       1
_space_group_crystal_system       triclinic
_cell_length_a                    26.216219
_cell_length_b                    7.225434
_cell_length_c                    23.875311
_cell_angle_alpha                 89.99535
_cell_angle_beta                  101.540338
_cell_angle_gamma                 90.004329
_cell_volume                      4431.11904246

loop_
_atom_site_label
_atom_site_type_symbol
_atom_type_description
_atom_site_fract_x
_atom_site_fract_y
_atom_site_fract_z
_atom_type_partial_charge
O1    O     O_R   0.547620 0.505720 0.453310 -0.545511
O2    O     O_R   0.452380 0.005720 0.546690 -0.545798
O3    O     O_R   0.442260 0.172470 0.436770 -0.531923
O4    O     O_R   0.557740 0.672470 0.563230 -0.531969
C1    C     C_R   0.076112 0.468475 0.078529 0.701322
C2    C     C_R   0.923889 0.968474 0.921470 0.701312
C3    C     C_R   0.424145 0.344094 0.421751 0.675534
C4    C     C_R   0.575857 0.844094 0.578247 0.675231
O5    O     O_R   0.546600 0.175780 0.446490 -0.508605
O6    O     O_R   0.453400 0.675780 0.553510 -0.508360
O7    O     O_R   0.557460 0.008970 0.556480 -0.522179
O8    O     O_R   0.442540 0.508970 0.443520 -0.521980
C5    C     C_R   0.562128 0.344421 0.434111 0.706259
C6    C     C_R   0.437852 0.844395 0.565879 0.706592
O9    O     O_R   0.047630 0.803580 0.953300 -0.541596
O10   O     O_R   0.952370 0.303580 0.046700 -0.541605
O11   O     O_3   0.503440 0.340340 0.536080 -0.368969
O12   O     O_3   0.496560 0.840340 0.463920 -0.368672
V1    V     V_3+5 0.499360 0.064140 0.493310 1.521399
V2    V     V_3+5 0.500640 0.564140 0.506690 1.521728
O13   O     O_R   0.057730 0.636870 0.063240 -0.530936
O14   O     O_R   0.942270 0.136870 0.936760 -0.530938
O15   O     O_3   0.996540 0.468950 0.963950 -0.375207
O16   O     O_3   0.003460 0.968950 0.036050 -0.375204
C7    C     C_R   0.123560 0.786541 0.885586 -0.148009
C8    C     C_R   0.876400 0.286448 0.114360 -0.147995
H1    H     H_    0.113554 0.659641 0.904986 0.144408
H2    H     H_    0.886379 0.159602 0.094919 0.144410
C9    C     C_R   0.160676 0.778662 0.851016 -0.156239
C10   C     C_R   0.839284 0.278497 0.148929 -0.156242
H3    H     H_    0.178134 0.646621 0.844630 0.197932
H4    H     H_    0.821792 0.146465 0.155277 0.197723
C11   C     C_R   0.175464 0.938674 0.824964 0.036443
C12   C     C_R   0.824540 0.438442 0.175036 0.036540
C13   C     C_R   0.151204 0.108563 0.832794 0.505998
C14   C     C_R   0.848819 0.608333 0.167246 0.505965
C15   C     C_R   0.115062 0.116427 0.869440 -0.223524
C16   C     C_R   0.884961 0.616281 0.130600 -0.223640
H5    H     H_    0.098841 0.248882 0.877786 0.136202
H6    H     H_    0.901203 0.748744 0.122287 0.136179
C17   C     C_R   0.100526 0.955762 0.895769 -0.098812
C18   C     C_R   0.899469 0.455678 0.104227 -0.098767
C19   C     C_R   0.202870 0.986789 0.731346 -0.152762
C20   C     C_R   0.797254 0.485601 0.268744 -0.153100
H7    H     H_    0.164630 0.042164 0.713937 0.143322
H8    H     H_    0.835563 0.540342 0.286196 0.143110
C21   C     C_R   0.239261 0.974905 0.695880 -0.151253
C22   C     C_R   0.760875 0.473626 0.304225 -0.151137
H9    H     H_    0.228430 0.022524 0.652095 0.135910
H10   H     H_    0.771808 0.520462 0.348079 0.135654
C23   C     C_R   0.288690 0.898231 0.716234 0.033877
C24   C     C_R   0.711329 0.397922 0.283785 0.034293
C25   C     C_R   0.301208 0.835744 0.773041 -0.173269
C26   C     C_R   0.698711 0.336398 0.226876 -0.173217
H11   H     H_    0.339468 0.778893 0.789738 0.161277
H12   H     H_    0.660370 0.280353 0.210089 0.161124
C27   C     C_R   0.265264 0.850376 0.809165 0.413434
C28   C     C_R   0.734668 0.350964 0.190763 0.413650
C29   C     C_R   0.215265 0.925574 0.788364 0.029772
C30   C     C_R   0.784756 0.425286 0.211645 0.029868
C31   C     C_R   0.354079 0.717443 0.674786 -0.211713
C32   C     C_R   0.645262 0.218232 0.324565 -0.211687
H13   H     H_    0.346171 0.597898 0.699101 0.135099
H14   H     H_    0.652625 0.099286 0.299707 0.135874
C33   C     C_R   0.390658 0.701860 0.639174 0.450121
C34   C     C_R   0.608652 0.202877 0.360138 0.449041
C35   C     C_R   0.400176 0.854725 0.605336 -0.143163
C36   C     C_R   0.599781 0.354786 0.394653 -0.143106
C37   C     C_R   0.373128 0.021172 0.609628 -0.207968
C38   C     C_R   0.627457 0.520262 0.391039 -0.205587
H15   H     H_    0.379344 0.141451 0.584767 0.174430
H16   H     H_    0.621725 0.639801 0.416434 0.172068
C39   C     C_R   0.337067 0.035076 0.645397 -0.123276
C40   C     C_R   0.663532 0.534038 0.355278 -0.122920
H17   H     H_    0.317107 0.165310 0.647653 0.138051
H18   H     H_    0.683970 0.663563 0.353544 0.137358
C41   C     C_R   0.327185 0.883565 0.678358 0.050957
C42   C     C_R   0.672813 0.383360 0.321666 0.050795
C43   C     C_3   0.773570 0.721829 0.786371 0.241568
C44   C     C_3   0.226438 0.221839 0.213620 0.241649
C45   C     C_3   0.748419 0.057717 0.799561 0.233633
C46   C     C_3   0.251589 0.557750 0.200431 0.233714
C47   C     C_3   0.700939 0.039745 0.748360 0.168882
C48   C     C_3   0.299069 0.539773 0.251632 0.168853
H19   H     H_    0.763204 0.202891 0.802183 0.177392
H20   H     H_    0.236803 0.702916 0.197811 0.177394
H21   H     H_    0.665801 0.006784 0.765863 0.206012
H22   H     H_    0.334206 0.506839 0.234128 0.205939
C49   C     C_1   0.621877 0.852293 0.623625 -0.101086
C50   C     C_1   0.378128 0.352293 0.376370 -0.101360
C51   C     C_3   0.793548 0.927527 0.789502 -0.216161
C52   C     C_3   0.206459 0.427528 0.210490 -0.216180
C53   C     C_3   0.720261 0.703434 0.742893 0.178254
C54   C     C_3   0.279747 0.203449 0.257099 0.178260
C55   C     C_3   0.709380 0.883129 0.705957 -0.225937
C56   C     C_3   0.290628 0.383130 0.294035 -0.225843
C57   C     C_3   0.759464 0.921105 0.679023 0.618740
C58   C     C_3   0.240544 0.421063 0.320969 0.618645
C59   C     C_3   0.806980 0.977957 0.729625 0.521789
C60   C     C_3   0.193028 0.477915 0.270367 0.521780
C61   C     C_1   0.660990 0.862365 0.660817 0.192907
C62   C     C_1   0.339017 0.362366 0.339175 0.192820
C63   C     C_1   0.840343 0.948987 0.836850 0.236745
C64   C     C_1   0.159663 0.448988 0.163143 0.236734
C65   C     C_1   0.878444 0.959869 0.875332 -0.082730
C66   C     C_1   0.121560 0.459870 0.124664 -0.082725
H23   H     H_    0.802346 0.635085 0.769892 0.168898
H24   H     H_    0.197662 0.135068 0.230098 0.168885
H25   H     H_    0.723781 0.586581 0.714011 0.213698
H26   H     H_    0.276227 0.086577 0.285980 0.213721
V3    V     V_3+5 0.000640 0.745210 0.006690 1.490911
V4    V     V_3+5 0.999360 0.245210 0.993310 1.490902
O17   O     O_R   0.057440 0.306950 0.056520 -0.525723
O18   O     O_R   0.942560 0.806950 0.943480 -0.525726
O19   O     O_R   0.953390 0.633680 0.053510 -0.541927
O20   O     O_R   0.046610 0.133680 0.946490 -0.541946
C67   C     C_R   0.937644 0.464933 0.065556 0.718962
C68   C     C_R   0.062354 0.964952 0.934442 0.718980
O21   O     O_3   0.414488 0.533069 0.635193 -0.558419
C69   C     C_3   0.456266 0.514479 0.682233 -0.173425
H27   H     H_    0.442261 0.508410 0.723222 0.138387
H28   H     H_    0.485085 0.628413 0.683371 0.133559
H29   H     H_    0.476633 0.382374 0.677719 0.174327
O22   O     O_3   0.584012 0.035159 0.363243 -0.558017
C70   C     C_3   0.541682 0.022202 0.316579 -0.169632
H30   H     H_    0.555115 0.018914 0.275228 0.138464
H31   H     H_    0.513496 0.137412 0.316838 0.131658
H32   H     H_    0.520775 0.890672 0.320298 0.175094
Cl1   Cl    Cl    0.666186 0.644761 0.776174 -0.508344
Cl2   Cl    Cl    0.333823 0.144822 0.223819 -0.508954
Cl3   Cl    Cl    0.773208 0.621813 0.855444 -0.535026
Cl4   Cl    Cl    0.226802 0.121867 0.144546 -0.535037
O23   O     O_3   0.733089 0.006508 0.851250 -0.511352
C71   C     C_3   0.715319 0.161586 0.877736 -0.011711
H33   H     H_    0.697199 0.112550 0.913223 0.182997
H34   H     H_    0.685351 0.241044 0.847588 0.178582
H35   H     H_    0.748575 0.252422 0.896397 0.170386
O24   O     O_3   0.266918 0.506579 0.148742 -0.511340
C72   C     C_3   0.284687 0.661683 0.122255 -0.011831
H36   H     H_    0.302802 0.612680 0.086765 0.182981
H37   H     H_    0.314659 0.741129 0.152402 0.178535
H38   H     H_    0.251431 0.752520 0.103600 0.170415
Cl5   Cl    Cl    0.683354 0.254349 0.713261 -0.578985
Cl6   Cl    Cl    0.316656 0.754366 0.286730 -0.579145
Cl7   Cl    Cl    0.866170 0.862024 0.721323 -0.496790
Cl8   Cl    Cl    0.133838 0.361944 0.278669 -0.496802
Cl9   Cl    Cl    0.824636 0.220004 0.728824 -0.498794
Cl10  Cl    Cl    0.175372 0.719951 0.271168 -0.498794
O25   O     O_3   0.774069 0.750582 0.655566 -0.552998
C73   C     C_3   0.753422 0.720426 0.596947 0.010032
H39   H     H_    0.776526 0.797363 0.570340 0.176406
H40   H     H_    0.711674 0.756310 0.584327 0.093265
H41   H     H_    0.757030 0.571006 0.587824 0.186824
O26   O     O_3   0.225939 0.250519 0.344426 -0.553073
C74   C     C_3   0.246584 0.220347 0.403045 0.010414
H42   H     H_    0.223479 0.297260 0.429650 0.176465
H43   H     H_    0.288332 0.256247 0.415666 0.093488
H44   H     H_    0.242975 0.070921 0.412169 0.186842
Cl11  Cl    Cl    0.747160 0.103804 0.624835 -0.546552
Cl12  Cl    Cl    0.252848 0.603741 0.375156 -0.546270
O27   O     O_3   0.166967 0.268077 0.808758 -0.547158
C75   C     C_3   0.123788 0.353816 0.773421 -0.269244
H45   H     H_    0.100152 0.431396 0.799291 0.146022
H46   H     H_    0.098952 0.252984 0.744866 0.143221
H47   H     H_    0.138462 0.455632 0.745647 0.177775
O28   O     O_3   0.833059 0.767775 0.191313 -0.547187
C76   C     C_3   0.876238 0.853482 0.226658 -0.268822
H48   H     H_    0.899875 0.931121 0.200796 0.145962
H49   H     H_    0.901068 0.752612 0.255205 0.143205
H50   H     H_    0.861564 0.955249 0.254440 0.177794
Cl13  Cl    Cl    0.285421 0.781058 0.880924 -0.576150
Cl14  Cl    Cl    0.714440 0.282656 0.118922 -0.575995

loop_
_geom_bond_atom_site_label_1
_geom_bond_atom_site_label_2
_ccdc_geom_bond_type
C47   H21   S    
C58   O26   S    
C44   Cl4   S    
C56   C62   S    
C74   H43   S    
C34   C36   A    
C43   C53   S    
O4    C4    A    
C71   H35   S    
C64   C66   T    
O27   C75   S    
C76   H49   S    
O15   V4    S    
O10   V4    S    
C13   O27   S    
C40   H18   S    
C57   Cl11  S    
C13   C15   A    
C60   Cl10  S    
C16   C18   A    
O3    C3    A    
C72   H38   S    
C53   Cl1   S    
C27   C29   A    
C48   Cl6   S    
C28   C30   A    
C2    O14   A    
C9    C11   A    
O11   V2    S    
C46   C52   S    
C37   H15   S    
O12   V1    S    
C48   C56   S    
C31   H13   S    
O5    C5    A    
C2    O18   A    
C32   H14   S    
C57   C59   S    
O5    V1    S    
C50   C62   T    
C20   H8    S    
O19   C67   A    
C73   H41   S    
C56   C58   S    
C38   C40   A    
C70   H32   S    
C6    C35   S    
C37   C39   A    
C17   C68   S    
C43   C51   S    
C69   H29   S    
C19   C29   A    
C54   C56   S    
C49   C61   T    
C24   C26   A    
C22   H10   S    
C70   H30   S    
C59   Cl7   S    
C43   Cl3   S    
C11   C29   S    
C16   H6    S    
C74   H44   S    
C12   C30   S    
C39   H17   S    
O16   V3    S    
C24   C42   S    
V4    O17   S    
C45   C47   S    
C69   H28   S    
C76   H50   S    
C75   H46   S    
C1    C66   S    
C25   H11   S    
C7    C9    A    
C3    O8    A    
C26   H12   S    
C10   C12   A    
O9    V3    S    
C21   H9    S    
O6    C6    A    
C7    C17   A    
C76   H48   S    
C32   C34   A    
C71   H34   S    
C33   C35   A    
C46   H20   S    
C3    C50   S    
C54   H26   S    
C23   C25   A    
O4    V2    S    
C44   C52   S    
C28   Cl14  S    
C23   C41   S    
C75   H47   S    
V3    O19   S    
O13   V3    S    
C72   H36   S    
C47   C55   S    
O8    V2    S    
C14   O28   S    
C33   O21   S    
C43   H23   S    
C63   C65   T    
C54   Cl2   S    
O3    V1    S    
C19   H7    S    
O26   C74   S    
C36   C38   A    
C58   Cl12  S    
C8    C10   A    
C46   C48   S    
O23   C71   S    
C73   H40   S    
O1    C5    A    
C44   C54   S    
V4    O20   S    
C69   H27   S    
C52   C60   S    
C75   H45   S    
C26   C28   A    
C31   C41   A    
C59   Cl9   S    
O1    V2    S    
C25   C27   A    
C1    O17   A    
O2    V1    S    
C9    H3    S    
C8    H2    S    
C32   C42   A    
C48   H22   S    
C51   C63   S    
C21   C23   A    
O21   C69   S    
C55   C57   S    
C18   C67   S    
C45   O23   S    
C71   H33   S    
C7    H1    S    
C44   H24   S    
C58   C60   S    
O9    C68   A    
C51   C59   S    
C14   C16   A    
C15   H5    S    
O25   C73   S    
C46   O24   S    
C10   H4    S    
C72   H37   S    
O28   C76   S    
O6    V2    S    
C20   C30   A    
C4    O7    A    
C11   C13   A    
C2    C65   S    
O20   C68   A    
C55   C61   S    
V3    O18   S    
C34   O22   S    
O7    V1    S    
C8    C18   A    
C15   C17   A    
O2    C6    A    
O24   C72   S    
C52   C64   S    
C45   C51   S    
C31   C33   A    
C22   C24   A    
C1    O13   A    
C12   C14   A    
C39   C41   A    
C53   C55   S    
C40   C42   A    
C60   Cl8   S    
C74   H42   S    
C70   H31   S    
C57   O25   S    
C73   H39   S    
C47   Cl5   S    
C38   H16   S    
C4    C49   S    
C35   C37   A    
O10   C67   A    
C19   C21   A    
C45   H19   S    
C20   C22   A    
O14   V4    S    
C53   H25   S    
O22   C70   S    
C27   Cl13  S    
C5    C36   S    
