data_mof_unit_17355.cif
_audit_creation_date              2012-12-11T17:15:00-0500
_audit_creation_method            fapswitch 2.2
_symmetry_space_group_name_H-M    P1
_symmetry_Int_Tables_number       1
_space_group_crystal_system       triclinic
_cell_length_a                    7.224684
_cell_length_b                    12.279901
_cell_length_c                    21.184452
_cell_angle_alpha                 90.000053
_cell_angle_beta                  90.021743
_cell_angle_gamma                 89.999935
_cell_volume                      1879.45064158

loop_
_atom_site_label
_atom_site_type_symbol
_atom_type_description
_atom_site_fract_x
_atom_site_fract_y
_atom_site_fract_z
_atom_type_partial_charge
O1    O     O_R   0.354460 0.152320 0.595720 -0.538666
O2    O     O_R   0.645540 0.847680 0.404280 -0.537444
O3    O     O_R   0.145540 0.652320 0.404280 -0.538666
O4    O     O_R   0.854460 0.347680 0.595720 -0.537445
O5    O     O_R   0.683670 0.140090 0.727290 -0.543465
O6    O     O_R   0.316330 0.859910 0.272710 -0.510814
O7    O     O_R   0.816330 0.640090 0.272710 -0.543465
O8    O     O_R   0.183670 0.359910 0.727290 -0.510813
O9    O     O_R   0.854010 0.349340 0.727750 -0.539756
O10   O     O_R   0.145990 0.650660 0.272250 -0.520451
O11   O     O_R   0.645990 0.849340 0.272250 -0.539756
O12   O     O_R   0.354010 0.150660 0.727750 -0.520452
C1    C     C_R   0.515476 0.112095 0.746849 0.766200
C2    C     C_R   0.484394 0.888567 0.253412 0.746882
C3    C     C_R   0.984524 0.612095 0.253151 0.766199
C4    C     C_R   0.015606 0.388567 0.746588 0.746879
O13   O     O_R   0.684170 0.139420 0.596190 -0.540640
O14   O     O_R   0.315830 0.860580 0.403810 -0.541964
O15   O     O_R   0.815830 0.639420 0.403810 -0.540640
O16   O     O_R   0.184170 0.360580 0.596190 -0.541964
C5    C     C_R   0.515433 0.113123 0.574428 0.691744
C6    C     C_R   0.484568 0.886879 0.425571 0.692666
C7    C     C_R   0.984567 0.613123 0.425572 0.691744
C8    C     C_R   0.015431 0.386879 0.574429 0.692666
O17   O     O_3   0.520730 0.319480 0.661730 -0.377177
O18   O     O_3   0.479270 0.680520 0.338270 -0.382533
O19   O     O_3   0.979270 0.819480 0.338270 -0.377177
O20   O     O_3   0.020730 0.180520 0.661730 -0.382534
V1    V     V_3+5 0.795560 0.238090 0.661730 1.449729
V2    V     V_3+5 0.204440 0.761910 0.338270 1.489339
V3    V     V_3+5 0.704440 0.738090 0.338270 1.449729
V4    V     V_3+5 0.295560 0.261910 0.661730 1.489340
C9    C     C_R   0.004911 0.470699 0.796603 -0.055758
C10   C     C_R   0.993896 0.536651 0.199852 -0.049941
C11   C     C_R   0.495089 0.970699 0.203397 -0.055755
C12   C     C_R   0.506104 0.036651 0.800148 -0.049940
C13   C     C_R   0.879001 0.639848 0.835763 -0.188281
C14   C     C_R   0.031506 0.353787 0.160261 -0.168042
C15   C     C_R   0.620996 0.139849 0.164238 -0.188279
C16   C     C_R   0.468494 0.853787 0.839739 -0.168045
C17   C     C_R   0.899534 0.564574 0.787194 -0.235631
C18   C     C_R   0.999308 0.424759 0.210335 -0.269869
C19   C     C_R   0.600461 0.064575 0.212806 -0.235636
C20   C     C_R   0.500692 0.924759 0.789664 -0.269869
C21   C     C_R   0.087645 0.451664 0.855282 0.290229
C22   C     C_R   0.021262 0.577996 0.139106 0.292351
C23   C     C_R   0.412361 0.951662 0.144718 0.290229
C24   C     C_R   0.478739 0.077996 0.860893 0.292353
C25   C     C_R   0.030187 0.513716 0.908446 -0.016247
C26   C     C_R   0.021179 0.506538 0.086176 -0.039170
C27   C     C_R   0.469818 0.013715 0.091554 -0.016248
C28   C     C_R   0.478823 0.006537 0.913824 -0.039169
C29   C     C_R   0.943215 0.615624 0.896994 0.027469
C30   C     C_R   0.039051 0.392649 0.097544 0.046110
C31   C     C_R   0.556787 0.115623 0.103006 0.027470
C32   C     C_R   0.460952 0.892648 0.902455 0.046109
C33   C     C_R   0.043955 0.474377 0.971754 -0.002189
C34   C     C_R   0.003376 0.545027 0.022834 0.001744
C35   C     C_R   0.456051 0.974376 0.028246 -0.002187
C36   C     C_R   0.496628 0.045026 0.977166 0.001745
C37   C     C_R   0.931156 0.649346 0.009246 -0.144686
C38   C     C_R   0.072258 0.362916 0.984844 -0.165689
C39   C     C_R   0.568848 0.149345 0.990754 -0.144686
C40   C     C_R   0.427749 0.862914 0.015156 -0.165686
C41   C     C_R   0.908971 0.686721 0.947848 0.346307
C42   C     C_R   0.064910 0.321172 0.045872 0.388672
C43   C     C_R   0.591031 0.186720 0.052152 0.346305
C44   C     C_R   0.435095 0.821171 0.954127 0.388671
H1    H     H_    0.880509 0.702505 0.045939 0.183025
H2    H     H_    0.081666 0.303592 0.947416 0.169948
H3    H     H_    0.619494 0.202504 0.954061 0.183025
H4    H     H_    0.418344 0.803590 0.052583 0.169950
C45   C     C_1   0.994956 0.533110 0.478095 -0.174020
C46   C     C_1   0.005040 0.466893 0.521907 -0.174419
C47   C     C_1   0.505044 0.033110 0.521905 -0.174020
C48   C     C_1   0.494960 0.966893 0.478093 -0.174420
O21   O     O_3   0.850518 0.792830 0.940078 -0.651462
H5    H     H_    0.898962 0.820756 0.899489 0.289407
O22   O     O_3   0.082408 0.209726 0.052146 -0.649932
H6    H     H_    0.000375 0.184625 0.086495 0.293475
O23   O     O_3   0.649487 0.292828 0.059922 -0.651463
H7    H     H_    0.601037 0.320756 0.100510 0.289407
O24   O     O_3   0.417596 0.709724 0.947853 -0.649932
H8    H     H_    0.499627 0.684624 0.913503 0.293473
O25   O     O_3   0.067606 0.686399 0.134158 -0.637928
H9    H     H_    0.159848 0.692809 0.099720 0.309128
O26   O     O_3   0.229118 0.376798 0.858272 -0.635874
H10   H     H_    0.313101 0.398731 0.893092 0.306628
O27   O     O_3   0.432396 0.186399 0.865842 -0.637928
H11   H     H_    0.340156 0.192811 0.900281 0.309127
O28   O     O_3   0.270893 0.876793 0.141727 -0.635876
H12   H     H_    0.186907 0.898726 0.106908 0.306628
H13   H     H_    0.988993 0.392761 0.257872 0.120060
H14   H     H_    0.836486 0.580661 0.741718 0.126726
H15   H     H_    0.511006 0.892761 0.742128 0.120060
H16   H     H_    0.663504 0.080664 0.258283 0.126725
H17   H     H_    0.799792 0.712552 0.825870 0.133659
H18   H     H_    0.049337 0.268776 0.171831 0.130553
H19   H     H_    0.700200 0.212554 0.174131 0.133660
H20   H     H_    0.450663 0.768776 0.828168 0.130553

loop_
_geom_bond_atom_site_label_1
_geom_bond_atom_site_label_2
_ccdc_geom_bond_type
O26   H10   S    
O1    C5    A    
C18   H13   S    
C9    C21   A    
C45   C46   T    
O3    C7    A    
C10   C18   A    
C6    C48   S    
C14   H18   S    
C11   C23   A    
C13   H17   S    
O23   H7    S    
C25   C33   A    
C33   C38   A    
C16   C20   A    
O21   H5    S    
C42   O22   S    
C35   C40   A    
C26   C30   A    
C36   C39   A    
C40   C44   A    
O20   V1    S    
C21   O26   S    
O9    C4    A    
C14   C18   A    
O10   C3    A    
O25   H9    S    
O4    C8    A    
O11   C2    A    
O13   V1    S    
C31   C43   A    
C38   H2    S    
C28   C36   A    
C15   C31   A    
O24   H8    S    
C16   C32   A    
O2    C6    A    
C10   C22   A    
C11   C19   A    
C3    C10   S    
O5    C1    A    
O4    V1    S    
O9    V1    S    
C22   O25   S    
C13   C29   A    
C34   C37   A    
O7    C3    A    
O15   V3    S    
C35   C36   A    
O8    C4    A    
O12   V4    S    
O19   V2    S    
C23   O28   S    
C7    C45   S    
O5    V1    S    
C39   C43   A    
O7    V3    S    
C38   C42   A    
O8    V4    S    
O16   C8    A    
C41   O21   S    
C1    C12   S    
O28   H12   S    
C23   C27   A    
C32   C44   A    
O1    V4    S    
O13   C5    A    
O2    V3    S    
C26   C34   A    
O3    V2    S    
O15   C7    A    
C47   C48   T    
C4    C9    S    
O6    C2    A    
O10   V2    S    
C15   H19   S    
C17   H14   S    
C14   C30   A    
C21   C25   A    
C19   H16   S    
O14   V2    S    
O6    V2    S    
C39   H3    S    
C43   O23   S    
C24   O27   S    
C12   C20   A    
C27   C35   A    
C2    C11   S    
C29   C41   A    
O16   V4    S    
C37   H1    S    
C5    C47   S    
O14   C6    A    
C44   O24   S    
O18   V3    S    
C16   H20   S    
C15   C19   A    
C30   C42   A    
C22   C26   A    
C9    C17   A    
C20   H15   S    
C8    C46   S    
C33   C34   A    
O17   V4    S    
C25   C29   A    
C12   C24   A    
C27   C31   A    
C40   H4    S    
C13   C17   A    
O11   V3    S    
O22   H6    S    
C37   C41   A    
C24   C28   A    
O12   C1    A    
O27   H11   S    
C28   C32   A    
