data_mof_unit_63036.cif
_audit_creation_date              2012-12-10T17:54:05-0500
_audit_creation_method            fapswitch 2.2
_symmetry_space_group_name_H-M    P1
_symmetry_Int_Tables_number       1
_space_group_crystal_system       triclinic
_cell_length_a                    18.825179
_cell_length_b                    18.76224
_cell_length_c                    18.907522
_cell_angle_alpha                 109.510191
_cell_angle_beta                  109.26022
_cell_angle_gamma                 109.428842
_cell_volume                      5154.40804301

loop_
_atom_site_label
_atom_site_type_symbol
_atom_type_description
_atom_site_fract_x
_atom_site_fract_y
_atom_site_fract_z
_atom_type_partial_charge
C1    C     C_R   0.880770 0.381022 0.999410 0.797198
C2    C     C_R   0.815021 0.312993 0.998976 -0.079602
C3    C     C_R   0.745705 0.238887 0.920343 -0.202882
C4    C     C_R   0.680619 0.174848 0.920211 -0.212840
C5    C     C_R   0.686281 0.183319 0.998814 -0.080308
C6    C     C_R   0.761082 0.251309 0.076083 0.137313
C7    C     C_3   0.769418 0.315011 0.155537 -0.486478
C8    C     C_3   0.838313 0.386007 0.155469 -0.454786
C9    C     C_R   0.181649 0.502837 0.255836 0.127869
C10   C     C_R   0.185039 0.500669 0.183110 -0.089572
C11   C     C_R   0.256063 0.497976 0.174828 -0.209562
C12   C     C_R   0.883625 0.501625 0.881627 0.840981
C13   C     C_R   0.321017 0.498791 0.239778 -0.211840
C14   C     C_R   0.313726 0.499325 0.311851 -0.083888
C15   C     C_R   0.242081 0.500359 0.316332 0.121376
C16   C     C_3   0.199004 0.502515 0.369787 -0.471260
C17   C     C_3   0.129328 0.504306 0.300062 -0.479034
C18   C     C_R   0.261601 0.750844 0.076102 0.097766
C19   C     C_R   0.185688 0.684354 0.999183 -0.077996
C20   C     C_R   0.179522 0.676334 0.920445 -0.203711
C21   C     C_R   0.243662 0.741034 0.920317 -0.209451
C22   C     C_R   0.315665 0.812342 0.998918 -0.081764
C23   C     C_R   0.118363 0.618781 0.999556 0.792451
C24   C     C_R   0.326182 0.813232 0.075875 0.127587
C25   C     C_3   0.345153 0.884313 0.157438 -0.469071
C26   C     C_3   0.273883 0.815663 0.157451 -0.448599
C27   C     C_R   0.498745 0.381081 0.380237 0.866748
C28   C     C_R   0.614636 0.501819 0.617144 0.904941
C29   C     C_R   0.496437 0.618581 0.615082 0.785543
C30   C     C_R   0.378998 0.499909 0.378797 0.793455
C31   C     C_R   0.500883 0.881387 0.882027 0.798947
C32   C     C_R   0.618831 0.118908 0.000120 0.792655
C33   C     C_R   0.498688 0.118329 0.118074 0.803481
C34   C     C_R   0.118023 0.500059 0.117779 0.801829
C35   C     C_R   0.381305 0.881249 0.000206 0.793725
C36   C     C_R   0.467566 0.300682 0.232553 0.077431
C37   C     C_R   0.499780 0.313140 0.316049 -0.155122
C38   C     C_R   0.519719 0.251195 0.331622 -0.036924
C39   C     C_R   0.516486 0.185461 0.264705 -0.252714
C40   C     C_R   0.493886 0.180910 0.184075 -0.124706
C41   C     C_R   0.464290 0.235617 0.167652 0.152216
C42   C     C_3   0.490186 0.291761 0.130287 -0.457166
C43   C     C_3   0.493780 0.363501 0.201852 -0.470581
C44   C     C_R   0.497823 0.756985 0.680679 0.121709
C45   C     C_2   0.754850 0.574996 0.749143 -0.177600
C46   C     C_R   0.498840 0.684624 0.683810 -0.083165
C47   C     C_R   0.502104 0.677800 0.756827 -0.210188
C48   C     C_R   0.504709 0.743447 0.823544 -0.209478
C49   C     C_R   0.501130 0.814782 0.816229 -0.090355
C50   C     C_R   0.497108 0.818076 0.742925 0.126754
C51   C     C_3   0.491889 0.869468 0.697978 -0.472759
C52   C     C_3   0.491903 0.799165 0.626450 -0.473891
C53   C     C_2   0.678524 0.503097 0.687608 -0.274896
C54   C     C_2   0.815679 0.574927 0.822351 -0.153708
C55   C     C_2   0.820855 0.503017 0.812637 -0.311992
C56   C     C_R   0.823874 0.315854 0.076222 0.099980
Cu1   Cu    Cu3+1 0.999590 0.561790 0.061400 0.940504
Cu2   Cu    Cu3+1 0.000410 0.438210 0.938600 0.953377
Cu3   Cu    Cu3+1 0.558560 0.561730 0.496790 0.954368
Cu4   Cu    Cu3+1 0.434970 0.438120 0.496790 0.971149
Cu5   Cu    Cu3+1 0.438600 0.999980 0.938570 0.944949
Cu6   Cu    Cu3+1 0.561400 0.999920 0.061330 0.954162
H1    H     H_    0.770969 0.635994 0.748648 0.162354
H2    H     H_    0.904227 0.417077 0.211173 0.191650
H3    H     H_    0.261916 0.496521 0.119325 0.156009
H4    H     H_    0.375689 0.497677 0.233116 0.149388
H5    H     H_    0.174747 0.441360 0.372565 0.209230
H6    H     H_    0.238435 0.563878 0.433183 0.192637
H7    H     H_    0.065057 0.443870 0.262147 0.191829
H8    H     H_    0.128033 0.566405 0.323375 0.205944
H9    H     H_    0.123392 0.622503 0.859506 0.155492
H10   H     H_    0.236381 0.736239 0.859362 0.156012
H11   H     H_    0.410892 0.911502 0.211610 0.210525
H12   H     H_    0.658209 0.444761 0.693147 0.162356
H13   H     H_    0.329591 0.933694 0.147673 0.197695
H14   H     H_    0.298553 0.803410 0.211718 0.198684
H15   H     H_    0.216768 0.825045 0.147454 0.211709
H16   H     H_    0.535207 0.140064 0.276540 0.198215
H17   H     H_    0.554656 0.306575 0.135560 0.186349
H18   H     H_    0.437324 0.267421 0.064926 0.202482
H19   H     H_    0.560373 0.420062 0.248702 0.212941
H20   H     H_    0.442979 0.380477 0.177737 0.191112
H21   H     H_    0.503603 0.622752 0.762675 0.154273
H22   H     H_    0.859959 0.635858 0.883183 0.163537
H23   H     H_    0.507617 0.737550 0.879368 0.157094
H24   H     H_    0.429609 0.869987 0.677016 0.206993
H25   H     H_    0.551388 0.934353 0.734097 0.191696
H26   H     H_    0.429423 0.758807 0.564448 0.192837
H27   H     H_    0.551171 0.823519 0.620877 0.209078
H28   H     H_    0.783419 0.444803 0.749363 0.163324
H29   H     H_    0.739768 0.232701 0.859331 0.154080
H30   H     H_    0.625556 0.119866 0.859226 0.149006
H31   H     H_    0.709701 0.319945 0.143200 0.188504
H32   H     H_    0.795690 0.305082 0.211193 0.205867
H33   H     H_    0.818486 0.432082 0.142882 0.212249
O1    O     O_R   0.909480 0.462010 0.051860 -0.587679
O2    O     O_R   0.445180 0.357580 0.407200 -0.573779
O3    O     O_R   0.638540 0.552110 0.586390 -0.582712
O4    O     O_R   0.534170 0.447730 0.586390 -0.573397
O5    O     O_R   0.548350 0.642270 0.586380 -0.589807
O6    O     O_R   0.443970 0.537890 0.586380 -0.592766
O7    O     O_R   0.459360 0.552110 0.407190 -0.591461
O8    O     O_R   0.354990 0.447740 0.407190 -0.586796
O9    O     O_R   0.448700 0.909820 0.858480 -0.588229
O10   O     O_R   0.552410 0.909770 0.962140 -0.585091
O11   O     O_R   0.538310 0.090150 0.948110 -0.588221
O12   O     O_R   0.910180 0.357650 0.948150 -0.585007
O13   O     O_R   0.642020 0.090090 0.051780 -0.580618
O14   O     O_R   0.447590 0.090130 0.037760 -0.582833
O15   O     O_R   0.551300 0.090080 0.141420 -0.587883
O16   O     O_R   0.357980 0.909810 0.948120 -0.585279
O17   O     O_R   0.461690 0.909750 0.051790 -0.584562
O18   O     O_R   0.910060 0.552180 0.962250 -0.580201
O19   O     O_R   0.910760 0.447820 0.858550 -0.587346
O20   O     O_R   0.089820 0.642350 0.051850 -0.589255
O21   O     O_R   0.090520 0.537990 0.948140 -0.587069
O22   O     O_R   0.089240 0.552180 0.141450 -0.586940
O23   O     O_R   0.089940 0.447820 0.037750 -0.584487
O24   O     O_R   0.549550 0.461960 0.407200 -0.587487
C57   C     C_2   0.549580 0.255834 0.417188 0.845061
O25   O     O_2   0.583127 0.324771 0.483421 -0.618909
O26   O     O_R   0.541312 0.181005 0.422177 -0.772831
H34   H     H_    0.564491 0.192242 0.483700 0.331850

loop_
_geom_bond_atom_site_label_1
_geom_bond_atom_site_label_2
_ccdc_geom_bond_type
C34   O23   A    
Cu3   Cu4   S    
C42   H18   S    
C41   C42   S    
C19   C20   A    
C18   C26   S    
Cu4   O4    S    
Cu5   O14   S    
C8    C56   S    
C54   H22   S    
C52   H27   S    
C7    C8    S    
Cu1   O20   S    
Cu6   O10   S    
C17   H7    S    
C22   C35   S    
C18   C24   A    
C36   C37   A    
C31   C49   S    
C18   C19   A    
C55   H28   S    
C5    C6    A    
Cu6   O13   S    
C28   O3    A    
C15   C16   S    
Cu2   O23   S    
C3    H29   S    
Cu2   O12   S    
C23   O21   A    
C54   C55   D    
C53   H12   S    
C44   C46   A    
C16   C17   S    
Cu1   O1    S    
C30   O8    A    
C26   H14   S    
C20   H9    S    
C16   H6    S    
C47   H21   S    
Cu4   O8    S    
C9    C10   A    
C5    C32   S    
C38   C57   S    
C44   C52   S    
C34   O22   A    
C45   C53   D    
C42   H17   S    
C32   O11   A    
C21   C22   A    
Cu2   O21   S    
Cu3   O5    S    
C31   O10   A    
C36   C41   A    
C8    H33   S    
C14   C30   S    
C51   H24   S    
C57   O26   S    
C12   O19   A    
C13   H4    S    
C7    H31   S    
C26   H15   S    
C21   H10   S    
C51   C52   S    
C33   C40   S    
C39   H16   S    
C52   H26   S    
Cu5   O9    S    
C24   C25   S    
Cu4   O2    S    
C51   H25   S    
C39   C40   A    
Cu1   O18   S    
C25   C26   S    
C45   H1    S    
C3    C4    A    
C25   H13   S    
C19   C23   S    
C37   C38   A    
C47   C48   A    
Cu6   O15   S    
C30   O7    A    
C50   C51   S    
C29   O6    A    
C10   C34   S    
C16   H5    S    
Cu5   O11   S    
C1    O12   A    
C28   O4    A    
C9    C17   S    
C48   C49   A    
C8    H2    S    
C45   C54   S    
C43   H19   S    
C22   C24   A    
C33   O14   A    
C42   C43   S    
Cu4   O6    S    
Cu5   O16   S    
C35   O16   A    
C57   O25   D    
Cu1   O22   S    
C12   O18   A    
C44   C50   A    
C43   H20   S    
C7    H32   S    
C46   C47   A    
C27   O2    A    
Cu3   O24   S    
C29   O5    A    
C48   H23   S    
Cu3   O7    S    
C6    C56   A    
C4    C5    A    
C28   C53   S    
C6    C7    S    
C27   O24   A    
C29   C46   S    
C31   O9    A    
C2    C3    A    
C9    C15   A    
C2    C56   A    
C11   C13   A    
Cu1   Cu2   S    
C38   C39   A    
C27   C37   S    
C1    O1    A    
C1    C2    S    
C25   H11   S    
Cu5   Cu6   S    
C12   C55   S    
C10   C11   A    
C23   O20   A    
C17   H8    S    
Cu6   O17   S    
C20   C21   A    
C49   C50   A    
C32   O13   A    
Cu2   O19   S    
Cu3   O3    S    
C14   C15   A    
C36   C43   S    
C40   C41   A    
C33   O15   A    
O26   H34   S    
C13   C14   A    
C35   O17   A    
C11   H3    S    
C4    H30   S    
