data_mof_unit_26680.cif
_audit_creation_date              2012-12-11T15:31:41-0500
_audit_creation_method            fapswitch 2.2
_symmetry_space_group_name_H-M    P1
_symmetry_Int_Tables_number       1
_space_group_crystal_system       triclinic
_cell_length_a                    6.944108
_cell_length_b                    14.760104
_cell_length_c                    21.311282
_cell_angle_alpha                 74.909245
_cell_angle_beta                  90.215961
_cell_angle_gamma                 90.740141
_cell_volume                      2108.81291997

loop_
_atom_site_label
_atom_site_type_symbol
_atom_type_description
_atom_site_fract_x
_atom_site_fract_y
_atom_site_fract_z
_atom_type_partial_charge
O1    O     O_R   0.648150 0.130050 0.214300 -0.538498
O2    O     O_R   0.351850 0.869950 0.785700 -0.538499
O3    O     O_R   0.320490 0.006660 0.340150 -0.543488
O4    O     O_R   0.679510 0.993340 0.659850 -0.543488
O5    O     O_R   0.146100 0.869940 0.285700 -0.540086
O6    O     O_R   0.853900 0.130060 0.714300 -0.540086
C1    C     C_R   0.488937 0.001802 0.367109 0.698886
C2    C     C_R   0.511063 0.998198 0.632891 0.698886
O7    O     O_R   0.318690 0.137980 0.218120 -0.539703
O8    O     O_R   0.681310 0.862020 0.781880 -0.539704
O9    O     O_R   0.144280 0.002190 0.162800 -0.540998
O10   O     O_R   0.855720 0.997810 0.837200 -0.540998
C3    C     C_R   0.488376 0.175617 0.205997 0.712951
C4    C     C_R   0.511624 0.824383 0.794003 0.712951
O11   O     O_R   0.649960 0.997790 0.337200 -0.540387
O12   O     O_R   0.350040 0.002210 0.662800 -0.540386
O13   O     O_3   0.479300 0.955290 0.231990 -0.372823
O14   O     O_3   0.520700 0.044710 0.768010 -0.372823
V1    V     V_3+5 0.206040 0.008290 0.253340 1.427226
V2    V     V_3+5 0.793960 0.991710 0.746660 1.427226
O15   O     O_R   0.814320 0.993320 0.159850 -0.545156
O16   O     O_R   0.185680 0.006680 0.840150 -0.545156
C5    C     C_R   0.982677 0.998373 0.132839 0.673606
C6    C     C_R   0.017323 0.001627 0.867161 0.673606
O17   O     O_R   0.816120 0.862000 0.281880 -0.541955
O18   O     O_R   0.183880 0.138000 0.718120 -0.541955
C7    C     C_R   0.983726 0.824333 0.294076 0.693752
C8    C     C_R   0.016274 0.175667 0.705924 0.693752
V3    V     V_3+5 0.705540 0.991700 0.246660 1.421890
V4    V     V_3+5 0.294460 0.008300 0.753340 1.421889
O19   O     O_3   0.982150 0.044700 0.268010 -0.367748
O20   O     O_3   0.017850 0.955300 0.731990 -0.367748
C9    C     C_R   0.986613 0.722749 0.321595 -0.035111
C10   C     C_R   0.013387 0.277251 0.678405 -0.035111
C11   C     C_R   0.926265 0.566533 0.310135 -0.156542
C12   C     C_R   0.073735 0.433467 0.689865 -0.156542
C13   C     C_R   0.941997 0.662732 0.282591 -0.176282
C14   C     C_R   0.058002 0.337268 0.717409 -0.176282
C15   C     C_R   0.014731 0.686624 0.388427 -0.213048
C16   C     C_R   0.985269 0.313375 0.611573 -0.213047
C17   C     C_R   0.994577 0.589216 0.418152 0.085875
C18   C     C_R   0.005423 0.410784 0.581848 0.085875
C19   C     C_R   0.950248 0.529486 0.377354 0.134040
C20   C     C_R   0.049752 0.470514 0.622645 0.134040
C21   C     C_R   0.013098 0.549515 0.486768 0.054599
C22   C     C_R   0.986902 0.450485 0.513232 0.054599
C23   C     C_R   0.944076 0.394474 0.470188 -0.178369
C24   C     C_R   0.055924 0.605526 0.529812 -0.178369
C25   C     C_R   0.926827 0.433349 0.403815 -0.178890
C26   C     C_R   0.073172 0.566651 0.596185 -0.178890
H1    H     H_    0.892974 0.387496 0.372844 0.142278
H2    H     H_    0.107026 0.612503 0.627156 0.142278
H3    H     H_    0.954419 0.262885 0.584308 0.093288
H4    H     H_    0.045581 0.737115 0.415692 0.093288
H5    H     H_    0.082653 0.309438 0.769049 0.102286
H6    H     H_    0.917347 0.690562 0.230951 0.102286
H7    H     H_    0.891330 0.521094 0.278994 0.116951
H8    H     H_    0.108670 0.478906 0.721006 0.116951
H9    H     H_    0.921882 0.319722 0.486007 0.124005
H10   H     H_    0.078118 0.680278 0.513993 0.124005
C27   C     C_3   0.918340 0.921261 0.991273 -0.138551
C28   C     C_3   0.081659 0.078739 0.008727 -0.138551
C29   C     C_3   0.094236 0.925099 0.035557 -0.142895
C30   C     C_3   0.905764 0.074901 0.964443 -0.142895
H11   H     H_    0.171879 0.863338 0.065283 0.101205
H12   H     H_    0.828120 0.136662 0.934717 0.101205
H13   H     H_    0.850851 0.856362 0.983628 0.099803
H14   H     H_    0.149149 0.143638 0.016372 0.099803
C31   C     C_3   0.991048 0.998910 0.062212 -0.004100
C32   C     C_3   0.008952 0.001090 0.937788 -0.004100
C33   C     C_3   0.814937 0.995081 0.018730 -0.119047
C34   C     C_3   0.185063 0.004918 0.981270 -0.119047
H15   H     H_    0.662140 0.990942 0.034485 0.105724
H16   H     H_    0.337860 0.009058 0.965515 0.105724
C35   C     C_3   0.612765 0.070416 0.466225 -0.120948
C36   C     C_3   0.387235 0.929584 0.533775 -0.120948
C37   C     C_3   0.435585 0.081988 0.507391 -0.130650
C38   C     C_3   0.564415 0.918012 0.492609 -0.130650
H17   H     H_    0.382035 0.149504 0.513903 0.116309
H18   H     H_    0.617965 0.850496 0.486097 0.116309
H19   H     H_    0.707042 0.128031 0.438260 0.132286
H20   H     H_    0.292958 0.871969 0.561740 0.132286
C39   C     C_3   0.503996 0.998725 0.562293 -0.014032
C40   C     C_3   0.496004 0.001275 0.437707 -0.014032
C41   C     C_3   0.681485 0.987151 0.521924 -0.130168
C42   C     C_3   0.318514 0.012849 0.478076 -0.130168
H21   H     H_    0.831628 0.976437 0.540215 0.113468
H22   H     H_    0.168372 0.023563 0.459784 0.113468
C43   C     C_R   0.499967 0.277539 0.178923 -0.083847
C44   C     C_R   0.500033 0.722460 0.821077 -0.083847
C45   C     C_R   0.531206 0.435360 0.191182 -0.203506
C46   C     C_R   0.468794 0.564640 0.808818 -0.203506
C47   C     C_R   0.519156 0.338858 0.219112 -0.039650
C48   C     C_R   0.480844 0.661142 0.780888 -0.039650
C49   C     C_R   0.491620 0.313174 0.111380 -0.227480
C50   C     C_R   0.508381 0.686826 0.888620 -0.227480
C51   C     C_R   0.502438 0.410874 0.081948 0.087910
C52   C     C_R   0.497562 0.589126 0.918052 0.087910
C53   C     C_R   0.523258 0.471571 0.123441 0.130877
C54   C     C_R   0.476742 0.528429 0.876559 0.130877
C55   C     C_R   0.493527 0.450169 0.013032 0.062328
C56   C     C_R   0.506473 0.549831 0.986968 0.062328
C57   C     C_R   0.528139 0.606764 0.030672 -0.193556
C58   C     C_R   0.471861 0.393236 0.969328 -0.193556
C59   C     C_R   0.536002 0.568230 0.097297 -0.198752
C60   C     C_R   0.463998 0.431769 0.902703 -0.198752
H23   H     H_    0.552451 0.614910 0.128788 0.120632
H24   H     H_    0.447549 0.385090 0.871211 0.120632
H25   H     H_    0.523102 0.737814 0.916473 0.095627
H26   H     H_    0.476898 0.262185 0.083527 0.095627
H27   H     H_    0.546481 0.482528 0.222428 0.119260
H28   H     H_    0.453519 0.517472 0.777572 0.119260
H29   H     H_    0.539758 0.682045 0.015251 0.117286
H30   H     H_    0.460242 0.317954 0.984749 0.117286
C61   C     C_1   0.474537 0.695712 0.710992 0.265143
N1    N     N_1   0.469847 0.723259 0.654975 -0.393222
C62   C     C_1   0.525463 0.304288 0.289008 0.265143
N2    N     N_1   0.530153 0.276740 0.345025 -0.393222

loop_
_geom_bond_atom_site_label_1
_geom_bond_atom_site_label_2
_ccdc_geom_bond_type
C27   C32   S    
C29   H11   S    
C55   C56   A    
O11   V3    S    
C2    C39   S    
O13   V3    S    
C5    C31   S    
O4    C2    A    
V1    O19   S    
C58   C60   A    
C6    C32   S    
C23   C25   A    
C21   C22   A    
C7    C9    S    
C59   H23   S    
O9    V1    S    
C9    C15   A    
C47   C62   S    
C10   C16   A    
C57   H29   S    
C36   C38   S    
O3    C1    A    
C38   H18   S    
C35   C40   S    
C15   H4    S    
C37   C39   S    
O12   V4    S    
C61   N1    T    
C31   C33   S    
C18   C22   A    
C30   C33   S    
C45   H27   S    
C27   C29   S    
O7    C3    A    
C4    C44   S    
C28   C30   S    
O5    C7    A    
C13   H6    S    
C35   C41   S    
O6    C8    A    
C14   H5    S    
C29   C31   S    
O8    V2    S    
C25   H1    S    
C50   C52   A    
C26   H2    S    
O3    V1    S    
O14   V4    S    
C30   C32   S    
C11   C19   A    
O14   V2    S    
C24   H10   S    
C27   C33   S    
C41   H21   S    
C1    C40   S    
C8    C10   S    
C2    O12   A    
C17   C19   A    
C18   C20   A    
C36   C39   S    
O1    V3    S    
C51   C53   A    
O7    V1    S    
C44   C48   A    
C37   H17   S    
O17   V3    S    
C53   C59   A    
C19   C25   A    
C12   H8    S    
C34   H16   S    
O8    C4    A    
C36   H20   S    
C33   H15   S    
C35   H19   S    
C1    O11   A    
C52   C56   A    
O15   V3    S    
C9    C13   A    
C28   C31   S    
C30   H12   S    
C43   C49   A    
C45   C47   A    
C27   H13   S    
O10   V2    S    
C46   C48   A    
C28   C34   S    
C57   C59   A    
C24   C26   A    
C35   C37   S    
C58   H30   S    
C38   C41   S    
C39   C41   S    
C37   C42   S    
O18   V4    S    
C55   C58   A    
C52   C54   A    
O15   C5    A    
O16   C6    A    
C12   C20   A    
O1    C3    A    
O2    V4    S    
C36   C42   S    
C46   C54   A    
V2    O20   S    
C21   C24   A    
C20   C26   A    
C22   C23   A    
O16   V4    S    
C3    C43   S    
C10   C14   A    
O18   C8    A    
C46   H28   S    
C40   C42   S    
C16   C18   A    
C49   H26   S    
C48   C61   S    
C49   C51   A    
C44   C50   A    
O5    V1    S    
O17   C7    A    
O6    V2    S    
C50   H25   S    
O10   C6    A    
C54   C60   A    
C28   H14   S    
C11   H7    S    
C12   C14   A    
C11   C13   A    
V3    O19   S    
C62   N2    T    
V4    O20   S    
C60   H24   S    
O9    C5    A    
O13   V1    S    
C42   H22   S    
C43   C47   A    
C56   C57   A    
O2    C4    A    
C23   H9    S    
O4    V2    S    
C38   C40   S    
C29   C34   S    
C15   C17   A    
C16   H3    S    
C17   C21   A    
C32   C34   S    
C45   C53   A    
C51   C55   A    
