data_mof_unit_9921.cif
_audit_creation_date              2012-12-11T15:52:40-0500
_audit_creation_method            fapswitch 2.2
_symmetry_space_group_name_H-M    P1
_symmetry_Int_Tables_number       1
_space_group_crystal_system       triclinic
_cell_length_a                    6.926542
_cell_length_b                    14.557882
_cell_length_c                    16.019334
_cell_angle_alpha                 90.246822
_cell_angle_beta                  90.066714
_cell_angle_gamma                 90.041441
_cell_volume                      1615.30554501

loop_
_atom_site_label
_atom_site_type_symbol
_atom_type_description
_atom_site_fract_x
_atom_site_fract_y
_atom_site_fract_z
_atom_type_partial_charge
O1    O     O_R   0.494400 0.415640 0.412830 -0.539636
O2    O     O_R   0.823920 0.405510 0.586560 -0.543607
O3    O     O_R   0.994250 0.584360 0.587170 -0.541477
C1    C     C_R   0.654896 0.383220 0.615407 0.684949
O4    O     O_R   0.824110 0.404610 0.413450 -0.542674
O5    O     O_R   0.994440 0.583460 0.412820 -0.540091
C2    C     C_R   0.654968 0.382191 0.384326 0.689000
O6    O     O_R   0.494210 0.416540 0.587180 -0.540225
O7    O     O_3   0.660810 0.558680 0.500000 -0.369959
V1    V     V_3+5 0.935650 0.489110 0.500000 1.390295
O8    O     O_R   0.324150 0.594490 0.413440 -0.543318
C3    C     C_R   0.155071 0.616610 0.384308 0.684984
O9    O     O_R   0.323970 0.595390 0.586550 -0.544074
C4    C     C_R   0.155161 0.618261 0.615011 0.662362
V2    V     V_3+5 0.435660 0.510890 0.500000 1.388461
O10   O     O_3   0.160630 0.441320 0.500000 -0.367418
C5    C     C_3   0.080086 0.639209 0.767533 -0.309876
H1    H     H_    0.935817 0.607237 0.757185 0.147644
H2    H     H_    0.181475 0.582178 0.782128 0.103052
C6    C     C_3   0.075000 0.708015 0.842635 0.033661
H3    H     H_    0.191405 0.687747 0.886932 0.117395
H4    H     H_    0.850631 0.733873 0.655144 0.145459
H5    H     H_    0.830397 0.837823 0.762009 0.145337
C7    C     C_3   0.995795 0.764369 0.666419 -0.323869
C8    C     C_3   0.343163 0.734021 0.702511 -0.332530
C9    C     C_3   0.144509 0.687580 0.686081 0.088428
H6    H     H_    0.394703 0.768534 0.644808 0.141939
H7    H     H_    0.452425 0.681199 0.719446 0.142645
C10   C     C_3   0.121238 0.808021 0.811877 0.112430
C11   C     C_3   0.981903 0.834271 0.739547 -0.314912
C12   C     C_3   0.328660 0.805443 0.773931 -0.369192
H8    H     H_    0.436023 0.787904 0.823040 0.141022
H9    H     H_    0.368140 0.874471 0.749611 0.144977
H10   H     H_    0.038614 0.800727 0.608347 0.126836
H11   H     H_    0.018713 0.904033 0.716269 0.121289
C13   C     C_R   0.953298 0.773260 0.215444 -0.158504
H12   H     H_    0.812493 0.791279 0.191116 0.116380
C14   C     C_R   0.964303 0.710142 0.281058 -0.152930
H13   H     H_    0.831438 0.681344 0.305067 0.118448
C15   C     C_R   0.143940 0.684494 0.315027 -0.048327
C16   C     C_R   0.312266 0.723706 0.281396 -0.158719
H14   H     H_    0.453079 0.705662 0.305698 0.116250
C17   C     C_R   0.301258 0.786836 0.215794 -0.152288
H15   H     H_    0.434126 0.815625 0.191778 0.118502
C18   C     C_R   0.121612 0.812555 0.181887 -0.047370
C19   C     C_R   0.812293 0.274374 0.716365 -0.160904
H16   H     H_    0.953077 0.292975 0.692454 0.116509
C20   C     C_R   0.801325 0.209664 0.780544 -0.156137
H17   H     H_    0.934187 0.180312 0.804048 0.118040
C21   C     C_R   0.621651 0.183226 0.813769 -0.046424
C22   C     C_R   0.453242 0.223229 0.781018 -0.161059
H18   H     H_    0.312460 0.204635 0.804933 0.116516
C23   C     C_R   0.464209 0.287936 0.716835 -0.155982
H19   H     H_    0.331346 0.317288 0.693332 0.118174
C24   C     C_R   0.643879 0.314345 0.683586 -0.046238
C25   C     C_R   0.812146 0.274232 0.281369 -0.156781
H20   H     H_    0.952993 0.292813 0.305502 0.116747
C26   C     C_R   0.801166 0.210367 0.215838 -0.151919
H21   H     H_    0.934069 0.181590 0.191712 0.118830
C27   C     C_R   0.621508 0.183958 0.182101 -0.047705
C28   C     C_R   0.453141 0.223245 0.215847 -0.156760
H22   H     H_    0.312300 0.204660 0.191709 0.116776
C29   C     C_R   0.464122 0.287113 0.281380 -0.151910
H23   H     H_    0.331226 0.315894 0.305509 0.118783
C30   C     C_R   0.643783 0.313513 0.315122 -0.047827
O11   O     O_R   0.771300 0.080930 0.910090 -0.540295
O12   O     O_R   0.441270 0.092800 0.083770 -0.542638
O13   O     O_R   0.271080 0.913920 0.084380 -0.539729
C31   C     C_R   0.610378 0.115261 0.112911 0.688936
O14   O     O_R   0.441580 0.091910 0.910670 -0.543502
O15   O     O_R   0.271390 0.913020 0.910040 -0.543208
C32   C     C_R   0.610617 0.114268 0.881879 0.685211
O16   O     O_R   0.770990 0.081830 0.084440 -0.539770
O17   O     O_3   0.604750 0.938760 0.997250 -0.368582
V3    V     V_3+5 0.329850 0.008280 0.997210 1.390894
O18   O     O_R   0.941680 0.901940 0.910610 -0.539197
C33   C     C_R   0.110729 0.878895 0.882169 0.663482
O19   O     O_R   0.941370 0.902830 0.083720 -0.544447
C34   C     C_R   0.110464 0.880614 0.112761 0.683267
V4    V     V_3+5 0.829860 0.986420 0.997150 1.389225
O20   O     O_3   0.104830 0.056030 0.997180 -0.367461
C35   C     C_3   0.884323 0.698415 0.891220 -0.806373
H24   H     H_    0.759470 0.721601 0.853480 0.213101
H25   H     H_    0.860647 0.625284 0.907952 0.205032
H26   H     H_    0.889933 0.737713 0.950652 0.214575

loop_
_geom_bond_atom_site_label_1
_geom_bond_atom_site_label_2
_ccdc_geom_bond_type
C8    C12   S    
C14   C15   A    
C29   C30   A    
C6    C35   S    
C16   H14   S    
C1    O6    A    
C23   H19   S    
O13   V3    S    
C11   H11   S    
C5    C9    S    
C13   H12   S    
C7    C9    S    
O5    C3    A    
C14   H13   S    
O19   V4    S    
C26   C27   A    
C25   C30   A    
C5    C6    S    
C25   H20   S    
C28   C29   A    
C21   C32   S    
O8    V2    S    
O11   C32   A    
C19   C24   A    
C12   H9    S    
C31   O16   A    
O1    V2    S    
O7    V1    S    
O13   C34   A    
C20   C21   A    
O17   V4    S    
O9    C4    A    
C16   C17   A    
C8    C9    S    
C21   C22   A    
C6    C10   S    
C23   C24   A    
C19   C20   A    
O17   V3    S    
C22   H18   S    
H5    C11   S    
O18   C33   A    
O4    C2    A    
O19   C34   A    
V3    O20   S    
C26   H21   S    
C7    H10   S    
C27   C28   A    
C8    H7    S    
C3    C15   S    
O2    C1    A    
C17   H15   S    
C10   C11   S    
C2    C30   S    
C12   H8    S    
C5    H1    S    
C13   C18   A    
C18   C34   S    
C4    C9    S    
C17   C18   A    
O3    C4    A    
C20   H17   S    
O6    V2    S    
C35   H25   S    
O9    V2    S    
C1    C24   S    
H4    C7    S    
O12   V3    S    
O2    V1    S    
O15   C33   A    
O12   C31   A    
C19   H16   S    
C15   C16   A    
O1    C2    A    
O18   V4    S    
V4    O20   S    
O5    V1    S    
O8    C3    A    
C8    H6    S    
C35   H26   S    
O11   V4    S    
C13   C14   A    
O7    V2    S    
O4    V1    S    
C10   C12   S    
O3    V1    S    
V1    O10   S    
O15   V3    S    
C27   C31   S    
C5    H2    S    
O16   V4    S    
C25   C26   A    
C28   H22   S    
C7    C11   S    
C29   H23   S    
C10   C33   S    
C6    H3    S    
C35   H24   S    
O14   V3    S    
O14   C32   A    
C22   C23   A    
V2    O10   S    
