data_mof_unit_46927.cif
_audit_creation_date              2013-03-05T16:01:15-0500
_audit_creation_method            fapswitch 2.2
_symmetry_space_group_name_H-M    P1
_symmetry_Int_Tables_number       1
_space_group_crystal_system       triclinic
_cell_length_a                    14.83448
_cell_length_b                    14.937332
_cell_length_c                    17.261701
_cell_angle_alpha                 107.875522
_cell_angle_beta                  73.720775
_cell_angle_gamma                 115.951048
_cell_volume                      3225.28163163

loop_
_atom_site_label
_atom_site_type_symbol
_atom_site_description
_atom_site_fract_x
_atom_site_fract_y
_atom_site_fract_z
_atom_type_partial_charge
O1    O     O_R   0.020090 0.662480 0.528530 -0.602088
O2    O     O_R   0.979910 0.337520 0.471470 -0.602424
O3    O     O_R   0.160710 0.620650 0.491980 -0.547357
O4    O     O_R   0.839290 0.379350 0.508020 -0.528768
C1    C     C_R   0.118603 0.687465 0.513135 0.834081
C2    C     C_R   0.881374 0.312479 0.486471 0.872106
O5    O     O_R   0.921540 0.523360 0.633990 -0.577325
O6    O     O_R   0.078460 0.476640 0.366010 -0.581962
O7    O     O_R   0.062170 0.481520 0.597440 -0.624032
O8    O     O_R   0.937830 0.518480 0.402560 -0.544277
C3    C     C_R   0.991358 0.505929 0.652727 0.812663
C4    C     C_R   0.009401 0.495250 0.347332 0.854933
Cu1   Cu    Cu3+1 0.916740 0.524770 0.521640 1.003217
Cu2   Cu    Cu3+1 0.083260 0.475230 0.478360 0.974023
C5    C     C_R   0.994155 0.517847 0.739500 -0.083958
C6    C     C_R   0.009337 0.487452 0.260700 -0.095620
C7    C     C_R   0.078522 0.516347 0.760142 -0.228478
C8    C     C_R   0.928488 0.495282 0.239861 -0.177955
C9    C     C_R   0.084437 0.529697 0.842000 0.399578
C10   C     C_R   0.925146 0.485836 0.158102 0.383062
C11   C     C_R   0.003851 0.542490 0.904437 0.061116
C12   C     C_R   0.005479 0.471582 0.095985 0.060607
C13   C     C_R   0.921198 0.547442 0.884445 -0.178751
C14   C     C_R   0.084897 0.461057 0.116180 -0.175855
C15   C     C_R   0.916149 0.535027 0.802266 -0.167872
C16   C     C_R   0.087017 0.469038 0.198207 -0.172124
C17   C     C_2   0.001349 0.545617 0.990297 -0.098579
C18   C     C_2   0.010119 0.470264 0.010063 -0.097318
H1    H     H_    0.140909 0.505814 0.712877 0.165909
H2    H     H_    0.866756 0.507731 0.286864 0.214032
H3    H     H_    0.149653 0.461738 0.212668 0.181107
H4    H     H_    0.850990 0.537781 0.787895 0.178936
H5    H     H_    0.026518 0.409705 0.962185 0.180172
H6    H     H_    0.985116 0.606360 0.038000 0.181747
H7    H     H_    0.859266 0.558081 0.932354 0.183800
H8    H     H_    0.146441 0.448975 0.068549 0.181356
C19   C     C_R   0.185857 0.795434 0.524122 -0.098977
C20   C     C_R   0.814064 0.204469 0.473502 -0.095803
C21   C     C_R   0.219336 0.969955 0.597131 -0.173793
C22   C     C_R   0.781239 0.031036 0.397576 -0.167852
C23   C     C_R   0.152679 0.868577 0.581997 -0.249647
C24   C     C_R   0.848076 0.132085 0.415280 -0.238112
C25   C     C_R   0.285883 0.824790 0.480241 0.327254
C26   C     C_R   0.712871 0.174663 0.514934 0.281086
C27   C     C_R   0.358853 0.922273 0.507787 0.020716
C28   C     C_R   0.640526 0.077981 0.484925 0.025079
C29   C     C_R   0.322272 0.997170 0.561299 0.106626
C30   C     C_R   0.677673 0.003614 0.431321 0.105111
C31   C     C_R   0.466021 0.948516 0.484660 0.065619
C32   C     C_R   0.533378 0.051849 0.506531 0.075800
C33   C     C_R   0.491336 0.126286 0.545297 -0.133998
C34   C     C_R   0.508314 0.874374 0.444847 -0.092228
C35   C     C_R   0.388306 0.098937 0.576470 -0.190412
C36   C     C_R   0.611561 0.902062 0.414297 -0.198379
H9    H     H_    0.359907 0.158011 0.611318 0.153989
H10   H     H_    0.640168 0.843244 0.379064 0.163222
H11   H     H_    0.926419 0.153474 0.383992 0.165530
H12   H     H_    0.075060 0.847507 0.614915 0.167992
H13   H     H_    0.191376 0.026442 0.639380 0.154363
H14   H     H_    0.809738 0.975017 0.355175 0.154266
H15   H     H_    0.536880 0.206606 0.552063 0.181070
H16   H     H_    0.463155 0.793978 0.437072 0.237924
N1    N     N_R   0.208390 0.438070 0.445820 -0.210651
N2    N     N_R   0.791610 0.561930 0.554180 -0.192531
C37   C     C_R   0.302488 0.344739 0.348440 -0.286571
C38   C     C_R   0.699116 0.657388 0.651329 -0.284544
C39   C     C_R   0.213648 0.363557 0.378065 0.077944
C40   C     C_R   0.787661 0.637853 0.621157 0.065731
C41   C     C_R   0.287472 0.492224 0.489986 0.122025
C42   C     C_R   0.711404 0.507583 0.511014 0.143165
C43   C     C_R   0.373658 0.465239 0.469258 -0.021818
C44   C     C_R   0.626278 0.535939 0.531843 -0.090912
C45   C     C_R   0.383678 0.397586 0.392460 0.136650
C46   C     C_R   0.617086 0.604221 0.608220 0.143471
C47   C     C_R   0.452946 0.506960 0.518362 0.091265
C48   C     C_R   0.546683 0.493884 0.483193 0.039792
C49   C     C_R   0.559014 0.442674 0.399668 -0.211437
C50   C     C_R   0.440995 0.558220 0.602024 -0.147609
C51   C     C_R   0.477108 0.389003 0.357624 -0.160484
C52   C     C_R   0.523557 0.612602 0.643528 -0.139491
H17   H     H_    0.488557 0.344757 0.295549 0.168855
H18   H     H_    0.512605 0.657251 0.705504 0.163154
H19   H     H_    0.850985 0.678673 0.654432 0.125297
H20   H     H_    0.150989 0.323117 0.344056 0.125672
H21   H     H_    0.308431 0.290564 0.290685 0.150539
H22   H     H_    0.694069 0.712307 0.708761 0.151377
H23   H     H_    0.632126 0.444074 0.364905 0.195290
H24   H     H_    0.368035 0.557226 0.637124 0.139228
C53   C     C_2   0.699229 0.404852 0.459743 0.416937
H25   H     H_    0.634426 0.339483 0.477999 0.048421
O9    O     O_2   0.755498 0.392092 0.394447 -0.559906
C54   C     C_2   0.291767 0.590039 0.547084 0.409276
H26   H     H_    0.231435 0.594419 0.598361 0.079748
O10   O     O_2   0.365154 0.668522 0.537196 -0.561247
Cl1   Cl    Cl    0.816374 0.486807 0.136225 -0.631844
Cl2   Cl    Cl    0.195879 0.534240 0.863682 -0.644724
Cl3   Cl    Cl    0.687986 0.246466 0.615847 -0.627831
Cl4   Cl    Cl    0.307289 0.751052 0.379501 -0.606384

loop_
_geom_bond_atom_site_label_1
_geom_bond_atom_site_label_2
_geom_bond_distance
_ccdc_geom_bond_type
C38   C40   1.392964 A    
C47   C48   1.425453 A    
C22   H14   1.083864 S    
C1    C19   1.463707 S    
C7    H1    1.082695 S    
C35   H9    1.084166 S    
C33   H15   1.076257 S    
C25   Cl4   1.777260 S    
C44   C48   1.441150 A    
C21   C23   1.389463 A    
O5    C3    1.311725 A    
C14   H8    1.083687 S    
O1    C1    1.308204 A    
N2    C40   1.357021 A    
C9    C11   1.406539 A    
C14   C16   1.392160 A    
C23   H12   1.083306 S    
C20   C24   1.399912 A    
C50   C52   1.391797 A    
C5    C15   1.401812 A    
C38   C46   1.401529 A    
C37   C45   1.401393 A    
C5    C7    1.404745 A    
O4    Cu1   1.935817 S    
C41   C43   1.425196 A    
C3    C5    1.463436 S    
C4    C6    1.464103 S    
C26   C28   1.414802 A    
C37   C39   1.391209 A    
C2    C20   1.464161 S    
C8    H2    1.082297 S    
N2    C42   1.382099 A    
C53   O9    1.217944 D    
C41   C54   1.476475 S    
C29   C35   1.391079 A    
C15   H4    1.083061 S    
C49   C51   1.389389 A    
C11   C17   1.458872 S    
C16   H3    1.083046 S    
C46   C52   1.394003 A    
Cu1   Cu2   2.726464 S    
O2    C2    1.308574 A    
C24   H11   1.083281 S    
C34   C36   1.386245 A    
N1    C39   1.355910 A    
C27   C29   1.419603 A    
C17   H6    1.086594 S    
C6    C16   1.401973 A    
C36   H10   1.084181 S    
N1    C41   1.379888 A    
C48   C49   1.412402 A    
C44   C46   1.411547 A    
O4    C2    1.308941 A    
C43   C45   1.413951 A    
C33   C35   1.385572 A    
C19   C25   1.404323 A    
C30   C36   1.391089 A    
O7    Cu2   1.969394 S    
C20   C26   1.404210 A    
O7    C3    1.306423 A    
C26   Cl3   1.777636 S    
C27   C31   1.426624 A    
O6    C4    1.311556 A    
C31   C34   1.411235 A    
C21   H13   1.083880 S    
C54   O10   1.220789 D    
C32   C33   1.410407 A    
C45   C51   1.392819 A    
C25   C27   1.414976 A    
O3    Cu2   1.935818 S    
O8    C4    1.307050 A    
C52   H18   1.084012 S    
C10   Cl1   1.764051 S    
C10   C12   1.407386 A    
C18   H5    1.086924 S    
C13   H7    1.083687 S    
C11   C13   1.400064 A    
C12   C14   1.400091 A    
C42   C53   1.477834 S    
O1    Cu1   1.946252 S    
C21   C29   1.400399 A    
C50   H24   1.078215 S    
C22   C30   1.400509 A    
O6    Cu2   1.967336 S    
C40   H19   1.081809 S    
O3    C1    1.309035 A    
O8    Cu1   1.969394 S    
C38   H22   1.083639 S    
C42   C44   1.422481 A    
C37   H21   1.083716 S    
C28   C32   1.425463 A    
C51   H17   1.084098 S    
C34   H16   1.075322 S    
C43   C47   1.443393 A    
Cu1   N2    2.048183 S    
C39   H20   1.081825 S    
Cu2   N1    2.048183 S    
C22   C24   1.389828 A    
C54   H26   1.077169 S    
C7    C9    1.387536 A    
C8    C10   1.387431 A    
C13   C15   1.392197 A    
C19   C23   1.399594 A    
O2    Cu2   1.946253 S    
C47   C50   1.414117 A    
C28   C30   1.418692 A    
O5    Cu1   1.967335 S    
C49   H23   1.076944 S    
C6    C8    1.404286 A    
C31   C32   1.423841 A    
C17   C18   1.337573 D    
C12   C18   1.459750 S    
C53   H25   1.083699 S    
C9    Cl2   1.763755 S    
