data_mof_unit_40666.cif
_audit_creation_date              2013-03-05T15:46:21-0500
_audit_creation_method            fapswitch 2.2
_symmetry_space_group_name_H-M    P1
_symmetry_Int_Tables_number       1
_space_group_crystal_system       triclinic
_cell_length_a                    11.145929
_cell_length_b                    10.995902
_cell_length_c                    18.672415
_cell_angle_alpha                 91.714531
_cell_angle_beta                  90.5213
_cell_angle_gamma                 60.097281
_cell_volume                      1982.8911863

loop_
_atom_site_label
_atom_site_type_symbol
_atom_site_description
_atom_site_fract_x
_atom_site_fract_y
_atom_site_fract_z
_atom_type_partial_charge
O1    O     O_R   0.748800 0.497470 0.428000 -0.563130
O2    O     O_R   0.476420 0.724060 0.429470 -0.542902
C1    C     C_R   0.361768 0.767718 0.397305 0.545868
O3    O     O_R   0.264580 0.744340 0.416750 -0.498183
O4    O     O_R   0.309380 0.472470 0.418200 -0.481768
C2    C     C_R   0.382195 0.345284 0.391265 0.524349
O5    O     O_R   0.501710 0.260430 0.414300 -0.574438
O6    O     O_R   0.728090 0.305600 0.428960 -0.516302
C3    C     C_R   0.716401 0.413066 0.394017 0.542992
O7    O     O_R   0.738760 0.495930 0.588610 -0.479602
O8    O     O_R   0.467110 0.722640 0.578360 -0.421975
C4    C     C_R   0.343467 0.770622 0.603442 0.600244
O9    O     O_R   0.254530 0.742800 0.577360 -0.536919
O10   O     O_R   0.300070 0.471040 0.567100 -0.489332
C5    C     C_R   0.368197 0.349636 0.594439 0.586390
O11   O     O_R   0.491670 0.258900 0.574910 -0.457970
O12   O     O_R   0.718780 0.304180 0.577850 -0.451773
C6    C     C_R   0.767289 0.377453 0.609545 0.580984
Cr1   Cr    Cr6+3 0.601770 0.606860 0.505860 1.051367
Cr2   Cr    Cr6+3 0.291380 0.601660 0.495070 1.055882
Cr3   Cr    Cr6+3 0.606880 0.291510 0.499120 1.036112
O13   O     O_3   0.500010 0.500010 0.500020 -0.286375
C7    C     C_R   0.857125 0.810045 0.149595 0.228247
C8    C     C_R   0.808503 0.810241 0.218516 -0.161374
C9    C     C_R   0.669692 0.902026 0.237666 -0.166438
C10   C     C_R   0.574393 0.999903 0.188713 0.003564
H1    H     H_    0.529081 0.102752 0.322406 0.141915
C11   C     C_R   0.316441 0.240906 0.179200 -0.000973
C12   C     C_R   0.441165 0.169007 0.290707 -0.145423
C13   C     C_R   0.439072 0.135518 0.217026 -0.004267
C14   C     C_R   0.092615 0.631143 0.329464 0.224243
C15   C     C_R   0.010229 0.733950 0.381327 -0.093882
C16   C     C_R   0.623064 0.962397 0.116689 -0.045741
C17   C     C_R   0.760842 0.879337 0.096868 0.189678
C18   C     C_R   0.202093 0.343656 0.219592 -0.022992
C19   C     C_R   0.215932 0.375743 0.291088 0.054184
C20   C     C_R   0.943841 0.705063 0.435919 0.100292
C21   C     C_R   0.963470 0.569621 0.439774 -0.062348
C22   C     C_R   0.039670 0.467633 0.386970 -0.155640
C23   C     C_R   0.104112 0.496836 0.330974 -0.001505
C24   C     C_R   0.342573 0.296222 0.324303 0.010236
H2    H     H_    0.005211 0.834440 0.381935 0.123868
H3    H     H_    0.876953 0.741375 0.257784 0.123666
H4    H     H_    0.639674 0.893934 0.291348 0.104302
H5    H     H_    0.562906 0.963033 0.073024 0.224807
H6    H     H_    0.102533 0.402139 0.194582 0.169947
H7    H     H_    0.923956 0.541649 0.485322 0.178770
H8    H     H_    0.056614 0.362433 0.392601 0.154674
C25   C     C_R   0.742399 0.293556 0.270493 0.158757
C26   C     C_R   0.765078 0.289836 0.197893 0.042518
H9    H     H_    0.760307 0.210424 0.163977 0.165099
C27   C     C_R   0.817264 0.369803 0.171709 0.094942
C28   C     C_R   0.811951 0.480300 0.213657 -0.082862
H10   H     H_    0.845149 0.549398 0.192830 0.156950
C29   C     C_R   0.776505 0.494124 0.285149 -0.151281
H11   H     H_    0.774938 0.579896 0.315964 0.135279
C30   C     C_R   0.748445 0.395989 0.316374 0.040656
C31   C     C_R   0.440289 0.728516 0.272556 -0.079685
H12   H     H_    0.508251 0.619745 0.283847 0.137458
C32   C     C_R   0.424925 0.772062 0.201979 0.215098
C33   C     C_R   0.318929 0.908341 0.186718 0.013388
C34   C     C_R   0.234250 0.997670 0.243110 0.176519
C35   C     C_R   0.260995 0.957086 0.313589 -0.099986
H13   H     H_    0.192031 0.024132 0.356169 0.142265
C36   C     C_R   0.357446 0.820937 0.327518 -0.017241
C37   C     C_R   0.413413 0.331411 0.721939 0.206353
C38   C     C_R   0.389346 0.311586 0.791016 -0.058851
H14   H     H_    0.460566 0.306795 0.832365 0.186411
C39   C     C_R   0.279416 0.292301 0.806723 -0.033684
C40   C     C_R   0.183874 0.306840 0.752965 -0.140079
H15   H     H_    0.094138 0.298423 0.766193 0.103373
C41   C     C_R   0.207760 0.329116 0.681494 0.119421
C42   C     C_R   0.327912 0.334605 0.666122 0.083766
C43   C     C_R   0.774102 0.469877 0.732340 0.223367
C44   C     C_R   0.768546 0.449227 0.804380 -0.056093
H16   H     H_    0.725988 0.539338 0.841229 0.189155
C45   C     C_R   0.838002 0.315231 0.831138 -0.002316
C46   C     C_R   0.902463 0.197782 0.783833 -0.106057
H17   H     H_    0.963789 0.092948 0.803958 0.153152
C47   C     C_R   0.891513 0.216303 0.709777 -0.128131
H18   H     H_    0.932882 0.125516 0.673534 0.139148
C48   C     C_R   0.819232 0.352399 0.683406 0.027497
C49   C     C_R   0.246646 0.768790 0.717678 -0.130836
H19   H     H_    0.207392 0.703857 0.694661 0.176318
C50   C     C_R   0.236933 0.788949 0.790486 -0.137177
H20   H     H_    0.186438 0.745735 0.821861 0.173349
C51   C     C_R   0.293777 0.863368 0.822194 -0.017258
C52   C     C_R   0.355381 0.923094 0.780713 -0.089021
H21   H     H_    0.394871 0.985928 0.805619 0.184227
C53   C     C_R   0.366546 0.903769 0.707001 0.209433
C54   C     C_R   0.313847 0.822666 0.675844 0.024611
O14   O     O_R   0.186690 0.923650 0.086970 -0.368484
O15   O     O_R   0.957250 0.194250 0.084630 -0.478646
C55   C     C_R   0.900084 0.323280 0.107222 0.567628
O16   O     O_R   0.934970 0.407490 0.085330 -0.509806
O17   O     O_R   0.203780 0.365190 0.067090 -0.407812
C56   C     C_R   0.300795 0.249049 0.100112 0.551260
O18   O     O_R   0.417600 0.174890 0.067840 -0.521908
O19   O     O_R   0.375320 0.946260 0.070860 -0.529621
C57   C     C_R   0.278848 0.952126 0.112878 0.562366
O20   O     O_R   0.160600 0.919630 0.926660 -0.483705
O21   O     O_R   0.933060 0.190520 0.936020 -0.493710
C58   C     C_R   0.885125 0.306431 0.904331 0.528722
O22   O     O_R   0.908880 0.403460 0.925020 -0.497947
O23   O     O_R   0.179600 0.361450 0.918490 -0.455599
C59   C     C_R   0.270671 0.255231 0.879564 0.508406
O24   O     O_R   0.391510 0.170860 0.907530 -0.474117
O25   O     O_R   0.351130 0.942530 0.922260 -0.500962
C60   C     C_R   0.272699 0.899188 0.896964 0.557365
Cr4   Cr    Cr6+3 0.062440 0.063090 0.008210 1.147311
Cr5   Cr    Cr6+3 0.062880 0.375170 0.998920 1.154202
Cr6   Cr    Cr6+3 0.374700 0.061720 0.992470 1.085176
O26   O     O_3   0.166667 0.166667 0.999870 -0.378222
N1    N     N_2   0.866471 0.809217 0.489829 -0.515390
H22   H     H_    0.879157 0.895997 0.489867 0.240223
C61   C     C_3   0.722723 0.846566 0.496206 -0.215455
H23   H     H_    0.671936 0.928689 0.539118 0.215075
H24   H     H_    0.713862 0.754336 0.510908 0.201195
H25   H     H_    0.667981 0.888471 0.444936 0.105016
N2    N     N_2   0.707737 0.196159 0.294394 -0.525240
H26   H     H_    0.619284 0.247812 0.322303 0.290592
C62   C     C_3   0.817913 0.071541 0.325495 -0.226077
H27   H     H_    0.773392 0.025156 0.361318 0.109999
H28   H     H_    0.890729 0.093849 0.356473 0.185438
H29   H     H_    0.876119 0.994148 0.282134 0.224174
N3    N     N_R   0.500526 0.671219 0.145869 0.088430
O27   O     O_R   0.582480 0.689271 0.103906 -0.340757
O28   O     O_R   0.496931 0.554851 0.140682 -0.279814
N4    N     N_R   0.098548 0.105012 0.229012 0.029445
O29   O     O_R   0.046132 0.217790 0.269695 -0.443860
O30   O     O_R   0.017267 0.061818 0.203433 -0.318893
N5    N     N_R   0.797531 0.852239 0.021984 0.078366
O31   O     O_R   0.882606 0.725255 0.998320 -0.264382
O32   O     O_R   0.731400 0.950318 0.976024 -0.308768
N6    N     N_R   0.533730 0.337635 0.708251 0.071556
O33   O     O_R   0.526829 0.459166 0.708420 -0.383190
O34   O     O_R   0.651156 0.222143 0.712597 -0.303990
N7    N     N_2   0.107741 0.356397 0.627349 -0.509507
H30   H     H_    0.009326 0.400908 0.647184 0.284130
C63   C     C_3   0.138309 0.242575 0.576723 -0.282648
H31   H     H_    0.146838 0.151092 0.604964 0.157855
H32   H     H_    0.234711 0.212731 0.546519 0.192903
H33   H     H_    0.053089 0.277047 0.537272 0.127343
N8    N     N_R   0.734850 0.610258 0.711548 0.110862
O35   O     O_R   0.645138 0.716021 0.750540 -0.298836
O36   O     O_R   0.816739 0.631048 0.670891 -0.311701
N9    N     N_R   0.435830 0.961254 0.666513 0.089584
O37   O     O_R   0.415640 0.981298 0.598179 -0.406804
O38   O     O_R   0.516019 0.999888 0.698708 -0.272809
N10   N     N_R   0.001207 0.735215 0.131836 0.136815
O39   O     O_R   0.079229 0.609237 0.153581 -0.310128
O40   O     O_R   0.050961 0.784489 0.085446 -0.215250
N11   N     N_R   0.170357 0.662827 0.279692 0.111387
O41   O     O_R   0.122221 0.791099 0.259950 -0.323520
O42   O     O_R   0.291114 0.566763 0.255788 -0.298544

loop_
_geom_bond_atom_site_label_1
_geom_bond_atom_site_label_2
_geom_bond_distance
_ccdc_geom_bond_type
C11   C56   1.485573 S    
C29   H11   1.082671 S    
C35   C36   1.370447 A    
N3    O27   1.300327 A    
H1    C12   1.069934 S    
C16   H5    1.048865 S    
O24   Cr6   2.081906 S    
C4    C54   1.427461 S    
N9    O37   1.299781 A    
C63   H33   1.110640 S    
C51   C52   1.411537 A    
N1    H22   1.031996 S    
N6    O33   1.299623 A    
O4    Cr2   1.928090 S    
C1    C36   1.435008 S    
C45   C46   1.407991 A    
O25   C60   1.268402 A    
O8    Cr1   1.932566 S    
C20   C21   1.397259 A    
N9    O38   1.301619 A    
C63   H32   1.108462 S    
C39   C40   1.409816 A    
C50   H20   1.084011 S    
C21   C22   1.396610 A    
C46   C47   1.399105 A    
C25   N2    1.392728 S    
C59   O24   1.310631 A    
C31   C32   1.395415 A    
C5    O11   1.280911 A    
C25   C30   1.422685 A    
C61   H23   1.110492 S    
C31   C36   1.399221 A    
C14   C23   1.418446 A    
C18   C19   1.397435 A    
C11   C18   1.414390 A    
C61   H24   1.109340 S    
O6    C3    1.315360 A    
C2    C24   1.495503 S    
C26   C27   1.375288 A    
C7    C8    1.400431 A    
C27   C55   1.440924 S    
C40   H15   1.080794 S    
N11   O42   1.300674 A    
O15   Cr4   1.926693 S    
C12   C24   1.408986 A    
C52   H21   1.080575 S    
C41   N7    1.420972 S    
C37   C38   1.365483 A    
O23   Cr5   1.948592 S    
C17   N5    1.440524 S    
N11   O41   1.298525 A    
Cr3   O13   1.987601 S    
C34   N4    1.407662 S    
C19   C24   1.388372 A    
C33   C34   1.412872 A    
C43   C48   1.430543 A    
C9    H4    1.079692 S    
Cr6   O26   2.013864 S    
C14   N11   1.439069 S    
N2    C62   1.442160 S    
C56   O18   1.284281 A    
C50   C51   1.379389 A    
O17   Cr5   1.974543 S    
O1    Cr1   2.054116 S    
C53   N9    1.446845 S    
O18   Cr6   2.057675 S    
C43   C44   1.377926 A    
C38   H14   1.085645 S    
O10   Cr2   1.963611 S    
C19   C23   1.477807 S    
Cr1   O13   1.999375 S    
O1    C3    1.299681 A    
C8    C9    1.404212 A    
C47   C48   1.402073 A    
C22   C23   1.405693 A    
C46   H17   1.082998 S    
C41   C42   1.402895 A    
C20   N1    1.425017 S    
C26   H9    1.085808 S    
C9    C10   1.422482 A    
C28   H10   1.079841 S    
C37   C42   1.395152 A    
O12   Cr3   1.965645 S    
C37   N6    1.402569 S    
C32   C33   1.405967 A    
C38   C39   1.378991 A    
C44   H16   1.084768 S    
C12   C13   1.416566 A    
C10   C16   1.424791 A    
C49   H19   1.084275 S    
O7    Cr1   2.102275 S    
C39   C59   1.449399 S    
C7    C17   1.382730 A    
O17   C56   1.355915 A    
C34   C35   1.383934 A    
O12   C6    1.300665 A    
C55   O16   1.249091 A    
Cr5   O26   1.988110 S    
O15   C55   1.290217 A    
C15   C20   1.398201 A    
C63   H31   1.111088 S    
C44   C45   1.385494 A    
Cr4   O26   2.001010 S    
C21   H7    1.081415 S    
N7    C63   1.444310 S    
N8    O36   1.301036 A    
C5    C42   1.455564 S    
C7    N10   1.428934 S    
C52   C53   1.383586 A    
C10   C13   1.582059 S    
C29   C30   1.407001 A    
N10   O40   1.299158 A    
O21   Cr4   1.980630 S    
C33   C57   1.465074 S    
C28   C29   1.377959 A    
C62   H28   1.111271 S    
C1    O3    1.289078 A    
N2    H26   0.999737 S    
O14   C57   1.299913 A    
N4    O29   1.298297 A    
N6    O34   1.295895 A    
C43   N8    1.443710 S    
N3    O28   1.300741 A    
O9    Cr2   2.042427 S    
C49   C50   1.367407 A    
O2    Cr1   1.981387 S    
N10   O39   1.290787 A    
C14   C15   1.405212 A    
Cr2   O13   2.018913 S    
C47   H18   1.083272 S    
O6    Cr3   1.954098 S    
O22   Cr5   2.096987 S    
N1    C61   1.447208 S    
O8    C4    1.291864 A    
C61   H25   1.111994 S    
O11   Cr3   2.074325 S    
C2    O5    1.266653 A    
C51   C60   1.428406 S    
C49   C54   1.415238 A    
O23   C59   1.305131 A    
O19   C57   1.311150 A    
N8    O35   1.298278 A    
C62   H29   1.103858 S    
C11   C13   1.470415 A    
O2    C1    1.271148 A    
O20   Cr4   2.042041 S    
O16   Cr5   2.065078 S    
O5    Cr3   2.081476 S    
O14   Cr4   2.100550 S    
C53   C54   1.401356 A    
O4    C2    1.304284 A    
O7    C6    1.251510 A    
O19   Cr6   1.963842 S    
C32   N3    1.432574 S    
C6    C48   1.470504 S    
C16   C17   1.386032 A    
N5    O31   1.301790 A    
C3    C30   1.480176 S    
O21   C58   1.272974 A    
C31   H12   1.075924 S    
C45   C58   1.448193 S    
N7    H30   1.020400 S    
C35   H13   1.085138 S    
O3    Cr2   2.086007 S    
O25   Cr6   1.933803 S    
C4    O9    1.264156 A    
N5    O32   1.301600 A    
C25   C26   1.376909 A    
C58   O22   1.269949 A    
C8    H3    1.067767 S    
C15   H2    1.077904 S    
O10   C5    1.281524 A    
C40   C41   1.415238 A    
C62   H27   1.110225 S    
C18   H6    1.077063 S    
O20   C60   1.282278 A    
C27   C28   1.401946 A    
C22   H8    1.083483 S    
N4    O30   1.296930 A    
