data_mof_unit_59191.cif
_audit_creation_date              2013-03-05T16:45:09-0500
_audit_creation_method            fapswitch 2.2
_symmetry_space_group_name_H-M    P1
_symmetry_Int_Tables_number       1
_space_group_crystal_system       triclinic
_cell_length_a                    15.042059
_cell_length_b                    15.656919
_cell_length_c                    9.925569
_cell_angle_alpha                 88.510216
_cell_angle_beta                  86.014765
_cell_angle_gamma                 90.166342
_cell_volume                      2331.12700793

loop_
_atom_site_label
_atom_site_type_symbol
_atom_site_description
_atom_site_fract_x
_atom_site_fract_y
_atom_site_fract_z
_atom_type_partial_charge
O1    O     O_R   0.408400 0.908380 0.614690 -0.617223
O2    O     O_R   0.408400 0.091620 0.614690 -0.613268
O3    O     O_R   0.908400 0.408380 0.614690 -0.617170
O4    O     O_R   0.908400 0.591620 0.614690 -0.613254
O5    O     O_R   0.408370 0.908370 0.385350 -0.626258
O6    O     O_R   0.408370 0.091630 0.385350 -0.597943
O7    O     O_R   0.908370 0.408370 0.385350 -0.626139
O8    O     O_R   0.908370 0.591630 0.385350 -0.597983
C1    C     C_R   0.383331 0.877434 0.503930 0.928805
C2    C     C_R   0.382643 0.121845 0.500159 0.916743
C3    C     C_R   0.883352 0.377415 0.503928 0.928746
C4    C     C_R   0.882653 0.621855 0.500161 0.916804
Zn1   Zn    Zn3+2 0.500010 1.000000 0.653130 1.026503
Zn2   Zn    Zn3+2 0.000010 0.500000 0.653130 1.026542
Zn3   Zn    Zn3+2 0.499980 0.000000 0.346870 1.118978
Zn4   Zn    Zn3+2 0.999980 0.500000 0.346870 1.118927
O9    O     O_R   0.591610 0.091610 0.614650 -0.638232
O10   O     O_R   0.591610 0.908390 0.614650 -0.633397
O11   O     O_R   0.091610 0.591610 0.614650 -0.638207
O12   O     O_R   0.091610 0.408390 0.614650 -0.633396
O13   O     O_R   0.591590 0.091600 0.385310 -0.543745
O14   O     O_R   0.591590 0.908400 0.385310 -0.545341
O15   O     O_R   0.091590 0.591600 0.385310 -0.543990
O16   O     O_R   0.091590 0.408400 0.385310 -0.545334
C5    C     C_R   0.620322 0.120272 0.496014 0.929538
C6    C     C_R   0.618505 0.879151 0.497721 0.965309
C7    C     C_R   0.120339 0.620255 0.496017 0.929508
C8    C     C_R   0.118510 0.379156 0.497722 0.965187
C9    C     C_R   0.276888 0.219446 0.612338 -0.037950
C10   C     C_R   0.256611 0.798746 0.612123 -0.060184
C11   C     C_R   0.776882 0.719448 0.612345 -0.037889
C12   C     C_R   0.756656 0.298710 0.612146 -0.060104
C13   C     C_R   0.319681 0.190071 0.495352 -0.220110
C14   C     C_R   0.324197 0.805396 0.509893 -0.173704
C15   C     C_R   0.819706 0.690097 0.495362 -0.220121
C16   C     C_R   0.824224 0.305365 0.509893 -0.173758
C17   C     C_R   0.294200 0.224957 0.369514 0.213953
C18   C     C_R   0.325073 0.751958 0.398599 0.192499
C19   C     C_R   0.794251 0.725005 0.369525 0.213877
C20   C     C_R   0.825028 0.251985 0.398527 0.192301
C21   C     C_R   0.724233 0.783781 0.367094 0.244234
C22   C     C_R   0.752086 0.198623 0.382908 0.201972
C23   C     C_R   0.224206 0.283757 0.367094 0.244227
C24   C     C_R   0.252181 0.698533 0.383012 0.202100
C25   C     C_R   0.682890 0.812121 0.491285 -0.208088
C26   C     C_R   0.685182 0.189024 0.489844 -0.247947
C27   C     C_R   0.182896 0.312127 0.491288 -0.208145
C28   C     C_R   0.185219 0.688987 0.489867 -0.248269
C29   C     C_R   0.710858 0.776769 0.610243 -0.028386
C30   C     C_R   0.688279 0.240456 0.602669 0.025817
C31   C     C_R   0.210887 0.276792 0.610246 -0.028363
C32   C     C_R   0.188256 0.740467 0.602649 0.025833
C33   C     C_3   0.699534 0.781361 0.760707 0.084759
C34   C     C_3   0.688155 0.213264 0.748751 0.086359
C35   C     C_3   0.199619 0.281416 0.760712 0.084695
C36   C     C_3   0.188135 0.713301 0.748744 0.086659
C37   C     C_3   0.275509 0.215435 0.762941 0.078936
C38   C     C_3   0.264562 0.774838 0.758582 0.031572
C39   C     C_3   0.775465 0.715421 0.762954 0.078871
C40   C     C_3   0.764619 0.274761 0.758585 0.031698
H1    H     H_    0.715388 0.845351 0.799297 0.166652
H2    H     H_    0.705342 0.145000 0.767074 0.167601
H3    H     H_    0.215531 0.345403 0.799259 0.166640
H4    H     H_    0.205358 0.645048 0.767084 0.167574
H5    H     H_    0.256840 0.151548 0.808060 0.150152
H6    H     H_    0.247989 0.827784 0.827596 0.151862
H7    H     H_    0.756829 0.651520 0.808043 0.150075
H8    H     H_    0.748082 0.327692 0.827639 0.151874
C41   C     C_R   0.423357 0.015288 0.078647 0.274160
C42   C     C_R   0.923374 0.515366 0.078641 0.274143
N1    N     N_R   0.499140 1.000000 0.142800 -0.165555
N2    N     N_R   0.999140 0.500000 0.142800 -0.165550
C43   C     C_R   0.578481 0.997132 0.058944 0.365677
C44   C     C_R   0.078479 0.497110 0.058941 0.365531
C45   C     C_R   0.576265 0.994200 0.916627 -0.083911
C46   C     C_R   0.076262 0.494165 0.916627 -0.083808
H9    H     H_    0.636583 0.988182 0.851800 0.174858
H10   H     H_    0.136580 0.488117 0.851807 0.174824
N3    N     N_R   0.499160 1.000000 0.857150 -0.140652
N4    N     N_R   0.999160 0.500000 0.857150 -0.140674
C47   C     C_R   0.423650 0.016178 0.936605 0.271030
C48   C     C_R   0.923667 0.516258 0.936602 0.271106
C49   C     C_3   0.340154 0.965415 0.941363 -0.496576
C50   C     C_3   0.840095 0.465608 0.941361 -0.496360
C51   C     C_3   0.339155 0.964748 0.094292 -0.421120
C52   C     C_3   0.839096 0.464940 0.094294 -0.421078
H11   H     H_    0.284140 0.001447 0.900137 0.226208
H12   H     H_    0.354003 0.902212 0.898510 0.243343
H13   H     H_    0.784132 0.501716 0.900133 0.226199
H14   H     H_    0.853848 0.402392 0.898511 0.243277
H15   H     H_    0.282834 0.001238 0.142298 0.250991
H16   H     H_    0.348014 0.900230 0.139368 0.254868
H17   H     H_    0.782828 0.501503 0.142291 0.251028
H18   H     H_    0.847855 0.400414 0.139386 0.254866
N5    N     N_R   0.338519 0.202078 0.242881 0.253304
O17   O     O_R   0.419723 0.228158 0.211322 -0.258674
O18   O     O_R   0.293791 0.165874 0.152242 -0.346774
N6    N     N_R   0.404665 0.745290 0.310716 0.251742
O19   O     O_R   0.480068 0.728853 0.362408 -0.306375
O20   O     O_R   0.402160 0.752689 0.180297 -0.256049
N7    N     N_R   0.838620 0.702172 0.242904 0.253327
O21   O     O_R   0.919842 0.728236 0.211458 -0.258906
O22   O     O_R   0.793923 0.666026 0.152170 -0.346739
N8    N     N_R   0.904581 0.245340 0.310564 0.251852
O23   O     O_R   0.979985 0.228747 0.362156 -0.306205
O24   O     O_R   0.902054 0.253023 0.180164 -0.256565
N9    N     N_R   0.698199 0.814153 0.237798 0.250368
O25   O     O_R   0.621656 0.790987 0.197119 -0.254143
O26   O     O_R   0.758467 0.844672 0.148833 -0.246143
N10   N     N_R   0.750343 0.151397 0.262403 0.258099
O27   O     O_R   0.698419 0.177379 0.170282 -0.285913
O28   O     O_R   0.816489 0.100904 0.229035 -0.208073
N11   N     N_R   0.198158 0.314119 0.237799 0.250395
O29   O     O_R   0.121602 0.290963 0.197158 -0.253927
O30   O     O_R   0.258420 0.344614 0.148801 -0.246153
N12   N     N_R   0.250626 0.651107 0.262712 0.258340
O31   O     O_R   0.199295 0.677240 0.169956 -0.285532
O32   O     O_R   0.316688 0.600383 0.230103 -0.208438
N13   N     N_R   0.613683 0.747066 0.815741 0.250143
O33   O     O_R   0.582640 0.675466 0.773880 -0.272449
O34   O     O_R   0.567910 0.788308 0.908816 -0.275424
N14   N     N_R   0.608033 0.240061 0.828107 0.248548
O35   O     O_R   0.573732 0.315168 0.807847 -0.265300
O36   O     O_R   0.579286 0.194260 0.933360 -0.295014
N15   N     N_R   0.113772 0.247174 0.815847 0.250107
O37   O     O_R   0.082617 0.175632 0.773943 -0.272408
O38   O     O_R   0.068162 0.288360 0.909162 -0.275130
N16   N     N_R   0.107994 0.740064 0.828087 0.248484
O39   O     O_R   0.073613 0.815124 0.807732 -0.265321
O40   O     O_R   0.079342 0.694322 0.933455 -0.295163
N17   N     N_R   0.356725 0.251145 0.811873 0.255181
O41   O     O_R   0.396113 0.210957 0.906882 -0.249806
O42   O     O_R   0.388763 0.324090 0.764421 -0.279327
N18   N     N_R   0.347672 0.730595 0.784744 0.239909
O43   O     O_R   0.383773 0.742202 0.898037 -0.232223
O44   O     O_R   0.378890 0.670964 0.705726 -0.298717
N19   N     N_R   0.856650 0.751174 0.811930 0.255250
O45   O     O_R   0.896126 0.710936 0.906795 -0.249931
O46   O     O_R   0.888606 0.824175 0.764595 -0.279265
N20   N     N_R   0.847727 0.230490 0.784656 0.240099
O47   O     O_R   0.884276 0.242578 0.897451 -0.232530
O48   O     O_R   0.878753 0.170663 0.705863 -0.298780
N21   N     N_R   0.666532 0.000564 0.106986 0.260151
O49   O     O_R   0.680329 0.995814 0.233310 -0.299393
O50   O     O_R   0.736008 0.010413 0.021884 -0.281367
N22   N     N_R   0.166525 0.500562 0.106979 0.260108
O51   O     O_R   0.180314 0.495773 0.233296 -0.299310
O52   O     O_R   0.236001 0.510466 0.021894 -0.281247

loop_
_geom_bond_atom_site_label_1
_geom_bond_atom_site_label_2
_geom_bond_distance
_ccdc_geom_bond_type
C7    C28   1.447903 S    
C49   H11   1.110996 S    
Zn1   N3    2.024167 S    
C8    C27   1.429765 S    
N7    O21   1.301581 A    
N9    O26   1.301606 A    
Zn4   O16   2.038976 S    
N5    O17   1.301572 A    
O10   C6    1.297546 A    
O3    C3    1.292231 A    
C18   N6    1.437157 S    
N16   O39   1.301963 A    
N8    O24   1.299953 A    
C33   C39   1.542746 S    
C19   C21   1.401675 A    
C34   C40   1.507840 S    
C38   N18   1.466609 S    
O7    C3    1.292078 A    
N19   O46   1.302195 A    
C30   C34   1.500378 S    
C44   C46   1.417198 A    
Zn1   O10   2.017046 S    
C12   C16   1.387234 A    
Zn4   N2    2.026429 S    
C3    C16   1.431952 S    
N20   O48   1.302591 A    
N22   O51   1.285269 A    
C9    C31   1.341366 A    
C39   N19   1.460704 S    
N21   O49   1.285351 A    
C9    C13   1.378322 A    
N12   O31   1.300866 A    
C17   N5    1.435579 S    
C22   C26   1.415736 A    
C11   C39   1.493228 S    
C41   N1    1.362627 A    
O2    Zn1   2.039195 S    
N10   O27   1.301275 A    
O13   C5    1.298539 A    
C52   H18   1.106263 S    
C6    C25   1.429767 S    
C39   H7    1.112439 S    
O6    Zn3   2.017370 S    
C33   H1    1.112931 S    
C38   H6    1.107049 S    
Zn3   O14   2.038976 S    
C35   N15   1.461821 S    
N12   O32   1.302375 A    
C35   H3    1.112933 S    
N9    O25   1.300004 A    
C36   H4    1.113680 S    
Zn2   N4    2.024167 S    
O4    C4    1.304067 A    
O11   C7    1.294248 A    
C24   N12   1.423915 S    
C20   C22   1.396776 A    
C49   H12   1.101965 S    
C34   N14   1.461888 S    
O8    Zn4   2.017370 S    
C43   C45   1.417216 A    
C50   H14   1.101899 S    
C11   C29   1.341371 A    
N8    O23   1.300660 A    
C47   C49   1.481666 S    
C51   H16   1.106309 S    
C37   N17   1.460682 S    
C18   C24   1.396707 A    
C19   N7    1.435581 S    
N22   O52   1.303459 A    
N13   O34   1.299866 A    
C51   H15   1.109955 S    
C10   C14   1.387247 A    
Zn2   O12   2.017046 S    
C16   C20   1.402400 A    
O1    C1    1.292199 A    
N20   O47   1.299015 A    
N4    C48   1.365221 A    
C37   H5    1.112461 S    
N3    C47   1.365197 A    
C27   C31   1.383451 A    
O12   C8    1.297536 A    
C34   H2    1.113670 S    
C13   C17   1.427433 A    
C17   C23   1.401651 A    
C15   C19   1.427424 A    
O5    C1    1.292057 A    
C52   H17   1.109950 S    
C20   N8    1.437104 S    
C25   C29   1.383430 A    
O8    C4    1.280628 A    
N5    O18   1.300690 A    
C4    C15   1.431754 S    
C45   H9    1.081027 S    
C12   C30   1.382395 A    
O3    Zn2   2.047505 S    
C40   N20   1.466585 S    
N2    C44   1.408294 A    
O7    Zn4   1.997460 S    
C49   C51   1.516703 S    
C9    C37   1.493205 S    
N6    O19   1.300635 A    
Zn4   O15   2.047285 S    
O15   C7    1.298571 A    
C35   C37   1.542712 S    
C1    C14   1.431866 S    
C11   C15   1.378355 A    
O1    Zn1   2.047506 S    
C50   H13   1.110986 S    
C12   C40   1.504559 S    
N14   O36   1.299645 A    
N17   O41   1.298151 A    
C42   C52   1.488280 S    
C41   C51   1.488269 S    
N1    C43   1.408290 A    
N11   O29   1.300002 A    
C43   N21   1.439850 S    
N21   O50   1.303475 A    
C10   C32   1.382426 A    
C21   N9    1.437244 S    
C14   C18   1.402353 A    
Zn2   O11   1.997135 S    
C44   N22   1.439785 S    
O16   C8    1.286793 A    
C46   H10   1.081032 S    
N17   O42   1.302202 A    
N16   O40   1.299624 A    
O6    C2    1.280593 A    
N18   O44   1.302583 A    
C46   N4    1.339750 A    
C33   N13   1.461858 S    
N18   O43   1.298971 A    
Zn3   N1    2.026429 S    
N19   O45   1.298133 A    
C26   C30   1.399515 A    
C48   C50   1.481688 S    
Zn1   O9    1.997135 S    
O9    C5    1.294294 A    
C22   N10   1.424159 S    
C23   N11   1.437245 S    
N15   O37   1.302137 A    
Zn3   O13   2.047285 S    
C45   N3    1.339749 A    
C29   C33   1.494942 S    
C10   C38   1.504579 S    
C36   C38   1.507826 S    
C2    C13   1.431718 S    
C31   C35   1.494964 S    
C36   N16   1.461881 S    
O4    Zn2   2.039195 S    
C42   C48   1.409224 A    
N6    O20   1.299820 A    
N10   O28   1.302701 A    
O5    Zn3   1.997460 S    
C41   C47   1.409255 A    
C32   C36   1.500388 S    
C28   C32   1.399521 A    
C40   H8    1.107014 S    
N7    O22   1.300693 A    
N13   O33   1.302127 A    
O14   C6    1.286784 A    
N15   O38   1.299870 A    
C21   C25   1.423580 A    
C50   C52   1.516737 S    
C42   N2    1.362640 A    
N14   O35   1.301977 A    
C23   C27   1.423580 A    
C5    C26   1.447933 S    
C24   C28   1.415685 A    
N11   O30   1.301616 A    
O2    C2    1.304082 A    
