data_mof_unit_8986.cif
_audit_creation_date              2012-12-10T18:13:31-0500
_audit_creation_method            fapswitch 2.2
_symmetry_space_group_name_H-M    P1
_symmetry_Int_Tables_number       1
_space_group_crystal_system       triclinic
_cell_length_a                    12.58871
_cell_length_b                    13.261615
_cell_length_c                    17.05851
_cell_angle_alpha                 89.029272
_cell_angle_beta                  97.993172
_cell_angle_gamma                 95.495382
_cell_volume                      2807.21189498

loop_
_atom_site_label
_atom_site_type_symbol
_atom_type_description
_atom_site_fract_x
_atom_site_fract_y
_atom_site_fract_z
_atom_type_partial_charge
C1    C     C_R   0.558789 0.691564 0.506928 0.898047
C2    C     C_R   0.485774 0.510881 0.734840 -0.145192
C3    C     C_R   0.326069 0.087547 0.363927 0.551166
C4    C     C_R   0.510694 0.489257 0.349866 0.943614
C5    C     C_R   0.415145 0.206405 0.464073 -0.129604
C6    C     C_R   0.687976 0.835251 0.564884 0.357848
C7    C     C_R   0.727241 0.937671 0.564871 0.347096
C8    C     C_R   0.664089 0.008138 0.522777 0.261193
C9    C     C_R   0.559551 0.975540 0.483868 -0.067594
C10   C     C_R   0.533828 0.872121 0.467574 -0.122114
C11   C     C_R   0.482480 0.043416 0.456833 0.008922
C12   C     C_R   0.602411 0.441236 0.236352 0.434237
C13   C     C_R   0.395139 0.014644 0.397272 -0.099795
C14   C     C_R   0.376763 0.912449 0.374760 0.527827
C15   C     C_R   0.448248 0.843658 0.407242 -0.225869
C16   C     C_R   0.442317 0.309668 0.489323 0.884042
C17   C     C_R   0.485517 0.136339 0.493425 -0.178219
C18   C     C_R   0.338273 0.184234 0.398152 -0.327502
C19   C     C_R   0.594448 0.800735 0.512096 -0.286565
C20   C     C_R   0.905854 0.352379 0.615715 -0.335973
C21   C     C_R   0.200899 0.610147 0.392656 0.683231
C22   C     C_R   0.093790 0.632012 0.370681 -0.386518
C23   C     C_R   0.582644 0.501688 0.867887 0.467293
C24   C     C_R   0.015067 0.595816 0.415400 -0.293556
C25   C     C_R   0.039230 0.530379 0.479620 0.032404
C26   C     C_R   0.147933 0.508002 0.499492 0.134687
C27   C     C_R   0.958237 0.481381 0.520984 0.003132
C28   C     C_R   0.487590 0.504283 0.650274 0.889103
C29   C     C_R   0.985878 0.406372 0.578395 0.194628
C30   C     C_R   0.092495 0.384243 0.596427 -0.288564
C31   C     C_R   0.172122 0.434275 0.557529 -0.186948
C32   C     C_R   0.849435 0.501599 0.506019 -0.045231
C33   C     C_R   0.799343 0.372657 0.595534 0.003729
C34   C     C_R   0.581212 0.500764 0.785972 -0.340603
C35   C     C_R   0.508502 0.463695 0.266438 -0.273626
C36   C     C_R   0.408579 0.453674 0.217723 -0.391983
C37   C     C_R   0.402124 0.432910 0.137094 0.529823
C38   C     C_R   0.497971 0.425337 0.105860 -0.211110
C39   C     C_R   0.598533 0.431811 0.154195 0.372303
C40   C     C_3   0.218807 0.465802 0.861898 0.105703
C41   C     C_3   0.114863 0.504673 0.820523 -0.339521
C42   C     C_3   0.022336 0.420899 0.812028 -0.994827
C43   C     C_3   0.198282 0.868021 0.373844 -0.211407
C44   C     C_3   0.159473 0.109894 0.289394 -0.314171
C45   C     C_R   0.391351 0.527805 0.764797 -0.316571
C46   C     C_3   0.698433 0.731930 0.675455 0.151294
C47   C     C_3   0.726314 0.803652 0.746254 -0.383714
C48   C     C_3   0.689507 0.755317 0.820968 -0.975276
C49   C     C_3   0.750460 0.111596 0.439421 0.114895
C50   C     C_3   0.817888 0.212840 0.433875 -0.303020
C51   C     C_3   0.867044 0.221973 0.356892 -0.940079
C52   C     C_3   0.841066 0.035249 0.658434 0.126068
C53   C     C_3   0.949539 0.030142 0.710632 -0.336037
C54   C     C_3   0.959184 0.095950 0.784166 -0.999469
C55   C     C_3   0.251623 0.646579 0.268509 -0.330773
C56   C     C_R   0.391059 0.530620 0.846380 0.434308
C57   C     C_3   0.506641 0.692234 0.991650 0.100732
C58   C     C_3   0.515794 0.777885 0.051788 -0.372979
C59   C     C_3   0.406841 0.794367 0.076734 -0.751197
C60   C     C_3   0.736951 0.520541 0.103609 -0.283128
C61   C     C_3   0.749859 0.429805 0.896829 0.112508
C62   C     C_3   0.703600 0.318718 0.883982 -0.288558
C63   C     C_3   0.782275 0.256940 0.849941 -1.035357
C64   C     C_3   0.778336 0.474433 0.294908 -0.251736
C65   C     C_3   0.487754 0.248394 0.019096 -0.323333
C66   C     C_3   0.227794 0.479061 0.101279 -0.294885
C67   C     C_R   0.486912 0.519147 0.897104 -0.119470
C68   C     C_2   0.493010 0.425182 0.019418 0.579147
C69   C     C_2   0.484851 0.515454 0.982785 0.411753
H1    H     H_    0.335446 0.457922 0.243365 0.197312
H2    H     H_    0.935237 0.616902 0.395646 0.153648
H3    H     H_    0.070237 0.677396 0.319189 0.154345
H4    H     H_    0.251009 0.409887 0.571318 0.211554
H5    H     H_    0.317863 0.537841 0.725386 0.181759
H6    H     H_    0.203798 0.431231 0.919516 0.189731
H7    H     H_    0.241445 0.403851 0.825608 0.122794
H8    H     H_    0.092777 0.567749 0.855290 0.232442
H9    H     H_    0.127767 0.533912 0.760797 0.226810
H10   H     H_    0.044100 0.355426 0.779955 0.267218
H11   H     H_    0.949608 0.449877 0.778181 0.272113
H12   H     H_    0.292373 0.243950 0.371428 0.168032
H13   H     H_    0.003519 0.395528 0.871338 0.263562
H14   H     H_    0.211720 0.810993 0.421704 0.163082
H15   H     H_    0.121968 0.845563 0.335039 0.167584
H16   H     H_    0.186915 0.940598 0.401599 0.140279
H17   H     H_    0.127563 0.107879 0.347195 0.137766
H18   H     H_    0.098376 0.066344 0.246636 0.195585
H19   H     H_    0.168956 0.188667 0.266478 0.171901
H20   H     H_    0.728536 0.657547 0.692725 0.175622
H21   H     H_    0.609211 0.717871 0.661249 0.098839
H22   H     H_    0.814738 0.823920 0.757171 0.243277
H23   H     H_    0.543435 0.155726 0.545320 0.192336
H24   H     H_    0.685147 0.873504 0.732982 0.197134
H25   H     H_    0.601278 0.733297 0.811288 0.263515
H26   H     H_    0.707695 0.810369 0.870440 0.259864
H27   H     H_    0.732671 0.687305 0.837878 0.278671
H28   H     H_    0.682905 0.106467 0.389567 0.154960
H29   H     H_    0.803070 0.049645 0.433910 0.145647
H30   H     H_    0.766359 0.275752 0.437052 0.260974
H31   H     H_    0.884016 0.219324 0.484439 0.226440
H32   H     H_    0.918618 0.159496 0.352220 0.244065
H33   H     H_    0.917807 0.295096 0.355927 0.263649
H34   H     H_    0.436432 0.768133 0.383947 0.231986
H35   H     H_    0.802521 0.219451 0.305245 0.295407
H36   H     H_    0.775124 0.020280 0.695550 0.105996
H37   H     H_    0.838541 0.113030 0.633602 0.181541
H38   H     H_    0.959206 0.950556 0.729488 0.235328
H39   H     H_    0.015609 0.055845 0.675847 0.221766
H40   H     H_    0.949692 0.175966 0.767145 0.266873
H41   H     H_    0.039834 0.092091 0.819321 0.273904
H42   H     H_    0.896862 0.068388 0.821588 0.275565
H43   H     H_    0.208997 0.713706 0.248240 0.206234
H44   H     H_    0.200748 0.575903 0.249016 0.121471
H45   H     H_    0.736489 0.330918 0.623415 0.141855
H46   H     H_    0.325330 0.650340 0.239384 0.194942
H47   H     H_    0.449201 0.710365 0.938829 0.174148
H48   H     H_    0.588047 0.688487 0.973825 0.098901
H49   H     H_    0.572625 0.759945 0.104971 0.212074
H50   H     H_    0.548956 0.849089 0.025126 0.170035
H51   H     H_    0.348788 0.812195 0.024313 0.244076
H52   H     H_    0.416800 0.858732 0.118740 0.237611
H53   H     H_    0.373988 0.725733 0.106694 0.267587
H54   H     H_    0.684751 0.557535 0.056538 0.202646
H55   H     H_    0.815383 0.513917 0.082445 0.184848
H56   H     H_    0.653988 0.492439 0.761183 0.169187
H57   H     H_    0.751696 0.571801 0.155542 0.112695
H58   H     H_    0.819144 0.430460 0.944918 0.159829
H59   H     H_    0.785593 0.463018 0.845294 0.117147
H60   H     H_    0.687060 0.285007 0.941593 0.261245
H61   H     H_    0.626981 0.313259 0.842669 0.232291
H62   H     H_    0.799568 0.288703 0.791868 0.271275
H63   H     H_    0.746187 0.177553 0.840970 0.270793
H64   H     H_    0.858603 0.256878 0.891320 0.280054
H65   H     H_    0.828579 0.457430 0.351012 0.178518
H66   H     H_    0.759235 0.554562 0.297471 0.117852
H67   H     H_    0.114248 0.326432 0.639835 0.152065
H68   H     H_    0.828462 0.462759 0.247965 0.194528
H69   H     H_    0.410060 0.241069 0.043746 0.196558
H70   H     H_    0.556986 0.243351 0.066669 0.196582
H71   H     H_    0.486598 0.183428 0.978786 0.181977
H72   H     H_    0.263538 0.558579 0.111285 0.170653
H73   H     H_    0.185393 0.449870 0.151062 0.148433
H74   H     H_    0.166061 0.479623 0.048214 0.183493
H75   H     H_    0.925200 0.293884 0.658846 0.143450
H76   H     H_    0.821715 0.561042 0.466950 0.133175
N1    N     N_R   0.774070 0.445420 0.541180 -0.107984
N2    N     N_R   0.226730 0.554050 0.459240 -0.170535
O1    O     O_R   0.631480 0.627510 0.519670 -0.589219
O2    O     O_3   0.283469 0.876354 0.327245 -0.568429
O3    O     O_3   0.257557 0.065072 0.293571 -0.561385
O4    O     O_3   0.749827 0.768617 0.610211 -0.592987
O5    O     O_3   0.709589 0.105919 0.512661 -0.657954
O6    O     O_3   0.833635 0.963874 0.596823 -0.605667
O7    O     O_3   0.283075 0.648722 0.351267 -0.583956
O8    O     O_3   0.470395 0.600158 0.026564 -0.648359
O9    O     O_3   0.691746 0.422480 0.121630 -0.585103
O10   O     O_3   0.674918 0.491151 0.922232 -0.670726
O11   O     O_3   0.686096 0.404660 0.287065 -0.573347
O12   O     O_R   0.455770 0.662400 0.493360 -0.596132
O13   O     O_3   0.500054 0.338783 0.975150 -0.643767
O14   O     O_3   0.305004 0.413790 0.087033 -0.610132
O15   O     O_R   0.598240 0.480510 0.398910 -0.584949
O16   O     O_R   0.422540 0.515400 0.372600 -0.584238
O17   O     O_R   0.544230 0.337600 0.506640 -0.609667
O18   O     O_R   0.368520 0.372490 0.480330 -0.650291
O19   O     O_R   0.577460 0.484600 0.627400 -0.639632
O20   O     O_R   0.401760 0.519490 0.601090 -0.643692
O21   O     O_3   0.298673 0.548471 0.877388 -0.634755
Zn1   Zn    Zn3+2 0.617320 0.476700 0.517570 0.958927
Zn2   Zn    Zn3+2 0.382680 0.523300 0.482430 0.956217

loop_
_geom_bond_atom_site_label_1
_geom_bond_atom_site_label_2
_ccdc_geom_bond_type
C59   H52   S    
C55   O7    S    
C42   H11   S    
C59   H51   S    
O12   Zn2   S    
C55   H43   S    
C27   C29   A    
C43   H14   S    
C41   C42   S    
C20   H75   S    
C35   C36   A    
C42   H13   S    
C7    C8    A    
C46   H20   S    
C53   C54   S    
C16   O17   A    
C51   H33   S    
C6    C19   A    
C57   O8    S    
C50   H30   S    
C69   O8    S    
C48   H25   S    
C21   N2    A    
C57   H48   S    
C36   C37   A    
C48   H26   S    
C10   C15   A    
C41   H8    S    
C30   C31   A    
C31   H4    S    
C32   N1    A    
C58   H49   S    
C18   H12   S    
C54   H41   S    
C3    C18   A    
C23   C67   A    
C60   H55   S    
O16   Zn2   S    
C62   H61   S    
C5    C16   S    
C28   O20   A    
C49   H29   S    
C65   H71   S    
C64   H66   S    
C45   C56   A    
C68   C69   D    
C21   O7    S    
C63   H62   S    
O20   Zn2   S    
C44   H18   S    
C9    C10   A    
C10   C19   A    
C3    C13   A    
N2    Zn2   S    
C28   O19   A    
C20   C29   A    
C2    C34   A    
C59   H53   S    
C6    O4    S    
C46   O4    S    
C4    C35   S    
C52   H37   S    
C42   H10   S    
C13   C14   A    
C43   H15   S    
C62   H60   S    
O17   Zn1   S    
C26   N2    A    
C17   H23   S    
C65   O13   S    
C44   H17   S    
C22   H3    S    
C36   H1    S    
C50   C51   S    
C57   H47   S    
C64   H68   S    
C2    C45   A    
C64   H65   S    
C1    C19   S    
C43   H16   S    
C1    O12   A    
C24   C25   A    
C41   H9    S    
C66   H72   S    
C8    C9    A    
C32   H76   S    
C55   H44   S    
C25   C26   A    
C44   O3    S    
C29   C30   A    
C40   H7    S    
C66   O14   S    
C45   H5    S    
C67   C69   S    
C60   H54   S    
C60   O9    S    
C37   C38   A    
C61   O10   S    
C53   H38   S    
C47   C48   S    
C7    O6    S    
C16   O18   A    
C23   C34   A    
C56   O21   S    
C62   C63   S    
O1    Zn1   S    
C47   H24   S    
C4    O16   A    
C61   H58   S    
C33   H45   S    
C63   H63   S    
C12   C35   A    
C9    C11   A    
C66   H73   S    
C20   C33   A    
C40   C41   S    
C52   O6    S    
C38   C68   S    
C52   H36   S    
C30   H67   S    
C4    O15   A    
C58   C59   S    
C25   C27   A    
C65   H69   S    
C63   H64   S    
C52   C53   S    
C37   O14   S    
O18   Zn2   S    
C46   C47   S    
C11   C17   A    
C3    O3    S    
C48   H27   S    
C49   O5    S    
C8    O5    S    
C27   C32   A    
C47   H22   S    
C43   O2    S    
C6    C7    A    
C46   H21   S    
C51   H32   S    
C56   C67   A    
C50   H31   S    
C40   H6    S    
C39   O9    S    
C15   H34   S    
C21   C22   A    
C12   C39   A    
C60   H57   S    
C51   H35   S    
C44   H19   S    
C11   C13   A    
C53   H39   S    
C57   C58   S    
C38   C39   A    
O15   Zn1   S    
C55   H46   S    
C5    C18   A    
C34   H56   S    
C23   O10   S    
C14   O2    S    
C58   H50   S    
C54   H42   S    
C61   H59   S    
C22   C24   A    
C61   C62   S    
C40   O21   S    
C33   N1    A    
C49   H28   S    
C65   H70   S    
C26   C31   A    
C5    C17   A    
C54   H40   S    
O19   Zn1   S    
C49   C50   S    
N1    Zn1   S    
C64   O11   S    
C14   C15   A    
C1    O1    A    
C2    C28   S    
C12   O11   S    
C68   O13   S    
C66   H74   S    
C24   H2    S    
