data_mof_unit_29538.cif
_audit_creation_date              2012-12-11T15:32:33-0500
_audit_creation_method            fapswitch 2.2
_symmetry_space_group_name_H-M    P1
_symmetry_Int_Tables_number       1
_space_group_crystal_system       triclinic
_cell_length_a                    6.95965
_cell_length_b                    20.461597
_cell_length_c                    24.381932
_cell_angle_alpha                 89.641758
_cell_angle_beta                  90.709712
_cell_angle_gamma                 89.278233
_cell_volume                      3471.50937744

loop_
_atom_site_label
_atom_site_type_symbol
_atom_type_description
_atom_site_fract_x
_atom_site_fract_y
_atom_site_fract_z
_atom_type_partial_charge
O1    O     O_R   0.507320 0.423560 0.460500 -0.538165
O2    O     O_R   0.170760 0.556250 0.437010 -0.528248
O3    O     O_R   0.004030 0.576440 0.539500 -0.535383
C1    C     C_R   0.338149 0.576368 0.421027 0.721133
O4    O     O_R   0.177370 0.422820 0.454110 -0.538869
O5    O     O_R   0.010680 0.442050 0.556720 -0.537791
C2    C     C_R   0.346301 0.398892 0.443503 0.690965
O6    O     O_R   0.500680 0.557950 0.443280 -0.532978
O7    O     O_3   0.340380 0.506470 0.533650 -0.369312
V1    V     V_3+5 0.064130 0.498800 0.493760 1.465531
O8    O     O_R   0.681160 0.443750 0.562990 -0.537161
C3    C     C_R   0.851288 0.423733 0.578839 0.717506
O9    O     O_R   0.674560 0.577180 0.545890 -0.537618
C4    C     C_R   0.842616 0.601040 0.556644 0.700473
V2    V     V_3+5 0.564560 0.501200 0.506240 1.455547
O10   O     O_3   0.838180 0.493530 0.466350 -0.363862
C5    C     C_R   0.972645 0.837722 0.911711 -0.131728
C6    C     C_R   0.845822 0.661706 0.589008 -0.055352
C7    C     C_R   0.990892 0.719630 0.909072 -0.162058
C8    C     C_R   0.987135 0.777324 0.939090 0.078783
C9    C     C_R   0.957354 0.839706 0.853893 0.253976
C10   C     C_R   0.929318 0.780385 0.823730 -0.019837
C11   C     C_R   0.965242 0.720667 0.851950 0.065449
C12   C     C_R   0.871382 0.777709 0.766830 -0.054947
C13   C     C_R   0.900658 0.718323 0.736700 0.026696
C14   C     C_R   0.955456 0.661446 0.766290 -0.145491
C15   C     C_R   0.977951 0.662241 0.822977 -0.138490
C16   C     C_R   0.772960 0.830391 0.739697 0.335859
C17   C     C_R   0.749296 0.830047 0.683001 -0.193835
C18   C     C_R   0.794937 0.774905 0.652246 0.049845
C19   C     C_R   0.865348 0.717204 0.678516 0.081869
C20   C     C_R   0.756818 0.775920 0.595581 -0.126650
C21   C     C_R   0.780054 0.719702 0.564460 -0.143369
C22   C     C_R   0.892078 0.660616 0.645393 -0.191078
H1    H     H_    0.010674 0.616681 0.844252 0.139130
H2    H     H_    0.942430 0.614593 0.662183 0.098684
H3    H     H_    0.742014 0.721002 0.521228 0.128043
H4    H     H_    0.681072 0.872087 0.663226 0.152818
H5    H     H_    0.012471 0.673600 0.930651 0.162361
H6    H     H_    0.973954 0.614560 0.747150 0.128614
H7    H     H_    0.701939 0.819886 0.575547 0.127810
C23   C     C_3   0.843737 0.305406 0.767891 0.392639
C24   C     C_3   0.032520 0.273536 0.788274 0.142832
H8    H     H_    0.230543 0.267365 0.709816 0.146157
C25   C     C_1   0.959642 0.121622 0.875355 -0.149339
C26   C     C_1   0.864756 0.378200 0.624553 -0.180581
C27   C     C_3   0.738011 0.239936 0.771847 -0.217804
C28   C     C_3   0.929006 0.207449 0.791317 0.065145
C29   C     C_3   0.793068 0.225842 0.711371 -0.184583
C30   C     C_3   0.896661 0.292067 0.708359 0.107936
C31   C     C_3   0.983656 0.192598 0.731458 -0.142413
C32   C     C_3   0.087066 0.259425 0.727941 -0.213774
C33   C     C_1   0.946493 0.160102 0.837356 0.021587
C34   C     C_1   0.878276 0.339592 0.662462 0.017312
H9    H     H_    0.041983 0.145316 0.716492 0.141097
H10   H     H_    0.694935 0.206232 0.679412 0.134365
H11   H     H_    0.594634 0.232608 0.790181 0.162530
C35   C     C_3   0.521826 0.720792 0.210510 -0.186945
C36   C     C_3   0.323135 0.696824 0.230008 0.186268
H12   H     H_    0.611588 0.697400 0.178641 0.189718
H13   H     H_    0.100754 0.783543 0.209825 0.181293
C37   C     C_1   0.345946 0.621793 0.374898 -0.133298
C38   C     C_1   0.478453 0.877644 0.124682 -0.141192
C39   C     C_3   0.582935 0.730838 0.271366 0.123500
C40   C     C_3   0.385159 0.706825 0.290345 0.004237
C41   C     C_3   0.505381 0.802171 0.268881 0.125966
C42   C     C_3   0.441645 0.791751 0.208611 -0.028175
C43   C     C_3   0.308987 0.777323 0.287291 0.347016
C44   C     C_3   0.242317 0.767981 0.227268 -0.213786
C45   C     C_1   0.359602 0.660030 0.336687 0.135976
C46   C     C_1   0.465437 0.838970 0.162595 0.082394
C47   C     C_R   0.471731 0.161899 0.088633 -0.047160
C48   C     C_R   0.352850 0.338220 0.411296 -0.043077
C49   C     C_R   0.526890 0.278072 0.093673 -0.139903
C50   C     C_R   0.520136 0.220714 0.063407 -0.154563
C51   C     C_R   0.430695 0.160667 0.144964 -0.208319
C52   C     C_R   0.439907 0.218496 0.177197 0.087854
C53   C     C_R   0.488580 0.277486 0.150063 0.122619
C54   C     C_R   0.405066 0.219888 0.235188 0.054420
C55   C     C_R   0.419486 0.280269 0.264717 0.051741
C56   C     C_R   0.467560 0.337215 0.235235 -0.171028
C57   C     C_R   0.500924 0.335657 0.179258 -0.175609
C58   C     C_R   0.356894 0.162947 0.264662 -0.173662
C59   C     C_R   0.323423 0.164505 0.320628 -0.183092
C60   C     C_R   0.335814 0.222668 0.349827 0.131018
C61   C     C_R   0.384657 0.281656 0.322711 0.086944
C62   C     C_R   0.297342 0.222074 0.406203 -0.152320
C63   C     C_R   0.304154 0.279415 0.436483 -0.169009
C64   C     C_R   0.394010 0.339468 0.354968 -0.206046
H14   H     H_    0.538011 0.380746 0.158557 0.146387
H15   H     H_    0.428299 0.386398 0.337680 0.102226
H16   H     H_    0.270226 0.278012 0.479727 0.107514
H17   H     H_    0.286208 0.119422 0.341317 0.141059
H18   H     H_    0.564763 0.323067 0.072991 0.134664
H19   H     H_    0.553868 0.222112 0.020149 0.123872
H20   H     H_    0.396610 0.113729 0.162270 0.099224
H21   H     H_    0.481228 0.384286 0.254230 0.138226
H22   H     H_    0.343138 0.115880 0.245667 0.134795
H23   H     H_    0.259273 0.177084 0.426862 0.122256
O11   O     O_R   0.323550 0.942140 0.056770 -0.532149
O12   O     O_R   0.647080 0.077200 0.045890 -0.542017
O13   O     O_R   0.813610 0.057920 0.943260 -0.537497
C65   C     C_R   0.478198 0.101203 0.056460 0.686018
O14   O     O_R   0.653470 0.943760 0.063000 -0.533187
O15   O     O_R   0.820050 0.923540 0.960490 -0.535542
C66   C     C_R   0.486102 0.923519 0.078877 0.731259
O16   O     O_R   0.317110 0.076520 0.039540 -0.539982
O17   O     O_3   0.483830 0.993580 0.966380 -0.366133
V3    V     V_3+5 0.760140 0.001190 0.006240 1.484862
O18   O     O_R   0.149510 0.922740 0.954070 -0.532536
C67   C     C_R   0.981141 0.898836 0.943503 0.820651
O19   O     O_R   0.143120 0.056170 0.936970 -0.536354
C68   C     C_R   0.973013 0.076195 0.921128 0.740229
V4    V     V_3+5 0.259690 0.998700 0.993700 1.493672
O20   O     O_3   0.986130 0.006420 0.033620 -0.373666
I1    I     I_    0.222529 0.312648 0.848838 -0.415963
O21   O     O_3   0.770373 0.365180 0.786271 -0.617200
H24   H     H_    0.742973 0.358313 0.825672 0.320219
I2    I     I_    0.184848 0.613097 0.196740 -0.324344
O22   O     O_3   0.198719 0.806744 0.328057 -0.592301
H25   H     H_    0.161020 0.850268 0.313111 0.327795
I3    I     I_    0.647967 0.886311 0.300069 -0.365735
I4    I     I_    0.841575 0.696358 0.309770 -0.334726
I5    I     I_    0.017383 0.770472 0.025803 -0.373221
O23   O     O_3   0.986643 0.899181 0.828506 -0.633472
H26   H     H_    0.044470 0.890798 0.792251 0.315417
O24   O     O_3   0.680326 0.880081 0.767192 -0.619210
H27   H     H_    0.635908 0.862367 0.802702 0.309131

loop_
_geom_bond_atom_site_label_1
_geom_bond_atom_site_label_2
_ccdc_geom_bond_type
C13   C19   A    
C41   C43   S    
C62   C63   A    
C4    C6    S    
O2    C1    A    
C7    C8    A    
C47   C51   A    
O14   C66   A    
V4    O20   S    
C50   H19   S    
C27   C29   S    
C52   C53   A    
C14   C15   A    
C30   C34   S    
C58   C59   A    
C16   C17   A    
O5    C3    A    
O14   V3    S    
C24   C32   S    
O12   V3    S    
V2    O10   S    
C1    C37   S    
C5    C8    A    
O17   V3    S    
C37   C45   T    
O17   V4    S    
C49   H18   S    
O18   C67   A    
C55   C61   A    
O8    V2    S    
C59   C60   A    
C28   C31   S    
C63   H16   S    
C43   C44   S    
C29   C31   S    
C58   H22   S    
C17   H4    S    
C30   C32   S    
C20   H7    S    
C41   I3    S    
O1    V2    S    
C11   C15   A    
C64   H15   S    
C24   C28   S    
O18   V4    S    
C42   C46   S    
C16   O24   S    
C1    O6    A    
C59   H17   S    
H8    C32   S    
C52   C54   A    
C41   C42   S    
O15   C67   A    
C25   C33   T    
O12   C65   A    
O9    C4    A    
C26   C34   T    
C47   C50   A    
C5    C67   S    
O19   V4    S    
O19   C68   A    
C56   C57   A    
C62   H23   S    
C60   C62   A    
C35   C39   S    
C28   C33   S    
C49   C50   A    
C31   C32   S    
O11   V4    S    
C12   C13   A    
C3    C26   S    
O4    C2    A    
C15   H1    S    
C35   C36   S    
C60   C61   A    
C21   H3    S    
C42   C44   S    
C39   C41   S    
C7    C11   A    
C48   C63   A    
C17   C18   A    
C24   I1    S    
C27   H11   S    
C53   C57   A    
C27   C28   S    
C40   C43   S    
C2    C48   S    
C19   C22   A    
C51   C52   A    
C38   C66   S    
C6    C22   A    
O3    C4    A    
C7    H5    S    
C23   C30   S    
C36   C44   S    
O6    V2    S    
O9    V2    S    
O23   H26   S    
C10   C12   A    
C23   C24   S    
C9    O23   S    
O24   H27   S    
O2    V1    S    
O22   H25   S    
O7    V1    S    
O16   V4    S    
H13   C44   S    
O15   V3    S    
C36   I2    S    
O1    C2    A    
C12   C16   A    
C38   C46   T    
C55   C56   A    
C61   C64   A    
O5    V1    S    
O8    C3    A    
C23   O21   S    
C47   C65   S    
C29   H10   S    
O11   C66   A    
C57   H14   S    
C20   C21   A    
C13   C14   A    
C48   C64   A    
O4    V1    S    
O13   C68   A    
V1    O10   S    
O21   H24   S    
C36   C40   S    
C18   C20   A    
C14   H6    S    
C18   C19   A    
C56   H21   S    
C39   C40   S    
C22   H2    S    
C31   H9    S    
C23   C27   S    
O7    V2    S    
C6    C21   A    
C5    C9    A    
C8    I5    S    
V3    O20   S    
C54   C55   A    
C54   C58   A    
C39   I4    S    
C25   C68   S    
C35   C42   S    
C43   O22   S    
C29   C30   S    
C49   C53   A    
O3    V1    S    
C10   C11   A    
O13   V3    S    
C65   O16   A    
C9    C10   A    
C35   H12   S    
C51   H20   S    
C40   C45   S    
