data_mof_unit_58615.cif
_audit_creation_date              2012-10-26T19:40:09-0400
_audit_creation_method            fapswitch 2.2
_symmetry_space_group_name_H-M    P1
_symmetry_Int_Tables_number       1
_space_group_crystal_system       triclinic
_cell_length_a                    15.042369
_cell_length_b                    8.685991
_cell_length_c                    7.447609
_cell_angle_alpha                 102.860145
_cell_angle_beta                  94.547918
_cell_angle_gamma                 92.54431
_cell_volume                      943.764125932

loop_
_atom_site_label
_atom_site_type_symbol
_atom_type_description
_atom_site_fract_x
_atom_site_fract_y
_atom_site_fract_z
_atom_type_partial_charge
C1    C     C_R   0.497293 0.199731 0.453305 0.551168
C2    C     C_R   0.177797 0.442579 0.336538 -0.138318
C3    C     C_R   0.768103 0.503388 0.496792 -0.011563
C4    C     C_R   0.231897 0.496611 0.503207 -0.011563
C5    C     C_R   0.806643 0.449675 0.330856 -0.141677
C6    C     C_R   0.193357 0.550325 0.669144 -0.141677
C7    C     C_R   0.899210 0.447159 0.331091 0.008162
C8    C     C_R   0.100790 0.552841 0.668909 0.008162
C9    C     C_R   0.953458 0.501124 0.499199 0.063168
C10   C     C_R   0.046542 0.498876 0.500801 0.063168
C11   C     C_R   0.914705 0.557234 0.665765 0.007207
C12   C     C_R   0.502707 0.800269 0.546695 0.551167
C13   C     C_R   0.085294 0.442766 0.334235 0.007206
C14   C     C_R   0.938404 0.390660 0.166566 -0.138616
C15   C     C_R   0.061596 0.609340 0.833433 -0.138616
C16   C     C_R   0.031026 0.388284 0.168185 -0.137435
C17   C     C_R   0.968973 0.611715 0.831815 -0.137435
C18   C     C_2   0.495988 0.031896 0.426968 -0.155207
C19   C     C_2   0.504012 0.968104 0.573032 -0.155207
C20   C     C_R   0.328699 0.498691 0.501556 0.549426
C21   C     C_R   0.671301 0.501309 0.498444 0.549426
C22   C     C_R   0.822203 0.557421 0.663462 -0.138318
Cu1   Cu    Cu3+1 0.510010 0.517380 0.684380 0.952898
Cu2   Cu    Cu3+1 0.489990 0.482620 0.315620 0.952898
H1    H     H_    0.792398 0.600136 0.791744 0.126816
H2    H     H_    0.511584 0.039542 0.713873 0.133973
H3    H     H_    0.429968 0.377650 0.948209 0.237925
H4    H     H_    0.570032 0.622350 0.051791 0.237925
H5    H     H_    0.207601 0.399864 0.208256 0.126816
H6    H     H_    0.764689 0.407537 0.202331 0.129481
H7    H     H_    0.235311 0.592463 0.797669 0.129481
H8    H     H_    0.897486 0.348661 0.036800 0.118759
H9    H     H_    0.102514 0.651339 0.963200 0.118759
H10   H     H_    0.060235 0.344367 0.039612 0.120736
H11   H     H_    0.939765 0.655633 0.960387 0.120736
H12   H     H_    0.488416 0.960458 0.286127 0.133973
N1    N     N_2   0.474890 0.456420 0.038520 -0.259352
N2    N     N_2   0.525110 0.543580 0.961480 -0.259352
O1    O     O_R   0.506510 0.286130 0.619770 -0.503980
O2    O     O_R   0.493490 0.713870 0.380230 -0.503979
O3    O     O_R   0.489600 0.256770 0.308360 -0.498558
O4    O     O_R   0.510400 0.743230 0.691640 -0.498558
O5    O     O_R   0.378710 0.514640 0.655720 -0.509198
O6    O     O_R   0.621290 0.485360 0.344280 -0.509198
O7    O     O_R   0.361800 0.485290 0.344300 -0.505815
O8    O     O_R   0.638200 0.514710 0.655700 -0.505815

loop_
_geom_bond_atom_site_label_1
_geom_bond_atom_site_label_2
_ccdc_geom_bond_type
C12   O2    A    
C2    C4    A    
Cu1   Cu2   S    
C8    C10   A    
C15   C17   A    
N1    N2    D    
C21   O8    A    
C21   O6    A    
C9    C10   A    
C11   C22   A    
C20   O7    A    
H4    N2    S    
C6    H7    S    
Cu1   O8    S    
C10   C13   A    
Cu2   O3    S    
C9    C11   A    
C1    C18   S    
Cu1   O4    S    
H3    N1    S    
C2    H5    S    
Cu1   O1    S    
Cu2   O7    S    
C12   C19   S    
C4    C6    A    
Cu2   O2    S    
Cu2   N1    S    
C8    C15   A    
Cu2   O6    S    
C14   C16   A    
C3    C21   S    
C1    O1    A    
C12   O4    A    
Cu1   N2    S    
C20   O5    A    
Cu1   O5    S    
C19   H2    S    
C7    C9    A    
C18   C19   D    
C5    H6    S    
C13   C16   A    
C1    O3    A    
C5    C7    A    
C2    C13   A    
C11   C17   A    
C3    C22   A    
C6    C8    A    
C17   H11   S    
C16   H10   S    
C18   H12   S    
C15   H9    S    
C7    C14   A    
C14   H8    S    
C3    C5    A    
C22   H1    S    
C4    C20   S    
