data_mof_unit_39567.cif
_audit_creation_date              2012-12-11T14:08:28-0500
_audit_creation_method            fapswitch 2.2
_symmetry_space_group_name_H-M    P1
_symmetry_Int_Tables_number       1
_space_group_crystal_system       triclinic
_cell_length_a                    27.871783
_cell_length_b                    7.201908
_cell_length_c                    17.193609
_cell_angle_alpha                 90.383998
_cell_angle_beta                  100.652288
_cell_angle_gamma                 89.92446
_cell_volume                      3391.72167411

loop_
_atom_site_label
_atom_site_type_symbol
_atom_type_description
_atom_site_fract_x
_atom_site_fract_y
_atom_site_fract_z
_atom_type_partial_charge
O1    O     O_R   0.000700 0.436510 0.857920 -0.531477
O2    O     O_R   0.999300 0.563490 0.142080 -0.529097
O3    O     O_R   0.999300 0.936510 0.642080 -0.535730
O4    O     O_R   0.000700 0.063490 0.357920 -0.529934
O5    O     O_R   0.930080 0.766380 0.721890 -0.537578
O6    O     O_R   0.069920 0.233620 0.278110 -0.538143
O7    O     O_R   0.069920 0.266380 0.778110 -0.542424
O8    O     O_R   0.930080 0.733620 0.221890 -0.535550
C1    C     C_R   0.910850 0.598144 0.708446 0.706769
C2    C     C_R   0.089179 0.402357 0.294063 0.706750
C3    C     C_R   0.089721 0.097925 0.791353 0.702582
C4    C     C_R   0.910727 0.901656 0.206718 0.703086
O9    O     O_R   0.996180 0.766230 0.862310 -0.544014
O10   O     O_R   0.003820 0.233770 0.137690 -0.547085
O11   O     O_R   0.003820 0.266230 0.637690 -0.542677
O12   O     O_R   0.996180 0.733770 0.362310 -0.548229
O13   O     O_R   0.065870 0.936460 0.783500 -0.536504
O14   O     O_R   0.934130 0.063540 0.216500 -0.539231
O15   O     O_R   0.934130 0.436460 0.716500 -0.530585
O16   O     O_R   0.065870 0.563540 0.283500 -0.539151
C5    C     C_R   0.998081 0.596673 0.894434 0.757424
C6    C     C_R   0.001216 0.403164 0.105347 0.755162
C7    C     C_R   0.001579 0.096268 0.605606 0.762433
C8    C     C_R   0.998714 0.903803 0.394479 0.755964
O17   O     O_3   0.022790 0.603020 0.723980 -0.380789
O18   O     O_3   0.977210 0.396980 0.276020 -0.375509
O19   O     O_3   0.977210 0.103020 0.776020 -0.372551
O20   O     O_3   0.022790 0.896980 0.223980 -0.374731
V1    V     V_3+5 0.995770 0.877900 0.754830 1.388672
V2    V     V_3+5 0.004230 0.122100 0.245170 1.387482
V3    V     V_3+5 0.004230 0.377900 0.745170 1.385482
V4    V     V_3+5 0.995770 0.622100 0.254830 1.380741
C9    C     C_2   0.001736 0.082795 0.519681 -0.335266
C10   C     C_2   0.998901 0.917815 0.480503 -0.349200
C11   C     C_2   0.997308 0.582511 0.980352 -0.335826
C12   C     C_2   0.000918 0.417045 0.019108 -0.342476
H1    H     H_    0.003897 0.211701 0.488053 0.151437
H2    H     H_    0.996878 0.789310 0.512336 0.147779
H3    H     H_    0.994344 0.711172 0.012431 0.152396
H4    H     H_    0.004009 0.288445 0.987063 0.148903
C13   C     C_R   0.684874 0.918471 0.028746 0.586379
C14   C     C_R   0.313959 0.894410 0.952170 0.568215
C15   C     C_R   0.316189 0.475158 0.465726 0.584354
C16   C     C_R   0.685560 0.454815 0.546272 0.576502
O21   O     O_2   0.715833 0.955900 0.979217 -0.540097
O22   O     O_2   0.281396 0.845636 0.997497 -0.528552
O23   O     O_2   0.285207 0.462150 0.517205 -0.534377
O24   O     O_2   0.717401 0.349743 0.514829 -0.540450
N1    N     N_R   0.702173 0.852006 0.103747 -0.528181
N2    N     N_R   0.297739 0.966340 0.878310 -0.550233
N3    N     N_R   0.298887 0.460782 0.385652 -0.540016
N4    N     N_R   0.702594 0.577989 0.606084 -0.540719
C17   C     C_R   0.670905 0.734091 0.133478 0.573058
C18   C     C_R   0.329924 0.008259 0.829646 0.566772
C19   C     C_R   0.331160 0.458502 0.334031 0.556092
C20   C     C_R   0.670958 0.685654 0.639248 0.566740
C21   C     C_R   0.777923 0.808868 0.213410 0.163316
C22   C     C_R   0.215467 0.886978 0.803808 0.142879
C23   C     C_R   0.224394 0.297096 0.313711 0.145515
C24   C     C_R   0.777203 0.502603 0.703117 0.148637
C25   C     C_R   0.829156 0.803614 0.227851 -0.253501
C26   C     C_R   0.165548 0.924808 0.784021 -0.247784
C27   C     C_R   0.173317 0.285861 0.293189 -0.247244
C28   C     C_R   0.828082 0.507507 0.726334 -0.228091
C29   C     C_R   0.831465 0.031099 0.125258 0.047181
C30   C     C_R   0.175549 0.213294 0.860517 0.032546
C31   C     C_R   0.164715 0.557688 0.374167 0.053739
C32   C     C_R   0.835808 0.674769 0.606291 0.049648
C33   C     C_R   0.779774 0.042733 0.115367 0.152662
C34   C     C_R   0.226843 0.175209 0.881101 0.111424
C35   C     C_R   0.215622 0.590341 0.382349 0.137219
C36   C     C_R   0.783890 0.685753 0.586110 0.145141
C37   C     C_R   0.752816 0.897583 0.143891 0.271469
C38   C     C_R   0.246399 0.009825 0.853818 0.373641
C39   C     C_R   0.246309 0.453021 0.357248 0.341824
C40   C     C_R   0.754801 0.593721 0.633345 0.346878
C41   C     C_R   0.601544 0.866244 0.044601 -0.045085
C42   C     C_R   0.398027 0.928998 0.934564 -0.051552
C43   C     C_R   0.399404 0.477761 0.444292 -0.047326
C44   C     C_R   0.602145 0.536571 0.554179 -0.050495
C45   C     C_R   0.634572 0.943524 0.001845 -0.068048
C46   C     C_R   0.364442 0.876751 0.981972 -0.071181
C47   C     C_R   0.366119 0.503724 0.494918 -0.066401
C48   C     C_R   0.635147 0.436063 0.517714 -0.061130
C49   C     C_R   0.617268 0.052706 0.935895 -0.172345
C50   C     C_R   0.381795 0.820222 0.059726 -0.155170
C51   C     C_R   0.383165 0.553513 0.573752 -0.152545
C52   C     C_R   0.617322 0.314471 0.455309 -0.170491
C53   C     C_R   0.619733 0.749857 0.108428 -0.029034
C54   C     C_R   0.380541 0.987160 0.856416 -0.033279
C55   C     C_R   0.381908 0.449087 0.363065 -0.030032
C56   C     C_R   0.620059 0.665047 0.614698 -0.025464
C57   C     C_R   0.856555 0.908291 0.183229 -0.133843
C58   C     C_R   0.144403 0.082807 0.812410 -0.126627
C59   C     C_R   0.142985 0.414834 0.321899 -0.142124
C60   C     C_R   0.857491 0.592962 0.679354 -0.127420
H5    H     H_    0.643072 0.116051 0.904148 0.169868
H6    H     H_    0.355978 0.786365 0.097544 0.185165
H7    H     H_    0.357029 0.578043 0.612197 0.174690
H8    H     H_    0.642891 0.236703 0.427471 0.167198
C61   C     C_R   0.482302 0.981985 0.916859 0.042427
C62   C     C_R   0.517486 0.808861 0.062509 0.040251
C63   C     C_R   0.518188 0.599520 0.571295 0.042513
C64   C     C_R   0.483185 0.424066 0.426107 0.050278
C65   C     C_R   0.466583 0.850450 0.041689 -0.002744
C66   C     C_R   0.532990 0.994292 0.949734 -0.004523
C67   C     C_R   0.533370 0.403393 0.460551 -0.003350
C68   C     C_R   0.467628 0.552726 0.552195 -0.003592
C69   C     C_R   0.449072 0.920762 0.964643 0.050611
C70   C     C_R   0.550541 0.891298 0.019255 0.050424
C71   C     C_R   0.551193 0.511680 0.529012 0.049373
C72   C     C_R   0.450152 0.483815 0.474544 0.049884
C73   C     C_R   0.464050 0.013794 0.836034 -0.224486
C74   C     C_R   0.536267 0.675404 0.120087 -0.212692
C75   C     C_R   0.536539 0.741683 0.625453 -0.222998
C76   C     C_R   0.465413 0.403228 0.344174 -0.222336
C77   C     C_R   0.413973 0.019987 0.806657 -0.166293
C78   C     C_R   0.586567 0.647901 0.143359 -0.166478
C79   C     C_R   0.586718 0.772713 0.647480 -0.164475
C80   C     C_R   0.415542 0.418530 0.312980 -0.169161
O25   O     O_2   0.313089 0.072854 0.756193 -0.520999
O26   O     O_2   0.688234 0.592294 0.180902 -0.543436
O27   O     O_2   0.688615 0.811345 0.695790 -0.529436
O28   O     O_2   0.314586 0.468499 0.255412 -0.535941
C81   C     C_R   0.567527 0.096450 0.914864 0.074372
C82   C     C_R   0.431941 0.822585 0.092483 0.070568
C83   C     C_R   0.433299 0.574188 0.604361 0.072364
C84   C     C_R   0.566973 0.287779 0.428990 0.067485
H9    H     H_    0.142627 0.826898 0.745926 0.152328
H10   H     H_    0.847937 0.729031 0.278941 0.148553
H11   H     H_    0.845158 0.442412 0.781173 0.132311
H12   H     H_    0.156983 0.173071 0.255331 0.151874
H13   H     H_    0.401525 0.050618 0.744641 0.157311
H14   H     H_    0.599315 0.548649 0.189662 0.163749
H15   H     H_    0.599242 0.880016 0.690923 0.167401
H16   H     H_    0.403254 0.400575 0.249877 0.154813
H17   H     H_    0.488388 0.031386 0.794437 0.120376
H18   H     H_    0.512205 0.587727 0.146379 0.128219
H19   H     H_    0.512189 0.833893 0.649455 0.129310
H20   H     H_    0.490148 0.382202 0.303269 0.121781
C85   C     C_3   0.857860 0.143852 0.071126 -0.361633
C86   C     C_3   0.845673 0.071230 0.985516 -0.299052
C87   C     C_3   0.872248 0.182304 0.931090 -0.772006
H21   H     H_    0.861817 0.331174 0.931629 0.224416
H22   H     H_    0.912386 0.169232 0.950370 0.228246
H23   H     H_    0.862187 0.128198 0.869601 0.226852
H24   H     H_    0.856750 0.923060 0.983836 0.196695
H25   H     H_    0.805867 0.079883 0.962418 0.243003
H26   H     H_    0.848003 0.292963 0.073625 0.180195
H27   H     H_    0.897928 0.137298 0.088689 0.187986
C88   C     C_3   0.154672 0.385315 0.894662 -0.346740
C89   C     C_3   0.131670 0.335735 0.966333 -0.305508
C90   C     C_3   0.124256 0.508578 0.014663 -0.729889
H28   H     H_    0.160026 0.573270 0.039478 0.241196
H29   H     H_    0.101189 0.611417 0.977003 0.222619
H30   H     H_    0.106216 0.469532 0.064601 0.212602
H31   H     H_    0.095910 0.266461 0.946106 0.189328
H32   H     H_    0.155844 0.238280 0.005490 0.205639
H33   H     H_    0.183008 0.492356 0.912950 0.196175
H34   H     H_    0.128379 0.459353 0.849345 0.186640
C91   C     C_3   0.136263 0.656371 0.430393 -0.352405
C92   C     C_3   0.149079 0.572794 0.513711 -0.303790
C93   C     C_3   0.121026 0.667851 0.571142 -0.764776
H35   H     H_    0.129915 0.818287 0.576153 0.229982
H36   H     H_    0.081121 0.649996 0.550704 0.225514
H37   H     H_    0.131303 0.604077 0.630514 0.218338
H38   H     H_    0.139774 0.422461 0.510610 0.196993
H39   H     H_    0.188726 0.585772 0.537562 0.235699
H40   H     H_    0.143657 0.807851 0.432482 0.177828
H41   H     H_    0.096379 0.642717 0.412177 0.188257
C94   C     C_3   0.867640 0.724861 0.546167 -0.341726
C95   C     C_3   0.859981 0.583444 0.477521 -0.322436
C96   C     C_3   0.899752 0.597830 0.427828 -0.733909
H42   H     H_    0.901928 0.742060 0.406360 0.217239
H43   H     H_    0.935524 0.556884 0.463483 0.218923
H44   H     H_    0.891368 0.502307 0.376145 0.218848
H45   H     H_    0.860517 0.439973 0.501264 0.207871
H46   H     H_    0.824029 0.606268 0.438662 0.209889
H47   H     H_    0.860421 0.868394 0.524156 0.166581
H48   H     H_    0.906959 0.724670 0.572956 0.176312
C97   C     C_3   0.755263 0.226948 0.090690 -0.682787
H49   H     H_    0.774367 0.339725 0.128612 0.203893
H50   H     H_    0.756389 0.259491 0.028146 0.224221
H51   H     H_    0.716800 0.230277 0.099408 0.216318
C98   C     C_3   0.260743 0.309176 0.933487 -0.706441
H52   H     H_    0.260983 0.445232 0.903800 0.206348
H53   H     H_    0.248597 0.327422 0.991035 0.227212
H54   H     H_    0.299293 0.263618 0.946872 0.206171
C99   C     C_3   0.236889 0.772739 0.417312 -0.726631
H55   H     H_    0.214092 0.889625 0.389863 0.197705
H56   H     H_    0.238251 0.778178 0.482082 0.235826
H57   H     H_    0.274182 0.796780 0.405536 0.205518
C100  C     C_3   0.758117 0.791963 0.514571 -0.738151
H58   H     H_    0.782321 0.885969 0.489136 0.203514
H59   H     H_    0.740980 0.693846 0.467599 0.218657
H60   H     H_    0.729214 0.881378 0.531673 0.227828
C101  C     C_3   0.234141 0.712896 0.770304 -0.714214
H61   H     H_    0.213078 0.591152 0.784630 0.191513
H62   H     H_    0.229135 0.724463 0.704927 0.225338
H63   H     H_    0.273290 0.686127 0.793767 0.216499
C102  C     C_3   0.754849 0.774389 0.284807 -0.681273
H64   H     H_    0.776552 0.844775 0.337473 0.176448
H65   H     H_    0.717705 0.835046 0.278011 0.219522
H66   H     H_    0.754539 0.623587 0.297729 0.237859
C103  C     C_3   0.747092 0.397547 0.752455 -0.698291
H67   H     H_    0.770336 0.328175 0.803508 0.203507
H68   H     H_    0.722104 0.494001 0.776007 0.227720
H69   H     H_    0.725266 0.288989 0.715696 0.226634
C104  C     C_3   0.254328 0.139881 0.289113 -0.714778
H70   H     H_    0.231603 0.014698 0.271475 0.197317
H71   H     H_    0.269986 0.179318 0.236930 0.252666
H72   H     H_    0.283994 0.100624 0.338691 0.202963
C105  C     C_3   0.554362 0.266558 0.863195 -0.388931
C106  C     C_3   0.583784 0.440045 0.896692 -0.289428
C107  C     C_3   0.573589 0.603441 0.840175 -0.757972
H73   H     H_    0.576562 0.559385 0.779311 0.240232
H74   H     H_    0.536785 0.661025 0.840471 0.225015
H75   H     H_    0.600857 0.714311 0.858953 0.239180
H76   H     H_    0.574339 0.479521 0.954669 0.210426
H77   H     H_    0.623621 0.413437 0.906169 0.201409
H78   H     H_    0.561049 0.234721 0.802732 0.174259
H79   H     H_    0.515590 0.304220 0.859573 0.201354
C108  C     C_3   0.445182 0.816248 0.182402 -0.382597
C109  C     C_3   0.421397 0.975297 0.222683 -0.294551
C110  C     C_3   0.412003 0.918985 0.304062 -0.734052
H80   H     H_    0.383606 0.809373 0.297289 0.244682
H81   H     H_    0.445812 0.866893 0.341964 0.230703
H82   H     H_    0.398443 0.039848 0.333941 0.223764
H83   H     H_    0.446110 0.097464 0.229164 0.184241
H84   H     H_    0.386055 0.021006 0.187139 0.209583
H85   H     H_    0.433773 0.679169 0.201563 0.187746
H86   H     H_    0.484762 0.831696 0.204276 0.180398
C111  C     C_3   0.446866 0.604300 0.693395 -0.391287
C112  C     C_3   0.428282 0.447618 0.740584 -0.300469
C113  C     C_3   0.424540 0.510604 0.824296 -0.725029
H87   H     H_    0.459090 0.574682 0.854839 0.230270
H88   H     H_    0.394421 0.612403 0.821638 0.233818
H89   H     H_    0.416265 0.390392 0.859554 0.228019
H90   H     H_    0.391828 0.395274 0.712074 0.219791
H91   H     H_    0.454128 0.329909 0.743240 0.187319
H92   H     H_    0.486538 0.608008 0.714943 0.185775
H93   H     H_    0.431304 0.739416 0.707417 0.191615
C114  C     C_3   0.551583 0.123902 0.373515 -0.383604
C115  C     C_3   0.574102 0.939178 0.407616 -0.285405
C116  C     C_3   0.562897 0.781660 0.347315 -0.780728
H94   H     H_    0.523520 0.747166 0.336880 0.232223
H95   H     H_    0.573604 0.821130 0.290621 0.236808
H96   H     H_    0.583971 0.656462 0.369912 0.231970
H97   H     H_    0.614387 0.948839 0.424576 0.198653
H98   H     H_    0.559380 0.903538 0.461474 0.212209
H99   H     H_    0.511633 0.102633 0.362694 0.197690
H100  H     H_    0.562849 0.152313 0.315995 0.175415

loop_
_geom_bond_atom_site_label_1
_geom_bond_atom_site_label_2
_ccdc_geom_bond_type
C95   H45   S    
O17   V3    S    
C87   H23   S    
C47   C51   A    
C94   C95   S    
N1    C17   A    
C22   C101  S    
O1    C5    A    
C27   C59   A    
O19   V1    S    
O13   V1    S    
C102  H64   S    
C23   C104  S    
O3    C7    A    
C11   C12   D    
C14   C46   A    
C44   C48   A    
C77   H13   S    
C109  C110  S    
C104  H72   S    
C98   H53   S    
C51   C83   A    
C91   C92   S    
C17   C53   A    
C85   H26   S    
C105  C106  S    
C42   C54   A    
O7    C3    A    
C24   C28   A    
C52   H8    S    
C66   C81   A    
C41   C53   A    
C32   C60   A    
C115  H98   S    
C65   C82   A    
C63   C71   A    
C93   H36   S    
C56   C79   A    
N3    C39   S    
C67   C84   A    
C18   C54   A    
C106  H76   S    
C107  H74   S    
C66   C70   A    
O4    C8    A    
C32   C94   S    
C25   C57   A    
C24   C103  S    
C96   H44   S    
C31   C35   A    
C50   C82   A    
C67   C71   A    
C61   C69   A    
C114  C115  S    
C97   H49   S    
O1    V3    S    
C110  H82   S    
C15   C47   A    
C115  C116  S    
C62   C65   A    
O2    V4    S    
C14   O22   S    
C21   C37   A    
C95   H46   S    
O3    V1    S    
C31   C91   S    
C34   C38   A    
C19   C55   A    
C34   C98   S    
C110  H81   S    
C64   C76   A    
C81   C105  S    
C1    O15   A    
C93   H35   S    
C99   H57   S    
C2    O16   A    
C100  H59   S    
O2    C6    A    
C113  H87   S    
C33   C37   A    
C63   C68   A    
O14   V2    S    
C90   H29   S    
C111  C112  S    
C51   H7    S    
C78   H14   S    
C36   C40   A    
C30   C58   A    
C91   H40   S    
C16   N4    A    
O11   C7    A    
C88   C89   S    
O15   V3    S    
O12   C8    A    
C96   H42   S    
C116  H94   S    
C107  H75   S    
C31   C59   A    
C102  H66   S    
C102  H65   S    
C26   H9    S    
C94   H47   S    
C99   H55   S    
C105  H78   S    
O10   V2    S    
C50   H6    S    
C13   N1    A    
C108  H86   S    
C108  H85   S    
C85   H27   S    
C104  H70   S    
O5    V1    S    
C103  H68   S    
C89   H32   S    
C83   C111  S    
C114  H99   S    
C115  H97   S    
O8    V4    S    
C20   O27   S    
C86   H25   S    
C12   H4    S    
C93   H37   S    
O7    V3    S    
C28   C60   A    
C108  C109  S    
C97   H50   S    
C36   C100  S    
C64   C72   A    
O18   V4    S    
C10   H2    S    
C98   H54   S    
C112  H91   S    
C7    C9    S    
C103  H67   S    
C24   C40   A    
C8    C10   S    
C68   C72   A    
C32   C36   A    
C80   H16   S    
C88   H33   S    
C44   C56   A    
C101  H63   S    
C11   H3    S    
C107  H73   S    
C54   C77   A    
C26   C58   A    
O5    C1    A    
C63   C75   A    
C62   C74   A    
C109  H84   S    
C29   C85   S    
C105  H79   S    
C42   C46   A    
C101  H61   S    
C1    C60   S    
C28   H11   S    
C41   C45   A    
O8    C4    A    
C100  H60   S    
C13   C45   A    
C110  H80   S    
O9    C5    A    
N2    C18   A    
C27   H12   S    
C35   C99   S    
C101  H62   S    
O11   V3    S    
N2    C38   S    
C74   C78   A    
C96   H43   S    
C22   C26   A    
C14   N2    A    
C73   C77   A    
C91   H41   S    
C43   C72   A    
C3    C58   S    
C111  H92   S    
O6    V2    S    
C18   O25   S    
C75   H19   S    
C75   C79   A    
C116  H95   S    
C113  H88   S    
C55   C80   A    
C113  H89   S    
N1    C37   S    
C4    C57   S    
C62   C70   A    
C112  C113  S    
C4    O14   A    
C23   C39   A    
C95   C96   S    
C22   C38   A    
C9    H1    S    
C92   C93   S    
O16   V4    S    
C103  H69   S    
O9    V1    S    
C61   C66   A    
C87   H22   S    
C65   C69   A    
C89   H31   S    
C3    O13   A    
C76   C80   A    
C114  H100  S    
C97   H51   S    
C49   C81   A    
C106  C107  S    
C43   C55   A    
C86   H24   S    
C48   C52   A    
N4    C40   S    
O6    C2    A    
C21   C25   A    
C5    C11   S    
C16   C48   A    
O12   V4    S    
C6    C12   S    
C23   C27   A    
C25   H10   S    
C17   O26   S    
C73   H17   S    
C88   H34   S    
O10   C6    A    
O20   V2    S    
C87   H21   S    
C30   C88   S    
C52   C84   A    
C46   C50   A    
C109  H83   S    
C35   C39   A    
C15   N3    A    
C98   H52   S    
C30   C34   A    
C2    C59   S    
C29   C33   A    
C44   C71   A    
C90   H30   S    
C29   C57   A    
C104  H71   S    
C9    C10   D    
C42   C69   A    
N3    C19   A    
C112  H90   S    
C74   H18   S    
C68   C83   A    
C61   C73   A    
C94   H48   S    
C79   H15   S    
C82   C108  S    
C49   H5    S    
C92   H39   S    
C92   H38   S    
C43   C47   A    
N4    C20   A    
C111  H93   S    
C20   C56   A    
C53   C78   A    
C45   C49   A    
C100  H58   S    
C19   O28   S    
C116  H96   S    
C21   C102  S    
C84   C114  S    
C13   O21   S    
C86   C87   S    
C106  H77   S    
C89   C90   S    
C99   H56   S    
C90   H28   S    
C85   C86   S    
C15   O23   S    
C41   C70   A    
C64   C67   A    
O4    V2    S    
C16   O24   S    
C33   C97   S    
C76   H20   S    
