data_mof_unit_68384.cif
_audit_creation_date              2012-12-10T17:16:42-0500
_audit_creation_method            fapswitch 2.2
_symmetry_space_group_name_H-M    P1
_symmetry_Int_Tables_number       1
_space_group_crystal_system       triclinic
_cell_length_a                    10.216096
_cell_length_b                    10.696097
_cell_length_c                    10.619046
_cell_angle_alpha                 91.836025
_cell_angle_beta                  97.21345
_cell_angle_gamma                 84.703693
_cell_volume                      1146.02370973

loop_
_atom_site_label
_atom_site_type_symbol
_atom_type_description
_atom_site_fract_x
_atom_site_fract_y
_atom_site_fract_z
_atom_type_partial_charge
C1    C     C_R   0.442373 0.511331 0.266788 0.899041
C2    C     C_R   0.508179 0.739565 0.513950 0.889084
C3    C     C_R   0.654507 0.090688 0.328752 -0.180798
C4    C     C_R   0.345495 0.909310 0.671248 -0.180803
C5    C     C_R   0.770311 0.021741 0.301342 0.190618
C6    C     C_R   0.229690 0.978253 0.698658 0.190616
C7    C     C_R   0.825327 0.923296 0.380983 0.133163
C8    C     C_R   0.174675 0.076703 0.619020 0.133178
C9    C     C_R   0.748875 0.880028 0.469829 0.143450
C10   C     C_R   0.251125 0.119972 0.530175 0.143444
C11   C     C_R   0.616755 0.930925 0.472129 -0.002277
C12   C     C_R   0.557630 0.488674 0.733211 0.899071
C13   C     C_R   0.383245 0.069075 0.527873 -0.002270
C14   C     C_R   0.581495 0.049676 0.420888 0.027663
C15   C     C_R   0.418506 0.950324 0.579113 0.027667
C16   C     C_R   0.523675 0.874687 0.534784 -0.120647
C17   C     C_R   0.476325 0.125314 0.465218 -0.120648
C18   C     C_2   0.692027 0.354769 0.904594 0.991413
C19   C     C_2   0.307917 0.645151 0.095366 0.991496
C20   C     C_2   0.405375 0.537361 0.133353 -0.253620
C21   C     C_2   0.594615 0.462613 0.866648 -0.253594
C22   C     C_2   0.472099 0.469734 0.051109 0.093000
C23   C     C_2   0.527907 0.530236 0.948899 0.092947
C24   C     C_2   0.059750 0.516859 0.474252 0.169644
C25   C     C_2   0.940253 0.483136 0.525750 0.169648
C26   C     C_R   0.491820 0.260434 0.486050 0.889119
H1    H     H_    0.621502 0.175849 0.277860 0.191343
H2    H     H_    0.378500 0.824149 0.722137 0.191340
H3    H     H_    0.851220 0.440087 0.353836 0.212296
H4    H     H_    0.148779 0.559913 0.646165 0.212305
H5    H     H_    0.783122 0.188410 0.854812 0.383373
H6    H     H_    0.216742 0.811498 0.145060 0.383391
I1    I     I_    0.972032 0.142294 0.620531 -0.211364
I2    I     I_    0.059753 0.529783 0.272058 -0.141196
I3    I     I_    0.027967 0.857696 0.379474 -0.211356
I4    I     I_    0.860411 0.077364 0.145482 -0.135655
I5    I     I_    0.139587 0.922622 0.854514 -0.135725
I6    I     I_    0.843979 0.792807 0.637331 -0.215278
I7    I     I_    0.156022 0.207189 0.362671 -0.215245
I8    I     I_    0.548480 0.727597 0.949218 -0.261979
I9    I     I_    0.451471 0.272380 0.050773 -0.261914
I10   I     I_    0.940247 0.470213 0.727947 -0.141150
N1    N     N_2   0.157300 0.551390 0.551120 -0.196802
N2    N     N_2   0.842700 0.448610 0.448880 -0.196806
O1    O     O_R   0.568940 0.489660 0.307530 -0.597659
O2    O     O_R   0.714242 0.256124 0.818054 -0.758633
O3    O     O_2   0.245433 0.646332 0.989275 -0.559788
O4    O     O_R   0.285665 0.743835 0.181844 -0.758609
O5    O     O_R   0.431060 0.510340 0.692470 -0.597650
O6    O     O_R   0.348880 0.522640 0.340350 -0.556903
O7    O     O_R   0.651120 0.477360 0.659650 -0.556895
O8    O     O_R   0.610030 0.300280 0.483580 -0.575192
O9    O     O_R   0.389970 0.699720 0.516420 -0.575210
O10   O     O_R   0.389970 0.333270 0.516400 -0.601040
O11   O     O_R   0.610030 0.666730 0.483600 -0.601043
O12   O     O_2   0.754500 0.353511 0.010705 -0.559759
Zn1   Zn    Zn3+2 0.646940 0.477980 0.478080 1.044600
Zn2   Zn    Zn3+2 0.353060 0.522020 0.521920 1.044600

loop_
_geom_bond_atom_site_label_1
_geom_bond_atom_site_label_2
_ccdc_geom_bond_type
C25   I10   S    
O9    Zn2   S    
O7    Zn1   S    
C26   O8    A    
C18   C21   S    
C2    C16   S    
C1    O6    A    
C19   C20   S    
C13   C15   A    
C18   O12   D    
N2    Zn1   S    
C2    O11   A    
C1    O1    A    
C4    C15   A    
C3    H1    S    
C12   O5    A    
C6    I5    S    
C9    C11   A    
C14   C17   A    
O1    Zn1   S    
H6    O4    S    
C3    C14   A    
C12   C21   S    
C13   C17   A    
C17   C26   S    
C26   O10   A    
C25   N2    D    
C8    C10   A    
C9    I6    S    
C4    H2    S    
C20   C22   D    
C5    C7    A    
C8    I1    S    
O11   Zn1   S    
H3    N2    S    
C11   C14   A    
C19   O3    D    
H4    N1    S    
C22   I9    S    
O8    Zn1   S    
C15   C16   A    
O6    Zn2   S    
C5    I4    S    
C18   O2    S    
C12   O7    A    
C24   C25   S    
C4    C6    A    
O10   Zn2   S    
C7    C9    A    
C24   N1    D    
C22   C23   S    
C1    C20   S    
C6    C8    A    
N1    Zn2   S    
C19   O4    S    
C7    I3    S    
C21   C23   D    
C10   C13   A    
C11   C16   A    
C24   I2    S    
O5    Zn2   S    
C23   I8    S    
C2    O9    A    
C10   I7    S    
C3    C5    A    
H5    O2    S    
