data_mof_unit_26702.cif
_audit_creation_date              2012-12-10T16:57:05-0500
_audit_creation_method            fapswitch 2.2
_symmetry_space_group_name_H-M    P1
_symmetry_Int_Tables_number       1
_space_group_crystal_system       triclinic
_cell_length_a                    7.759105
_cell_length_b                    8.575225
_cell_length_c                    16.450149
_cell_angle_alpha                 91.491443
_cell_angle_beta                  81.320679
_cell_angle_gamma                 93.627431
_cell_volume                      1079.6758127

loop_
_atom_site_label
_atom_site_type_symbol
_atom_type_description
_atom_site_fract_x
_atom_site_fract_y
_atom_site_fract_z
_atom_type_partial_charge
C1    C     C_R   0.546142 0.794800 0.498015 0.970328
C2    C     C_R   0.453838 0.205204 0.502175 0.974736
C3    C     C_2   0.570503 0.958196 0.497021 -0.369034
C4    C     C_2   0.429444 0.041801 0.503487 -0.363746
C5    C     C_R   0.479372 0.505447 0.654644 0.953469
C6    C     C_R   0.522548 0.503347 0.344836 0.935295
C7    C     C_R   0.483144 0.555022 0.739064 -0.196231
C8    C     C_R   0.542465 0.537388 0.256906 -0.226333
C9    C     C_R   0.565070 0.466913 0.790828 0.388753
C10   C     C_R   0.427535 0.633281 0.225098 0.410074
C11   C     C_R   0.591087 0.529481 0.868167 0.454474
C12   C     C_R   0.470606 0.688384 0.144173 0.487198
C13   C     C_R   0.561138 0.689596 0.886774 -0.016371
C14   C     C_R   0.634996 0.656271 0.097425 0.026652
C15   C     C_R   0.478948 0.774760 0.833964 -0.245216
C16   C     C_R   0.741677 0.555008 0.129329 -0.257580
C17   C     C_R   0.437149 0.707024 0.761440 -0.279632
C18   C     C_R   0.694870 0.494319 0.207085 -0.290156
C19   C     C_2   0.592262 0.766100 0.965075 -0.178805
C20   C     C_2   0.696699 0.706439 0.011795 -0.125170
H1    H     H_    0.783591 0.419444 0.229965 0.182551
H2    H     H_    0.378804 0.776967 0.720111 0.179565
H3    H     H_    0.809168 0.648936 0.979920 0.183339
H4    H     H_    0.507507 0.857226 0.989060 0.207161
H5    H     H_    0.447867 0.894667 0.848704 0.180152
H6    H     H_    0.863379 0.521843 0.093713 0.159926
H7    H     H_    0.703726 0.009166 0.490905 0.179467
H8    H     H_    0.296217 0.990824 0.509637 0.180619
H9    H     H_    0.022194 0.379228 0.439978 0.185695
H10   H     H_    0.977645 0.620200 0.560330 0.189324
N1    N     N_2   0.953500 0.457650 0.478520 -0.190004
N2    N     N_2   0.046500 0.542350 0.521480 -0.178199
O1    O     O_R   0.388470 0.738640 0.505270 -0.604269
O2    O     O_R   0.611530 0.261360 0.494730 -0.608009
O3    O     O_R   0.679650 0.711510 0.491500 -0.633625
O4    O     O_R   0.320350 0.288490 0.508500 -0.632900
O5    O     O_R   0.337210 0.515200 0.623500 -0.628376
O6    O     O_R   0.662790 0.484800 0.376500 -0.631346
O7    O     O_R   0.628380 0.488060 0.609730 -0.613587
O8    O     O_R   0.371620 0.511940 0.390270 -0.588201
Zn1   Zn    Zn3+2 0.305580 0.518120 0.509190 0.945628
Zn2   Zn    Zn3+2 0.694420 0.481880 0.490810 0.931101
O9    O     O_3   0.606301 0.315524 0.767880 -0.621710
C21   C     C_3   0.789577 0.309319 0.750161 -0.230845
H11   H     H_    0.849682 0.314612 0.807373 0.195609
H12   H     H_    0.850456 0.403431 0.707814 0.155502
H13   H     H_    0.819856 0.195920 0.718974 0.179121
O10   O     O_3   0.290729 0.696960 0.276620 -0.571915
C22   C     C_3   0.137563 0.597762 0.279276 -0.205873
H14   H     H_    0.162074 0.471382 0.269314 0.110654
H15   H     H_    0.056091 0.636049 0.234719 0.169026
H16   H     H_    0.058802 0.610980 0.340730 0.199625
O11   O     O_3   0.357254 0.784246 0.115330 -0.598633
C23   C     C_3   0.224803 0.692262 0.082604 -0.347448
H17   H     H_    0.204701 0.569697 0.104799 0.120746
H18   H     H_    0.252894 0.687939 0.014585 0.174334
H19   H     H_    0.099696 0.749462 0.099076 0.201887
O12   O     O_3   0.648227 0.434488 0.924077 -0.629077
C24   C     C_3   0.503381 0.345262 0.964835 -0.277643
H20   H     H_    0.447646 0.260628 0.921959 0.188435
H21   H     H_    0.400815 0.421034 0.995506 0.142666
H22   H     H_    0.547724 0.277151 0.013404 0.196822

loop_
_geom_bond_atom_site_label_1
_geom_bond_atom_site_label_2
_ccdc_geom_bond_type
C2    C4    S    
N2    Zn1   S    
C20   H3    S    
C23   H18   S    
C15   C17   A    
N1    Zn2   S    
C5    O5    A    
C11   O12   S    
C11   C13   A    
C19   C20   D    
O2    Zn2   S    
C21   H13   S    
O9    C21   S    
C22   H16   S    
O1    Zn1   S    
C2    O2    A    
C3    H7    S    
C19   H4    S    
C10   O10   S    
C1    O1    A    
C24   H20   S    
H9    N1    S    
C16   C18   A    
O11   C23   S    
H10   N2    S    
C9    C11   A    
O4    Zn1   S    
C12   O11   S    
C10   C12   A    
C6    C8    S    
C8    C10   A    
O10   C22   S    
C4    H8    S    
C12   C14   A    
O6    Zn2   S    
O7    Zn2   S    
C14   C16   A    
C13   C15   A    
O5    Zn1   S    
C6    O8    A    
C9    O9    S    
C24   H21   S    
C13   C19   S    
C3    C4    D    
C18   H1    S    
C14   C20   S    
C21   H11   S    
C1    O3    A    
C15   H5    S    
C7    C9    A    
C22   H14   S    
C2    O4    A    
C1    C3    S    
C5    C7    S    
O3    Zn2   S    
C23   H17   S    
O8    Zn1   S    
C24   H22   S    
C5    O7    A    
C7    C17   A    
O12   C24   S    
C6    O6    A    
C23   H19   S    
N1    N2    D    
C8    C18   A    
C17   H2    S    
C21   H12   S    
C22   H15   S    
C16   H6    S    
