data_mof_unit_16391.cif
_audit_creation_date              2012-12-10T17:03:25-0500
_audit_creation_method            fapswitch 2.2
_symmetry_space_group_name_H-M    P1
_symmetry_Int_Tables_number       1
_space_group_crystal_system       triclinic
_cell_length_a                    15.064421
_cell_length_b                    11.08603
_cell_length_c                    9.817741
_cell_angle_alpha                 111.026675
_cell_angle_beta                  97.867335
_cell_angle_gamma                 90.999148
_cell_volume                      1512.09544361

loop_
_atom_site_label
_atom_site_type_symbol
_atom_type_description
_atom_site_fract_x
_atom_site_fract_y
_atom_site_fract_z
_atom_type_partial_charge
C1    C     C_R   0.495119 0.254728 0.441034 0.860634
C2    C     C_R   0.504881 0.745272 0.558966 0.860631
C3    C     C_R   0.025024 0.298939 0.284098 0.270388
C4    C     C_R   0.974972 0.701089 0.715876 0.270386
C5    C     C_2   0.482943 0.117336 0.409974 -0.350361
C6    C     C_2   0.517057 0.882664 0.590025 -0.350361
C7    C     C_2   0.517671 0.064889 0.507292 0.226128
C8    C     C_2   0.482329 0.935111 0.492708 0.226130
C9    C     C_2   0.507501 0.510276 0.081200 -0.012483
C10   C     C_2   0.492499 0.489724 0.918800 -0.012480
C11   C     C_R   0.329378 0.501471 0.502032 0.821140
C12   C     C_R   0.670622 0.498530 0.497968 0.821140
C13   C     C_R   0.821572 0.610989 0.585611 0.071576
C14   C     C_R   0.178425 0.389024 0.414375 0.071577
C15   C     C_R   0.766831 0.498826 0.494936 -0.055632
C16   C     C_R   0.233168 0.501180 0.505064 -0.055630
C17   C     C_R   0.803540 0.388677 0.402556 0.089276
C18   C     C_R   0.196461 0.611332 0.597443 0.089285
C19   C     C_R   0.896276 0.394622 0.396324 0.060277
C20   C     C_R   0.103723 0.605394 0.603665 0.060278
C21   C     C_R   0.952963 0.500224 0.499485 -0.024290
C22   C     C_R   0.047035 0.499793 0.500503 -0.024291
C23   C     C_R   0.915912 0.605718 0.601814 0.043572
C24   C     C_R   0.084085 0.394301 0.398170 0.043573
C25   C     C_R   0.933311 0.297727 0.287556 -0.193460
C26   C     C_R   0.066685 0.702298 0.712420 -0.193457
Cu1   Cu    Cu3+1 0.515770 0.521810 0.644910 0.990903
Cu2   Cu    Cu3+1 0.484230 0.478190 0.355090 0.990902
H1    H     H_    0.890804 0.222242 0.199315 0.200916
H2    H     H_    0.109191 0.777790 0.800653 0.200914
H3    H     H_    0.563404 0.937630 0.688666 0.180960
H4    H     H_    0.436596 0.062370 0.311334 0.180959
H5    H     H_    0.440407 0.417872 0.845997 0.164317
H6    H     H_    0.559593 0.582128 0.154003 0.164316
H7    H     H_    0.588544 0.622192 0.934167 0.205372
H8    H     H_    0.411456 0.377808 0.065833 0.205373
N1    N     N_2   0.460520 0.445420 0.137370 -0.275008
N2    N     N_2   0.539480 0.554580 0.862630 -0.275008
O1    O     O_R   0.508410 0.332340 0.577400 -0.532635
O2    O     O_R   0.491590 0.667660 0.422600 -0.532634
O3    O     O_R   0.481780 0.295500 0.332650 -0.584418
O4    O     O_R   0.518220 0.704500 0.667350 -0.584421
O5    O     O_R   0.383570 0.518390 0.622380 -0.587610
O6    O     O_R   0.616430 0.481610 0.377620 -0.587609
O7    O     O_R   0.356940 0.481550 0.377630 -0.550172
O8    O     O_R   0.643060 0.518450 0.622370 -0.550171
C27   C     C_3   0.777996 0.738244 0.644780 -0.719524
H9    H     H_    0.718789 0.742278 0.565957 0.192584
H10   H     H_    0.755573 0.749819 0.751584 0.263804
H11   H     H_    0.824001 0.821715 0.656323 0.263872
C28   C     C_3   0.221997 0.261767 0.355187 -0.719525
H12   H     H_    0.281200 0.257718 0.434008 0.192587
H13   H     H_    0.175988 0.178294 0.343624 0.263870
H14   H     H_    0.244423 0.250207 0.248391 0.263805
C29   C     C_3   0.745146 0.264746 0.312644 -0.773087
H15   H     H_    0.778251 0.180199 0.326331 0.242030
H16   H     H_    0.678653 0.261923 0.347887 0.232653
H17   H     H_    0.734472 0.252491 0.194137 0.242518
C30   C     C_3   0.254857 0.735259 0.687359 -0.773116
H18   H     H_    0.221766 0.819800 0.673634 0.242035
H19   H     H_    0.265507 0.747535 0.805869 0.242518
H20   H     H_    0.321361 0.738068 0.652151 0.232658
Br1   Br    Br    0.059332 0.181269 0.103723 -0.458040
Br2   Br    Br    0.940663 0.818784 0.896237 -0.458045
Br3   Br    Br    0.379788 0.847057 0.342706 -0.506194
Br4   Br    Br    0.620212 0.152943 0.657294 -0.506194

loop_
_geom_bond_atom_site_label_1
_geom_bond_atom_site_label_2
_ccdc_geom_bond_type
C4    C26   A    
C29   H15   S    
C11   O5    A    
C7    C8    S    
C14   C16   A    
C3    Br1   S    
C27   H11   S    
C11   C16   S    
C17   C29   S    
C14   C28   S    
C12   C15   S    
C3    C25   A    
C10   N2    D    
C28   H14   S    
C5    H4    S    
C13   C15   A    
C6    H3    S    
C30   H18   S    
C27   H10   S    
C21   C22   A    
C7    Br4   S    
Cu1   O4    S    
C3    C24   A    
C2    C6    S    
C20   C26   A    
Cu2   N1    S    
C2    O4    A    
C1    C5    S    
Cu1   O8    S    
C1    O3    A    
H8    N1    S    
C19   C21   A    
C20   C22   A    
C26   H2    S    
C10   H5    S    
C18   C20   A    
C29   H16   S    
C21   C23   A    
C25   H1    S    
C9    H6    S    
C19   C25   A    
C22   C24   A    
Cu2   O7    S    
C11   O7    A    
C30   H19   S    
Cu2   O2    S    
Cu1   N2    S    
C28   H12   S    
C2    O2    A    
C18   C30   S    
C8    Br3   S    
H7    N2    S    
C13   C23   A    
C4    Br2   S    
C16   C18   A    
C9    N1    D    
C9    C10   S    
C29   H17   S    
C14   C24   A    
Cu1   Cu2   S    
C5    C7    D    
Cu1   O5    S    
C1    O1    A    
C12   O6    A    
C30   H20   S    
C6    C8    D    
C17   C19   A    
C4    C23   A    
C15   C17   A    
C13   C27   S    
Cu2   O6    S    
Cu2   O3    S    
C27   H9    S    
Cu1   O1    S    
C28   H13   S    
C12   O8    A    
