data_mof_unit_8919.cif
_audit_creation_date              2012-10-26T20:47:56-0400
_audit_creation_method            fapswitch 2.2
_symmetry_space_group_name_H-M    P1
_symmetry_Int_Tables_number       1
_space_group_crystal_system       triclinic
_cell_length_a                    15.161902
_cell_length_b                    13.804847
_cell_length_c                    10.771243
_cell_angle_alpha                 89.550249
_cell_angle_beta                  90.688957
_cell_angle_gamma                 89.893806
_cell_volume                      2254.26778344

loop_
_atom_site_label
_atom_site_type_symbol
_atom_type_description
_atom_site_fract_x
_atom_site_fract_y
_atom_site_fract_z
_atom_type_partial_charge
C1    C     C_R   0.330225 0.499992 0.498831 0.534278
C2    C     C_R   0.907441 0.586614 0.524780 0.335751
C3    C     C_R   0.815175 0.411705 0.520455 0.232911
C4    C     C_R   0.815550 0.588329 0.511063 0.227429
C5    C     C_R   0.768088 0.500064 0.511401 -0.075754
C6    C     C_R   0.953604 0.498911 0.516441 -0.041513
C7    C     C_R   0.569660 0.106148 0.449967 0.408726
C8    C     C_R   0.557998 0.893505 0.573296 0.384977
C9    C     C_R   0.493288 0.499987 0.260517 0.662762
C10   C     C_R   0.568525 0.208153 0.449423 0.540242
C11   C     C_R   0.557836 0.791466 0.573387 0.536029
C12   C     C_3   0.588610 0.512008 0.932355 0.740025
C13   C     C_R   0.426892 0.208955 0.537373 -0.097873
C14   C     C_R   0.440923 0.790243 0.426090 -0.045962
C15   C     C_R   0.424277 0.106999 0.535876 -0.249249
C16   C     C_R   0.438197 0.892189 0.424458 -0.229034
C17   C     C_R   0.497339 0.054029 0.495314 0.009760
C18   C     C_R   0.497582 0.945351 0.498085 0.010905
C19   C     C_R   0.670641 0.499986 0.503629 0.649914
C20   C     C_R   0.496538 0.499711 0.740562 0.619818
C21   C     C_3   0.429118 0.583861 0.073480 0.094332
C22   C     C_3   0.452227 0.400498 0.074382 0.112537
C23   C     C_R   0.094525 0.559873 0.424065 0.263089
C24   C     C_3   0.430055 0.582755 0.926571 0.039178
C25   C     C_3   0.455541 0.399977 0.930107 0.089284
C26   C     C_3   0.585862 0.512813 0.076181 0.634073
C27   C     C_3   0.489025 0.499356 0.123278 -0.031863
C28   C     C_3   0.493569 0.499626 0.879240 -0.048829
C29   C     C_3   0.780203 0.298216 0.665212 0.046382
C30   C     C_3   0.712314 0.220200 0.695343 -0.222361
C31   C     C_3   0.719985 0.186377 0.830253 -0.427811
C32   C     C_3   0.788319 0.718023 0.383919 0.047360
C33   C     C_3   0.719125 0.795706 0.354870 -0.222632
C34   C     C_R   0.100367 0.437504 0.590317 0.277384
C35   C     C_3   0.736775 0.845696 0.230799 -0.450423
C36   C     C_3   0.267898 0.567735 0.071447 0.045166
C37   C     C_3   0.230519 0.659736 0.009671 -0.292802
C38   C     C_3   0.158049 0.635507 0.915704 -0.480640
C39   C     C_3   0.352068 0.308703 0.196625 0.007484
C40   C     C_3   0.255178 0.278656 0.195196 -0.275805
C41   C     C_3   0.238114 0.196956 0.288048 -0.460873
C42   C     C_3   0.495495 0.744622 0.917301 0.069639
C43   C     C_3   0.442172 0.824830 0.979530 -0.319310
C44   C     C_3   0.502553 0.898679 0.041938 -0.471841
C45   C     C_R   0.186382 0.562387 0.424499 -0.121001
C46   C     C_3   0.461043 0.246014 0.834465 0.045457
C47   C     C_3   0.418705 0.177067 0.927881 -0.295701
C48   C     C_3   0.383145 0.086497 0.864535 -0.490722
C49   C     C_3   0.014074 0.578366 0.243789 0.002511
C50   C     C_3   0.973731 0.655088 0.156555 -0.269547
C51   C     C_3   0.914552 0.610834 0.056440 -0.441182
C52   C     C_3   0.070013 0.406924 0.794499 -0.002112
C53   C     C_3   0.045059 0.324860 0.883359 -0.239493
C54   C     C_3   0.053635 0.355512 0.018789 -0.486434
C55   C     C_R   0.191966 0.435406 0.580799 -0.151193
C56   C     C_R   0.234736 0.499361 0.501024 -0.070251
C57   C     C_R   0.050604 0.498580 0.509884 0.103179
C58   C     C_R   0.906716 0.411699 0.510376 0.341771
Cu1   Cu    Cu3+1 0.499990 0.596430 0.500000 1.106566
Cu2   Cu    Cu3+1 0.499990 0.403570 0.500000 1.031946
F1    F     F_    0.639900 0.058624 0.402397 -0.598351
F2    F     F_    0.951489 0.670924 0.543840 -0.579494
F3    F     F_    0.616373 0.941340 0.646981 -0.611240
F4    F     F_    0.635181 0.255622 0.393115 -0.514876
F5    F     F_    0.617007 0.742802 0.645687 -0.526992
F6    F     F_    0.620996 0.598945 0.120147 -0.637458
F7    F     F_    0.638664 0.438472 0.123258 -0.547356
F8    F     F_    0.626981 0.595722 0.886713 -0.558007
F9    F     F_    0.641765 0.436420 0.893434 -0.560941
F10   F     F_    0.949169 0.325975 0.494719 -0.569044
H1    H     H_    0.462230 0.649495 0.106912 0.171180
H2    H     H_    0.229896 0.385747 0.638932 0.116595
H3    H     H_    0.768022 0.361017 0.727609 0.161369
H4    H     H_    0.847512 0.268951 0.684361 0.180845
H5    H     H_    0.645229 0.250314 0.679097 0.195622
H6    H     H_    0.721762 0.157133 0.633351 0.237828
H7    H     H_    0.786361 0.154986 0.849044 0.158407
H8    H     H_    0.669533 0.129982 0.848577 0.180139
H9    H     H_    0.708719 0.247924 0.893976 0.239019
H10   H     H_    0.785200 0.663043 0.308353 0.134426
H11   H     H_    0.854305 0.752921 0.385028 0.197913
H12   H     H_    0.496995 0.341795 0.109690 0.207488
H13   H     H_    0.652814 0.761754 0.350630 0.192570
H14   H     H_    0.719953 0.850783 0.429558 0.243862
H15   H     H_    0.803367 0.879124 0.231519 0.169189
H16   H     H_    0.687052 0.903656 0.214373 0.195993
H17   H     H_    0.732203 0.792709 0.153867 0.188015
H18   H     H_    0.218918 0.542960 0.140376 0.144888
H19   H     H_    0.272366 0.505583 0.007514 0.151805
H20   H     H_    0.203402 0.707765 0.082314 0.160568
H21   H     H_    0.282765 0.700242 0.960845 0.206849
H22   H     H_    0.186724 0.597727 0.834908 0.151050
H23   H     H_    0.369536 0.247742 0.568653 0.139742
H24   H     H_    0.125746 0.703208 0.882189 0.181591
H25   H     H_    0.107745 0.588323 0.958981 0.132609
H26   H     H_    0.368005 0.332372 0.291828 0.205167
H27   H     H_    0.393420 0.244641 0.174696 0.111690
H28   H     H_    0.213666 0.342058 0.219569 0.173314
H29   H     H_    0.235913 0.254371 0.100597 0.159181
H30   H     H_    0.279236 0.132710 0.266375 0.142574
H31   H     H_    0.167545 0.175833 0.283077 0.176876
H32   H     H_    0.253486 0.221292 0.383937 0.161423
H33   H     H_    0.532481 0.778588 0.840386 0.237654
H34   H     H_    0.395467 0.750175 0.367880 0.161133
H35   H     H_    0.546483 0.715263 0.980979 0.211686
H36   H     H_    0.400331 0.862042 0.908376 0.169193
H37   H     H_    0.398061 0.793768 0.050895 0.168281
H38   H     H_    0.542914 0.862803 0.115763 0.167629
H39   H     H_    0.462210 0.956145 0.085321 0.149883
H40   H     H_    0.546718 0.932740 0.972645 0.184537
H41   H     H_    0.508253 0.204172 0.777941 0.167719
H42   H     H_    0.409779 0.275019 0.769813 0.121113
H43   H     H_    0.467799 0.155636 0.000528 0.181538
H44   H     H_    0.362471 0.214526 0.971172 0.166910
H45   H     H_    0.365881 0.069720 0.567636 0.131175
H46   H     H_    0.333298 0.106692 0.792463 0.148722
H47   H     H_    0.350950 0.039270 0.934403 0.147862
H48   H     H_    0.437614 0.045455 0.821004 0.174728
H49   H     H_    0.961706 0.526591 0.271694 0.137983
H50   H     H_    0.066083 0.538342 0.193057 0.106584
H51   H     H_    0.933672 0.706493 0.210865 0.176650
H52   H     H_    0.027296 0.697201 0.112062 0.169422
H53   H     H_    0.953501 0.564352 0.994072 0.139624
H54   H     H_    0.883835 0.669643 0.999727 0.196164
H55   H     H_    0.861155 0.567370 0.099267 0.204599
H56   H     H_    0.390873 0.929298 0.364768 0.123798
H57   H     H_    0.025968 0.470210 0.809761 0.143174
H58   H     H_    0.139525 0.427744 0.815870 0.104750
H59   H     H_    0.976035 0.301788 0.864219 0.181853
H60   H     H_    0.089382 0.262002 0.867624 0.174987
H61   H     H_    0.119232 0.388432 0.037046 0.126373
H62   H     H_    0.046001 0.291255 0.080335 0.172744
H63   H     H_    0.001367 0.408464 0.041376 0.157133
H64   H     H_    0.366052 0.558304 0.890141 0.127431
H65   H     H_    0.386408 0.394087 0.893750 0.101536
H66   H     H_    0.219965 0.612249 0.362943 0.158183
N1    N     N_R   0.500020 0.258690 0.500000 -0.291560
N2    N     N_R   0.500020 0.741310 0.500000 -0.273564
O1    O     O_R   0.371450 0.581430 0.500010 -0.510846
O2    O     O_3   0.771913 0.676399 0.501870 -0.447492
O3    O     O_3   0.346815 0.587189 0.138182 -0.565273
O4    O     O_3   0.363285 0.386649 0.112018 -0.603943
O5    O     O_3   0.438191 0.674688 0.864621 -0.558619
O6    O     O_3   0.509460 0.320471 0.893896 -0.516407
O7    O     O_3   0.049612 0.625647 0.348867 -0.518646
O8    O     O_3   0.059307 0.374186 0.671377 -0.512778
O9    O     O_R   0.371450 0.418570 0.500010 -0.560928
O10   O     O_R   0.499980 0.581440 0.317690 -0.493526
O11   O     O_R   0.499980 0.418560 0.317690 -0.490084
O12   O     O_R   0.628540 0.581440 0.499990 -0.416165
O13   O     O_R   0.628540 0.418560 0.499990 -0.400267
O14   O     O_R   0.500010 0.581440 0.682310 -0.396029
O15   O     O_R   0.500010 0.418560 0.682310 -0.503909
O16   O     O_3   0.772020 0.324687 0.538311 -0.437396

loop_
_geom_bond_atom_site_label_1
_geom_bond_atom_site_label_2
_ccdc_geom_bond_type
C36   H19   S    
C47   H44   S    
C55   C56   A    
C23   C45   A    
C46   H42   S    
C7    C10   A    
C51   H53   S    
C6    C58   A    
C50   H52   S    
C43   C44   S    
C42   H33   S    
C40   H29   S    
C52   H58   S    
Cu1   O14   S    
C36   H18   S    
C25   C28   S    
C54   H61   S    
C23   O7    S    
C9    O11   A    
C26   C27   S    
C37   C38   S    
C37   H20   S    
C12   C28   S    
C26   F7    S    
C22   H12   S    
C36   C37   S    
C1    C56   S    
C32   O2    S    
C40   H28   S    
C30   C31   S    
C35   H16   S    
C39   H27   S    
C49   H50   S    
C29   H3    S    
C24   O5    S    
C38   H22   S    
C19   O12   A    
C41   H32   S    
C23   C57   A    
Cu2   O15   S    
C7    F1    S    
C35   H17   S    
C14   N2    A    
C45   C56   A    
C7    C17   A    
C22   C25   S    
C38   H25   S    
C34   C57   A    
C19   O13   A    
C10   N1    A    
C55   H2    S    
C1    O1    A    
Cu2   N1    S    
C48   H46   S    
C44   H39   S    
C21   C27   S    
C34   C55   A    
C46   H41   S    
C51   H54   S    
C6    C57   S    
C38   H24   S    
C2    C6    A    
C50   H51   S    
C33   H14   S    
C52   H57   S    
C31   H7    S    
C44   H38   S    
C20   O15   A    
C37   H21   S    
C26   F6    S    
C39   C40   S    
C58   F10   S    
C46   O6    S    
C29   H4    S    
C20   C28   S    
Cu1   N2    S    
C53   C54   S    
C54   H63   S    
C3    O16   S    
C8    C18   A    
C20   O14   A    
C12   C26   S    
C43   H36   S    
C51   H55   S    
C2    C4    A    
C36   O3    S    
C29   C30   S    
C32   H11   S    
C32   H10   S    
C30   H6    S    
C14   H34   S    
C47   C48   S    
C39   O4    S    
Cu1   O1    S    
C22   O4    S    
C50   C51   S    
C41   H30   S    
C49   O7    S    
C43   H37   S    
C31   H9    S    
C33   H13   S    
C40   C41   S    
Cu2   O9    S    
C12   F9    S    
C21   H1    S    
C22   C27   S    
C13   C15   A    
C15   H45   S    
C1    O9    A    
C25   O6    S    
C53   H59   S    
C42   C43   S    
C52   C53   S    
C9    C27   S    
C31   H8    S    
Cu1   O12   S    
C24   H64   S    
C47   H43   S    
C46   C47   S    
C35   H15   S    
C45   H66   S    
C52   O8    S    
C11   N2    A    
C10   F4    S    
C24   C28   S    
C4    C5    A    
C3    C5    A    
C48   H48   S    
C15   C17   A    
C48   H47   S    
C5    C19   S    
C54   H62   S    
C9    O10   A    
C17   C18   S    
C32   C33   S    
C12   F8    S    
C21   O3    S    
Cu1   O10   S    
C30   H5    S    
C34   O8    S    
C49   H49   S    
C8    C11   A    
C33   C35   S    
C41   H31   S    
C14   C16   A    
Cu2   O11   S    
C4    O2    S    
C25   H65   S    
C42   H35   S    
C39   H26   S    
C8    F3    S    
C3    C58   A    
C2    F2    S    
Cu1   Cu2   S    
C16   C18   A    
C49   C50   S    
C21   C24   S    
C13   H23   S    
C42   O5    S    
C53   H60   S    
C16   H56   S    
Cu2   O13   S    
C11   F5    S    
C13   N1    A    
C29   O16   S    
C44   H40   S    
