data_mof_unit_59952.cif
_audit_creation_date              2012-12-11T15:41:18-0500
_audit_creation_method            fapswitch 2.2
_symmetry_space_group_name_H-M    P1
_symmetry_Int_Tables_number       1
_space_group_crystal_system       triclinic
_cell_length_a                    19.172023
_cell_length_b                    11.001533
_cell_length_c                    18.811733
_cell_angle_alpha                 90.561871
_cell_angle_beta                  90.669686
_cell_angle_gamma                 90.395025
_cell_volume                      3967.24237142

loop_
_atom_site_label
_atom_site_type_symbol
_atom_type_description
_atom_site_fract_x
_atom_site_fract_y
_atom_site_fract_z
_atom_type_partial_charge
C1    C     C_R   0.727169 0.956860 0.853496 0.540115
C2    C     C_R   0.304667 0.458750 0.035819 0.016390
C3    C     C_R   0.761291 0.863898 0.353243 0.552767
C4    C     C_2   0.499423 0.167149 0.921403 -0.124399
C5    C     C_2   0.501788 0.171192 0.079224 -0.117232
C6    C     C_2   0.999424 0.667149 0.921403 -0.124398
C7    C     C_2   0.001788 0.671192 0.079224 -0.117231
C8    C     C_2   0.499942 0.069488 0.039531 -0.166980
C9    C     C_2   0.514627 0.071233 0.962865 -0.169188
C10   C     C_2   0.999942 0.569489 0.039531 -0.166980
C11   C     C_2   0.014627 0.571233 0.962865 -0.169188
C12   C     C_R   0.765896 0.445687 0.067727 0.019950
C13   C     C_R   0.194571 0.961721 0.962199 0.009352
C14   C     C_R   0.251254 0.410378 0.921322 0.014004
C15   C     C_R   0.265896 0.945687 0.067727 0.019949
C16   C     C_R   0.751254 0.910377 0.921322 0.014004
C17   C     C_3   0.617898 0.618411 0.422048 -0.267590
C18   C     C_3   0.370603 0.333965 0.644937 -0.269429
C19   C     C_3   0.117909 0.118507 0.422122 -0.267537
C20   C     C_3   0.870636 0.834073 0.644950 -0.269404
C21   C     C_R   0.804668 0.958748 0.035819 0.016390
C22   C     C_R   0.817407 0.421590 0.951049 -0.160495
C23   C     C_R   0.219082 0.297873 0.025473 -0.147632
C24   C     C_R   0.317407 0.921590 0.951049 -0.160495
C25   C     C_R   0.719082 0.797874 0.025473 -0.147632
C26   C     C_R   0.824630 0.428552 0.024633 -0.148066
C27   C     C_R   0.215578 0.313216 0.952248 -0.159368
C28   C     C_R   0.324630 0.928552 0.024633 -0.148066
C29   C     C_R   0.275936 0.962944 0.143628 0.543613
C30   C     C_R   0.715577 0.813216 0.952248 -0.159368
C31   C     C_3   0.632441 0.421761 0.049388 -0.293527
C32   C     C_3   0.309181 0.611063 0.971844 -0.244918
C33   C     C_3   0.132441 0.921762 0.049388 -0.293526
C34   C     C_3   0.809184 0.111061 0.971844 -0.244919
C35   C     C_3   0.623618 0.406199 0.969651 -0.257252
C36   C     C_3   0.315428 0.590844 0.051238 -0.280135
C37   C     C_3   0.123618 0.906199 0.969651 -0.257252
C38   C     C_3   0.815430 0.090842 0.051238 -0.280135
C39   C     C_R   0.750696 0.426083 0.919832 0.010513
C40   C     C_R   0.227169 0.456860 0.853496 0.540118
C41   C     C_R   0.259614 0.377532 0.068656 0.022450
C42   C     C_R   0.250696 0.926083 0.919831 0.010513
C43   C     C_R   0.759614 0.877532 0.068656 0.022450
C44   C     C_R   0.449577 0.174888 0.436960 0.019143
C45   C     C_R   0.492877 0.171172 0.578399 0.005557
C46   C     C_R   0.949567 0.674902 0.436962 0.019137
C47   C     C_R   0.992867 0.671184 0.578402 0.005550
C48   C     C_R   0.474688 0.278665 0.470425 0.009487
C49   C     C_R   0.496710 0.276133 0.538416 0.024565
C50   C     C_R   0.974689 0.778678 0.470424 0.009538
C51   C     C_R   0.775935 0.462944 0.143628 0.543610
C52   C     C_R   0.996712 0.776142 0.538415 0.024606
C53   C     C_R   0.457215 0.069352 0.550021 -0.184035
C54   C     C_R   0.436501 0.070617 0.477969 -0.162048
C55   C     C_R   0.957182 0.569380 0.550030 -0.184092
C56   C     C_R   0.936471 0.570645 0.477977 -0.162086
C57   C     C_R   0.530447 0.177514 0.850889 0.540723
C58   C     C_R   0.469871 0.177787 0.149343 0.560663
C59   C     C_R   0.030447 0.677514 0.850889 0.540722
C60   C     C_R   0.969871 0.677788 0.149343 0.560664
C61   C     C_3   0.530424 0.366169 0.449760 -0.271195
C62   C     C_R   0.702614 0.473967 0.035083 0.007996
C63   C     C_3   0.555450 0.362908 0.526106 -0.253958
C64   C     C_3   0.030432 0.866176 0.449761 -0.271182
C65   C     C_3   0.055457 0.862908 0.526107 -0.253959
C66   C     C_R   0.757747 0.435119 0.427894 0.031337
C67   C     C_R   0.237812 0.424832 0.572855 0.032638
C68   C     C_R   0.257765 0.935149 0.427903 0.031335
C69   C     C_R   0.737824 0.924815 0.572863 0.032643
C70   C     C_R   0.800733 0.352804 0.461715 -0.024188
C71   C     C_R   0.180658 0.418804 0.526193 -0.031644
C72   C     C_R   0.300757 0.852846 0.461728 -0.024202
C73   C     C_R   0.299561 0.476677 0.963211 0.012369
C74   C     C_R   0.680672 0.918670 0.526208 -0.031703
C75   C     C_R   0.799406 0.338622 0.533699 0.004825
C76   C     C_R   0.188403 0.413523 0.453855 -0.007164
C77   C     C_R   0.299425 0.838658 0.533709 0.004827
C78   C     C_R   0.688413 0.913387 0.453877 -0.007156
C79   C     C_R   0.714532 0.496572 0.544975 -0.167739
C80   C     C_R   0.313050 0.414371 0.470927 -0.150264
C81   C     C_R   0.214544 0.996599 0.544982 -0.167746
C82   C     C_R   0.813057 0.914403 0.470924 -0.150233
C83   C     C_R   0.718043 0.515487 0.471274 0.098626
C84   C     C_R   0.202614 0.973967 0.035083 0.007995
C85   C     C_R   0.305255 0.418305 0.545386 0.095438
C86   C     C_R   0.218066 0.015525 0.471282 0.098615
C87   C     C_R   0.805268 0.918336 0.545388 0.095471
C88   C     C_3   0.811212 0.221502 0.446695 -0.280448
C89   C     C_3   0.119635 0.500644 0.520164 -0.241296
C90   C     C_3   0.311282 0.721561 0.446705 -0.280437
C91   C     C_3   0.619551 0.000311 0.520169 -0.241234
C92   C     C_3   0.809065 0.204799 0.526382 -0.232242
C93   C     C_3   0.128882 0.496768 0.440377 -0.273103
C94   C     C_3   0.309125 0.704845 0.526392 -0.232261
C95   C     C_R   0.799562 0.976676 0.963211 0.012367
C96   C     C_3   0.628776 0.996388 0.440374 -0.272987
C97   C     C_R   0.752814 0.403479 0.575771 -0.012034
C98   C     C_R   0.254152 0.412557 0.424665 -0.013042
C99   C     C_R   0.252821 0.903495 0.575777 -0.012041
C100  C     C_R   0.754152 0.912540 0.424669 -0.013015
C101  C     C_R   0.738425 0.365134 0.852080 0.535412
C102  C     C_R   0.263773 0.355397 0.144488 0.548096
C103  C     C_R   0.238425 0.865134 0.852080 0.535411
C104  C     C_R   0.763773 0.855397 0.144488 0.548096
C105  C     C_R   0.724373 0.961236 0.645262 0.549395
C106  C     C_R   0.694571 0.461721 0.962199 0.009352
C107  C     C_R   0.273696 0.960872 0.354184 0.549323
C108  C     C_R   0.224372 0.461237 0.645260 0.549422
C109  C     C_R   0.773691 0.460862 0.354180 0.549320
C110  C     C_R   0.528998 0.175840 0.645581 0.525656
C111  C     C_R   0.435895 0.180870 0.361854 0.563936
C112  C     C_R   0.028994 0.675841 0.645583 0.525660
C113  C     C_R   0.935893 0.680873 0.361853 0.563944
C114  C     C_R   0.739334 0.360143 0.646421 0.537705
C115  C     C_R   0.261291 0.363897 0.353243 0.552766
C116  C     C_R   0.239335 0.860146 0.646422 0.537699
Cr1   Cr    Cr6+3 0.769260 0.163750 0.750730 1.013747
Cr2   Cr    Cr6+3 0.385810 0.322400 0.252290 1.003159
Cr3   Cr    Cr6+3 0.114190 0.822400 0.747710 0.999532
Cr4   Cr    Cr6+3 0.885810 0.822400 0.252290 1.003166
Cr5   Cr    Cr6+3 0.230740 0.163750 0.249270 1.012801
Cr6   Cr    Cr6+3 0.269260 0.663750 0.750730 1.013750
Cr7   Cr    Cr6+3 0.730740 0.663750 0.249270 1.012771
Cr8   Cr    Cr6+3 0.612640 0.009910 0.748780 1.004521
Cr9   Cr    Cr6+3 0.387360 0.009910 0.251220 1.003050
Cr10  Cr    Cr6+3 0.112640 0.509910 0.748780 1.004535
Cr11  Cr    Cr6+3 0.887360 0.509910 0.251220 1.003064
Cr12  Cr    Cr6+3 0.614190 0.322400 0.747710 0.999545
H1    H     H_    0.488115 0.982656 0.063549 0.139871
H2    H     H_    0.548618 0.450467 0.555068 0.139168
H3    H     H_    0.068500 0.826721 0.411912 0.154611
H4    H     H_    0.048628 0.950466 0.555071 0.139152
H5    H     H_    0.681312 0.553235 0.577468 0.124339
H6    H     H_    0.364774 0.411272 0.449119 0.136038
H7    H     H_    0.181322 0.053264 0.577473 0.124356
H8    H     H_    0.864780 0.911352 0.449111 0.136015
H9    H     H_    0.863316 0.202914 0.423846 0.143060
H10   H     H_    0.129871 0.591882 0.544058 0.132569
H11   H     H_    0.363397 0.703031 0.423868 0.143049
H12   H     H_    0.540140 0.991753 0.940779 0.159159
H13   H     H_    0.629705 0.091611 0.544023 0.132661
H14   H     H_    0.766250 0.179170 0.417748 0.132652
H15   H     H_    0.072207 0.452296 0.537917 0.158091
H16   H     H_    0.266342 0.679189 0.417745 0.132662
H17   H     H_    0.572168 0.951835 0.537953 0.157986
H18   H     H_    0.761888 0.155335 0.543794 0.152240
H19   H     H_    0.084932 0.450622 0.411758 0.150460
H20   H     H_    0.261961 0.655337 0.543793 0.152284
H21   H     H_    0.584878 0.950000 0.411788 0.150343
H22   H     H_    0.859474 0.174673 0.549774 0.158496
H23   H     H_    0.988115 0.482656 0.063549 0.139871
H24   H     H_    0.145344 0.585438 0.417912 0.128286
H25   H     H_    0.359537 0.674758 0.549792 0.158438
H26   H     H_    0.645112 0.085107 0.417863 0.128347
H27   H     H_    0.517717 0.256466 0.055735 0.109594
H28   H     H_    0.472636 0.245708 0.942975 0.111504
H29   H     H_    0.017717 0.756467 0.055735 0.109594
H30   H     H_    0.972636 0.745708 0.942975 0.111503
H31   H     H_    0.862700 0.398828 0.919814 0.136701
H32   H     H_    0.187724 0.226425 0.048367 0.149939
H33   H     H_    0.362701 0.898828 0.919814 0.136700
H34   H     H_    0.040140 0.491753 0.940779 0.159159
H35   H     H_    0.687723 0.726425 0.048367 0.149939
H36   H     H_    0.875777 0.415555 0.047773 0.137592
H37   H     H_    0.179830 0.256685 0.921254 0.137878
H38   H     H_    0.375777 0.915555 0.047773 0.137591
H39   H     H_    0.679829 0.756685 0.921254 0.137879
H40   H     H_    0.096652 0.990219 0.072549 0.141355
H41   H     H_    0.761633 0.162554 0.956843 0.155800
H42   H     H_    0.596652 0.490218 0.072549 0.141354
H43   H     H_    0.261630 0.662554 0.956843 0.155798
H44   H     H_    0.635377 0.334320 0.078407 0.131832
H45   H     H_    0.006979 0.954077 0.434107 0.123935
H46   H     H_    0.358437 0.643890 0.947792 0.144602
H47   H     H_    0.135377 0.834321 0.078407 0.131834
H48   H     H_    0.858439 0.143887 0.947791 0.144601
H49   H     H_    0.622028 0.309202 0.952684 0.153614
H50   H     H_    0.368523 0.610705 0.072900 0.142302
H51   H     H_    0.122028 0.809202 0.952684 0.153614
H52   H     H_    0.868525 0.110701 0.072899 0.142302
H53   H     H_    0.581890 0.464116 0.946788 0.145689
H54   H     H_    0.271998 0.631587 0.081881 0.135997
H55   H     H_    0.081890 0.964116 0.946788 0.145688
H56   H     H_    0.107314 0.819552 0.532519 0.146547
H57   H     H_    0.772001 0.131587 0.081880 0.135996
H58   H     H_    0.450747 0.987604 0.580916 0.127786
H59   H     H_    0.414978 0.989359 0.453514 0.145970
H60   H     H_    0.950704 0.487637 0.580928 0.127814
H61   H     H_    0.914933 0.489395 0.453526 0.145979
H62   H     H_    0.698733 0.694308 0.479517 0.252536
H63   H     H_    0.584315 0.606449 0.469111 0.106703
H64   H     H_    0.609657 0.543876 0.382603 0.158269
H65   H     H_    0.603013 0.704990 0.396427 0.156461
H66   H     H_    0.410454 0.451153 0.567396 0.245578
H67   H     H_    0.506958 0.454056 0.434103 0.123961
H68   H     H_    0.419984 0.346769 0.675144 0.166779
H69   H     H_    0.368363 0.242569 0.619654 0.143409
H70   H     H_    0.328505 0.338729 0.684433 0.153388
H71   H     H_    0.198836 0.194394 0.479504 0.252497
H72   H     H_    0.084368 0.106473 0.469219 0.106743
H73   H     H_    0.109638 0.044021 0.382641 0.158261
H74   H     H_    0.102996 0.205129 0.396552 0.156430
H75   H     H_    0.910467 0.951224 0.567380 0.245551
H76   H     H_    0.920024 0.846901 0.675145 0.166784
H77   H     H_    0.868394 0.742662 0.619684 0.143409
H78   H     H_    0.607308 0.319557 0.532518 0.146554
H79   H     H_    0.828546 0.838848 0.684454 0.153406
H80   H     H_    0.568493 0.326715 0.411912 0.154593
N1    N     N_2   0.690132 0.624416 0.444101 -0.463192
N2    N     N_2   0.364467 0.427741 0.591554 -0.511265
N3    N     N_2   0.190172 0.124468 0.444110 -0.463135
N4    N     N_2   0.864484 0.927818 0.591549 -0.511280
O1    O     O_R   0.784290 0.290360 0.830540 -0.529491
O2    O     O_R   0.456020 0.282110 0.333230 -0.527712
O3    O     O_R   0.043980 0.782110 0.666770 -0.528512
O4    O     O_R   0.956020 0.782110 0.333230 -0.527704
O5    O     O_R   0.679070 0.374030 0.674430 -0.508550
O6    O     O_R   0.320930 0.374030 0.325570 -0.528722
O7    O     O_R   0.179070 0.874030 0.674430 -0.508551
O8    O     O_R   0.820930 0.874030 0.325570 -0.528724
O9    O     O_3   0.665360 0.165350 0.749070 -0.254609
O10   O     O_3   0.334640 0.165350 0.250930 -0.276131
O11   O     O_3   0.165360 0.665350 0.749070 -0.254610
O12   O     O_R   0.215710 0.290360 0.169460 -0.528882
O13   O     O_3   0.834640 0.665350 0.250930 -0.276127
O14   O     O_R   0.762610 0.041070 0.825230 -0.502059
O15   O     O_R   0.237390 0.041070 0.174770 -0.501552
O16   O     O_R   0.262610 0.541070 0.825230 -0.502053
O17   O     O_R   0.737390 0.541070 0.174770 -0.501556
O18   O     O_R   0.667390 0.924160 0.829970 -0.526034
O19   O     O_R   0.332610 0.924160 0.170030 -0.528304
O20   O     O_R   0.167390 0.424160 0.829970 -0.526036
O21   O     O_R   0.832610 0.424160 0.170030 -0.528304
O22   O     O_R   0.553980 0.081420 0.821780 -0.496117
O23   O     O_R   0.284290 0.790360 0.830540 -0.529492
O24   O     O_R   0.446020 0.081420 0.178220 -0.494490
O25   O     O_R   0.053980 0.581420 0.821780 -0.496117
O26   O     O_R   0.946020 0.581420 0.178220 -0.494490
O27   O     O_R   0.543210 0.283170 0.826740 -0.524139
O28   O     O_R   0.456790 0.283170 0.173260 -0.514630
O29   O     O_R   0.043210 0.783170 0.826740 -0.524144
O30   O     O_R   0.956790 0.783170 0.173260 -0.514629
O31   O     O_R   0.678350 0.375000 0.822720 -0.498141
O32   O     O_R   0.321650 0.375000 0.177280 -0.495903
O33   O     O_R   0.178350 0.875000 0.822720 -0.498140
O34   O     O_R   0.715710 0.790360 0.169460 -0.528886
O35   O     O_R   0.821650 0.875000 0.177280 -0.495904
O36   O     O_R   0.785060 0.289300 0.670580 -0.513748
O37   O     O_R   0.214940 0.289300 0.329420 -0.491441
O38   O     O_R   0.285060 0.789300 0.670580 -0.513758
O39   O     O_R   0.714940 0.789300 0.329420 -0.491466
O40   O     O_R   0.763330 0.040090 0.676940 -0.482896
O41   O     O_R   0.236670 0.040090 0.323060 -0.474696
O42   O     O_R   0.263330 0.540090 0.676940 -0.482886
O43   O     O_R   0.736670 0.540090 0.323060 -0.474698
O44   O     O_R   0.668160 0.923110 0.670000 -0.526973
O45   O     O_R   0.554690 0.080440 0.673480 -0.509039
O46   O     O_R   0.331840 0.923110 0.330000 -0.533530
O47   O     O_R   0.168160 0.423110 0.670000 -0.526969
O48   O     O_R   0.831840 0.423110 0.330000 -0.533519
O49   O     O_R   0.445310 0.080440 0.326520 -0.508412
O50   O     O_R   0.054690 0.580440 0.673480 -0.509028
O51   O     O_R   0.945310 0.580440 0.326520 -0.508417
O52   O     O_R   0.543980 0.282110 0.666770 -0.528496

loop_
_geom_bond_atom_site_label_1
_geom_bond_atom_site_label_2
_ccdc_geom_bond_type
C1    O14   A    
C35   H49   S    
C7    C10   D    
C79   C83   A    
C55   C56   A    
Cr3   O3    S    
C49   C63   S    
C51   O17   A    
C24   C42   A    
C87   N4    S    
C17   H65   S    
C24   H33   S    
C111  O2    A    
C75   C97   A    
Cr8   O44   S    
C70   C88   S    
C42   C103  S    
C25   C43   A    
C80   C85   A    
C90   H11   S    
C48   C61   S    
C80   H6    S    
C53   C54   A    
C17   H63   S    
Cr12  O27   S    
Cr7   O39   S    
C108  O47   A    
C13   C84   A    
C107  O41   A    
C19   H72   S    
C103  O33   A    
C116  O38   A    
Cr10  O47   S    
C107  O46   A    
C19   N3    S    
C32   C36   S    
C18   N2    S    
H62   N1    S    
C3    O39   A    
C30   H39   S    
Cr3   O33   S    
C15   C84   A    
C17   N1    S    
C71   C76   A    
C10   H23   S    
C9    H12   S    
C8    H1    S    
C67   C108  S    
C112  O3    A    
C67   C71   A    
Cr2   O10   S    
C31   H44   S    
C22   C39   A    
C2    C41   A    
C16   C30   A    
C47   C112  S    
C37   H55   S    
C77   C94   S    
C19   H73   S    
C50   C64   S    
C41   C102  S    
Cr10  O50   S    
C113  O51   A    
C63   H2    S    
C61   C63   S    
C43   C104  S    
C111  O49   A    
C22   C26   A    
C59   O25   A    
C66   C83   A    
C21   C43   A    
Cr1   O9    S    
C3    C100  S    
C114  O36   A    
C21   C38   S    
C88   C92   S    
C101  O1    A    
C8    C9    S    
C63   H78   S    
H66   N2    S    
C4    C57   S    
Cr2   O6    S    
C50   C52   A    
Cr5   O10   S    
C115  O6    A    
C15   C29   S    
Cr4   O4    S    
Cr4   O35   S    
C23   C27   A    
C14   C27   A    
C40   O20   A    
C61   H67   S    
Cr7   O43   S    
C81   C86   A    
C69   C87   A    
C68   C72   A    
Cr8   O22   S    
C20   N4    S    
Cr6   O23   S    
C91   C96   S    
C45   C53   A    
C85   N2    S    
Cr3   O7    S    
C65   H4    S    
C31   C62   S    
C5    C58   S    
C20   H77   S    
C57   O22   A    
C58   O28   A    
C1    O18   A    
C88   H14   S    
C13   C42   A    
C6    H30   S    
Cr1   O40   S    
Cr2   O32   S    
C90   C94   S    
C80   C98   A    
C17   H64   S    
C94   H20   S    
C79   H5    S    
C96   H26   S    
Cr1   O14   S    
C67   C85   A    
Cr11  O21   S    
C92   H18   S    
C14   C73   A    
C38   H52   S    
C86   N3    S    
C29   O19   A    
C110  O45   A    
C78   C96   S    
C99   C116  S    
C69   C105  S    
C45   C110  S    
C3    O8    A    
C81   C99   A    
C5    H27   S    
C18   H68   S    
Cr9   O46   S    
C109  O43   A    
C19   H74   S    
C33   C37   S    
C12   C26   A    
C89   C93   S    
C74   C91   S    
C40   O16   A    
Cr10  O20   S    
C53   H58   S    
C18   H70   S    
C72   C77   A    
C76   C93   S    
Cr6   O38   S    
C12   C62   A    
C64   H45   S    
Cr5   O37   S    
Cr9   O10   S    
Cr7   O17   S    
C64   H3    S    
C45   C49   A    
Cr4   O8    S    
C104  O35   A    
Cr6   O16   S    
C23   H32   S    
C18   H69   S    
Cr3   O11   S    
C102  O12   A    
C39   C106  A    
C36   H50   S    
C69   C74   A    
Cr2   O2    S    
C1    C16   S    
Cr4   O30   S    
C55   H60   S    
C34   C95   S    
C116  O7    A    
Cr1   O1    S    
C44   C48   A    
Cr3   O29   S    
C20   H76   S    
C57   O27   A    
C2    C73   A    
C71   C89   S    
C27   H37   S    
C115  O37   A    
C68   C86   A    
C75   C92   S    
Cr2   O28   S    
C48   C49   A    
C68   C107  S    
C32   H43   S    
Cr8   O45   S    
C89   H10   S    
C104  O34   A    
C54   H59   S    
C6    C11   D    
C92   H22   S    
C31   C35   S    
H75   N4    S    
C83   N1    S    
C33   H40   S    
C60   O26   A    
C101  O31   A    
C29   O15   A    
C114  O5    A    
C15   C28   A    
C4    H28   S    
C7    C60   S    
C91   H17   S    
C12   C51   S    
C47   C55   A    
C72   C90   S    
Cr7   O13   S    
Cr1   O36   S    
C2    C36   S    
C25   C30   A    
C56   H61   S    
C16   C95   A    
C103  O23   A    
C46   C113  S    
C108  O42   A    
C34   C38   S    
C11   H34   S    
C82   C100  A    
C6    C59   S    
C79   C97   A    
C20   H79   S    
C24   C28   A    
C105  O40   A    
C34   H41   S    
Cr9   O19   S    
C23   C41   A    
Cr12  O9    S    
Cr6   O42   S    
Cr7   O34   S    
Cr5   O41   S    
C47   C52   A    
C62   C106  A    
C31   H42   S    
C28   H38   S    
C35   H53   S    
C38   H57   S    
C21   C95   A    
C46   C50   A    
C46   C56   A    
C58   O24   A    
Cr5   O15   S    
C39   C101  S    
C59   O29   A    
C51   O21   A    
C64   C65   S    
C109  O48   A    
C105  O44   A    
C93   H19   S    
C97   C114  S    
C102  O32   A    
Cr9   O24   S    
C89   H15   S    
C22   H31   S    
C78   C100  A    
C98   C115  S    
C66   C70   A    
C81   H7    S    
C32   H46   S    
C13   C37   S    
C25   H35   S    
C94   H25   S    
C96   H21   S    
Cr12  O5    S    
C37   H51   S    
C26   H36   S    
Cr5   O12   S    
Cr11  O51   S    
C77   C99   A    
H71   N3    S    
Cr12  O52   S    
C66   C109  S    
C82   H8    S    
C33   H47   S    
C33   C84   S    
Cr8   O18   S    
C88   H9    S    
Cr10  O11   S    
C34   H48   S    
C10   C11   S    
C60   O30   A    
C61   H80   S    
C14   C40   S    
Cr6   O11   S    
C44   C111  S    
C44   C54   A    
C36   H54   S    
Cr8   O9    S    
Cr11  O26   S    
C7    H29   S    
C74   C78   A    
Cr9   O49   S    
C70   C75   A    
C35   C106  S    
Cr12  O31   S    
C5    C8    D    
Cr11  O48   S    
C93   H24   S    
Cr11  O13   S    
C113  O4    A    
C4    C9    D    
Cr10  O25   S    
C76   C98   A    
Cr4   O13   S    
C32   C73   S    
C90   H16   S    
C52   C65   S    
C82   C87   A    
C110  O52   A    
C112  O50   A    
C91   H13   S    
C65   H56   S    
