data_mof_unit_22410.cif
_audit_creation_date              2012-12-10T17:09:52-0500
_audit_creation_method            fapswitch 2.2
_symmetry_space_group_name_H-M    P1
_symmetry_Int_Tables_number       1
_space_group_crystal_system       triclinic
_cell_length_a                    10.883848
_cell_length_b                    12.982132
_cell_length_c                    11.709954
_cell_angle_alpha                 99.723224
_cell_angle_beta                  92.676135
_cell_angle_gamma                 91.616346
_cell_volume                      1627.92328156

loop_
_atom_site_label
_atom_site_type_symbol
_atom_type_description
_atom_site_fract_x
_atom_site_fract_y
_atom_site_fract_z
_atom_type_partial_charge
C1    C     C_R   0.504059 0.299504 0.478610 0.825699
C2    C     C_R   0.064130 0.490559 0.608704 0.113562
C3    C     C_R   0.127233 0.502283 0.507374 -0.123758
C4    C     C_R   0.060714 0.497306 0.401445 -0.192718
C5    C     C_R   0.933751 0.482791 0.392045 -0.030698
C6    C     C_R   0.870126 0.471761 0.492520 -0.180164
C7    C     C_R   0.481758 0.813432 0.533340 -0.089159
C8    C     C_R   0.514481 0.186412 0.467098 -0.065549
C9    C     C_R   0.578476 0.018273 0.368907 -0.265294
C10   C     C_R   0.576063 0.126543 0.375605 0.001989
C11   C     C_R   0.461839 0.137371 0.551767 -0.276553
C12   C     C_R   0.262003 0.503219 0.502650 0.826808
C13   C     C_R   0.468160 0.029898 0.546386 0.175544
C14   C     C_R   0.526324 0.970154 0.454107 0.162360
C15   C     C_R   0.533602 0.863007 0.448961 -0.251787
C16   C     C_R   0.419016 0.872772 0.624524 -0.007312
C17   C     C_R   0.415802 0.981277 0.631272 -0.272508
C18   C     C_R   0.393839 0.395599 0.020237 -0.279718
C19   C     C_R   0.400605 0.404426 0.141914 0.142581
C20   C     C_R   0.548799 0.545776 0.155868 0.491974
C21   C     C_R   0.542293 0.538360 0.032915 0.020792
C22   C     C_R   0.463004 0.462382 0.965538 -0.052012
C23   C     C_R   0.494438 0.700403 0.521521 0.888964
C24   C     C_R   0.454423 0.454225 0.843685 0.030806
C25   C     C_R   0.601671 0.593193 0.853379 0.079817
C26   C     C_R   0.612785 0.604171 0.974625 -0.242786
C27   C     C_R   0.736637 0.488639 0.497126 0.843788
C28   C     C_R   0.120015 0.507684 0.722701 -0.244265
C29   C     C_R   0.061272 0.474916 0.814953 0.010545
C30   C     C_R   0.945289 0.424830 0.794203 -0.103440
C31   C     C_R   0.884192 0.417697 0.686003 -0.186857
C32   C     C_R   0.938297 0.459765 0.595510 0.088812
Cu1   Cu    Cu3+1 0.509250 0.507730 0.615930 0.965167
Cu2   Cu    Cu3+1 0.490750 0.492270 0.384070 1.005860
H1    H     H_    0.108505 0.503091 0.323447 0.209555
H2    H     H_    0.368887 0.027625 0.700879 0.137480
H3    H     H_    0.415002 0.183103 0.621883 0.151550
H4    H     H_    0.392575 0.396190 0.791377 0.115794
H5    H     H_    0.655987 0.644150 0.809637 0.135719
H6    H     H_    0.333209 0.336722 0.967375 0.194887
H7    H     H_    0.676044 0.664260 0.020952 0.200556
H8    H     H_    0.206402 0.550486 0.744191 0.197852
H9    H     H_    0.899843 0.394483 0.862573 0.185490
H10   H     H_    0.794857 0.377582 0.673493 0.169057
H11   H     H_    0.581239 0.818149 0.379253 0.210097
H12   H     H_    0.625071 0.971686 0.299219 0.148162
N1    N     N_R   0.523180 0.519350 0.790130 -0.182001
N2    N     N_R   0.476820 0.480650 0.209890 -0.253388
O1    O     O_R   0.506570 0.354460 0.582000 -0.607142
O2    O     O_R   0.490940 0.341410 0.386200 -0.588463
O3    O     O_R   0.327470 0.506530 0.597920 -0.577213
O4    O     O_R   0.311840 0.493480 0.402120 -0.629575
O5    O     O_R   0.509060 0.658590 0.613800 -0.565170
O6    O     O_R   0.493430 0.645540 0.418000 -0.538729
O7    O     O_R   0.688160 0.506520 0.597880 -0.599403
O8    O     O_R   0.672530 0.493470 0.402080 -0.541798
C33   C     C_2   0.645693 0.172420 0.289527 0.375097
H13   H     H_    0.654815 0.127558 0.203489 0.077045
O9    O     O_2   0.700133 0.257136 0.315543 -0.580373
C34   C     C_2   0.323693 0.327583 0.190898 0.424689
H14   H     H_    0.302885 0.337736 0.280437 0.118272
O10   O     O_2   0.279913 0.248644 0.128914 -0.562019
Cl1   Cl    Cl    0.654298 0.637815 0.237892 -0.636437
C35   C     C_2   0.123132 0.492830 0.932075 0.376494
H15   H     H_    0.208881 0.538818 0.948442 0.068751
O11   O     O_2   0.079667 0.456345 0.011494 -0.496498
C36   C     C_2   0.873633 0.472771 0.273900 0.509598
H16   H     H_    0.793145 0.421779 0.248426 0.133934
O12   O     O_2   0.915750 0.519984 0.201894 -0.484973
C37   C     C_2   0.349722 0.826240 0.710558 0.368674
H17   H     H_    0.337300 0.872127 0.795458 0.073980
O13   O     O_2   0.299450 0.739604 0.685908 -0.550042

loop_
_geom_bond_atom_site_label_1
_geom_bond_atom_site_label_2
_ccdc_geom_bond_type
Cu1   O7    S    
C6    C32   A    
C9    C14   A    
Cu2   O8    S    
C29   C30   A    
C17   H2    S    
C19   C34   S    
Cu1   O3    S    
C1    C8    S    
C9    C10   A    
C25   N1    A    
Cu2   N2    S    
Cu2   O4    S    
C31   C32   A    
C14   C15   A    
C6    C27   S    
C13   C17   A    
C30   C31   A    
C5    C36   S    
C35   H15   S    
C12   O3    A    
C20   Cl1   S    
C7    C15   A    
C2    C3    A    
C29   C35   S    
C9    H12   S    
C13   C14   A    
C25   H5    S    
C11   C13   A    
Cu2   O6    S    
C33   H13   S    
C20   N2    A    
C24   H4    S    
C8    C11   A    
C7    C23   S    
C2    C32   A    
C28   H8    S    
C28   C29   A    
C12   O4    A    
C21   C26   A    
Cu1   Cu2   S    
C21   C22   A    
C23   O5    A    
C27   O7    A    
Cu1   O5    S    
C5    C6    A    
Cu1   N1    S    
C22   C24   A    
C30   H9    S    
Cu2   O2    S    
C37   H17   S    
C33   O9    D    
C31   H10   S    
C15   H11   S    
Cu1   O1    S    
C36   H16   S    
C16   C17   A    
C10   C33   S    
C16   C37   S    
C20   C21   A    
C23   O6    A    
C34   O10   D    
C18   C19   A    
C1    O2    A    
C11   H3    S    
C4    H1    S    
C18   H6    S    
C27   O8    A    
C4    C5    A    
C2    C28   A    
C3    C12   S    
C19   N2    A    
C25   C26   A    
C18   C22   A    
C24   N1    A    
C1    O1    A    
C37   O13   D    
C8    C10   A    
C7    C16   A    
C3    C4    A    
C26   H7    S    
C34   H14   S    
C36   O12   D    
C35   O11   D    
