data_mof_unit_59997.cif
_audit_creation_date              2012-12-10T20:45:32-0500
_audit_creation_method            fapswitch 2.2
_symmetry_space_group_name_H-M    P1
_symmetry_Int_Tables_number       1
_space_group_crystal_system       triclinic
_cell_length_a                    10.695439
_cell_length_b                    10.656948
_cell_length_c                    9.864358
_cell_angle_alpha                 89.305848
_cell_angle_beta                  89.70198
_cell_angle_gamma                 90.776871
_cell_volume                      1124.14475145

loop_
_atom_site_label
_atom_site_type_symbol
_atom_type_description
_atom_site_fract_x
_atom_site_fract_y
_atom_site_fract_z
_atom_type_partial_charge
C1    C     C_R   0.504662 0.259707 0.500450 0.876510
C2    C     C_R   0.230571 0.848201 0.125360 -0.115355
C3    C     C_R   0.933785 0.569944 0.401453 -0.249606
C4    C     C_R   0.872258 0.497317 0.500453 -0.085224
C5    C     C_R   0.937720 0.433364 0.602660 0.005844
C6    C     C_R   0.065744 0.440416 0.600781 -0.233819
C7    C     C_R   0.127827 0.511339 0.501129 -0.091584
C8    C     C_R   0.062541 0.580780 0.402471 0.004148
C9    C     C_R   0.858313 0.410337 0.842284 0.185685
C10   C     C_R   0.799939 0.336940 0.944566 -0.155024
C11   C     C_R   0.761479 0.213847 0.918569 -0.152355
C12   C     C_R   0.260362 0.505690 0.500120 0.870939
C13   C     C_R   0.781084 0.162641 0.790774 -0.122847
C14   C     C_R   0.837049 0.234968 0.687549 -0.192431
C15   C     C_R   0.876242 0.358668 0.712466 0.126012
C16   C     C_R   0.529752 0.061819 0.622668 0.145990
C17   C     C_R   0.528415 0.128515 0.500783 -0.102818
C18   C     C_R   0.556416 0.066961 0.379299 -0.244787
C19   C     C_R   0.559214 0.936930 0.378861 -0.251304
C20   C     C_R   0.533696 0.870932 0.499853 -0.102464
C21   C     C_R   0.534191 0.933990 0.622567 0.121827
C22   C     C_3   0.447976 0.920902 0.741744 -0.481835
C23   C     C_R   0.507441 0.739906 0.499392 0.870584
C24   C     C_3   0.440758 0.062471 0.739553 -0.522201
C25   C     C_R   0.431934 0.412105 0.073363 0.165740
C26   C     C_R   0.574731 0.580345 0.070441 -0.137486
C27   C     C_R   0.574389 0.580644 0.926522 -0.129920
C28   C     C_R   0.431195 0.412365 0.930453 0.165763
C29   C     C_3   0.291322 0.398076 0.930784 -0.138913
C30   C     C_3   0.294328 0.394116 0.084554 -0.481209
C31   C     C_R   0.739767 0.497205 0.500014 0.866873
C32   C     C_R   0.253208 0.857014 0.264323 -0.128381
C33   C     C_R   0.200805 0.768584 0.354657 -0.104761
C34   C     C_R   0.123696 0.671226 0.306451 0.130650
C35   C     C_R   0.098521 0.665370 0.166942 -0.193666
C36   C     C_R   0.153230 0.752356 0.076674 -0.135151
H1    H     H_    0.272023 0.916269 0.055604 0.125908
H2    H     H_    0.753084 0.066557 0.771852 0.135924
H3    H     H_    0.850848 0.194364 0.588538 0.130196
H4    H     H_    0.569724 0.889152 0.283229 0.168599
H5    H     H_    0.357696 0.873670 0.716889 0.204801
H6    H     H_    0.496059 0.883022 0.832832 0.199066
H7    H     H_    0.346835 0.094879 0.708960 0.197302
H8    H     H_    0.482127 0.106929 0.830608 0.205591
H9    H     H_    0.633406 0.646794 0.123563 0.134552
H10   H     H_    0.310414 0.933116 0.302158 0.139988
H11   H     H_    0.632356 0.647647 0.871025 0.135773
H12   H     H_    0.242080 0.480705 0.887770 0.191387
H13   H     H_    0.268782 0.301856 0.131530 0.197304
H14   H     H_    0.218591 0.777248 0.462165 0.094728
H15   H     H_    0.038681 0.591650 0.128066 0.136079
H16   H     H_    0.135102 0.745789 0.969113 0.137870
H17   H     H_    0.880855 0.623341 0.327570 0.151037
H18   H     H_    0.116888 0.388516 0.676359 0.166770
H19   H     H_    0.784652 0.374764 0.044605 0.133219
N1    N     N_R   0.499160 0.499140 0.142800 -0.097731
N2    N     N_R   0.499160 0.499180 0.857150 -0.107469
O1    O     O_R   0.500020 0.316790 0.614690 -0.611512
O2    O     O_R   0.500000 0.316760 0.385350 -0.623861
O3    O     O_R   0.316770 0.500030 0.614670 -0.633539
O4    O     O_R   0.316750 0.499990 0.385330 -0.607546
O5    O     O_R   0.500000 0.683240 0.614650 -0.622696
O6    O     O_R   0.499980 0.683210 0.385310 -0.616432
O7    O     O_R   0.683250 0.500010 0.614670 -0.621189
O8    O     O_R   0.683230 0.499970 0.385330 -0.628523
Zn1   Zn    Zn3+2 0.500010 0.500020 0.653130 0.938576
Zn2   Zn    Zn3+2 0.499990 0.499980 0.346870 0.942678
H20   H     H_    0.717079 0.157790 0.997901 0.124762
H21   H     H_    0.566272 0.117626 0.283880 0.169196
N3    N     N_3   0.248444 0.279445 0.873445 -0.448849
H22   H     H_    0.294348 0.204488 0.919997 0.189280
H23   H     H_    0.274608 0.280610 0.771395 0.200375
H24   H     H_    0.248364 0.475218 0.131310 0.219195
N4    N     N_3   0.899841 0.536413 0.869207 -0.477974
H25   H     H_    0.875160 0.561150 0.967893 0.156069
H26   H     H_    0.851003 0.596849 0.804959 0.187670

loop_
_geom_bond_atom_site_label_1
_geom_bond_atom_site_label_2
_ccdc_geom_bond_type
C16   C21   A    
C11   C13   A    
C35   C36   A    
C25   N1    A    
N2    Zn1   S    
C7    C8    A    
C28   N2    A    
C25   C28   A    
C26   C27   A    
N4    H26   S    
C28   C29   S    
C18   C19   A    
C1    O2    A    
C5    C6    A    
C22   H5    S    
C27   H11   S    
C2    C32   A    
C34   C35   A    
C26   H9    S    
O2    Zn2   S    
C14   H3    S    
O1    Zn1   S    
C23   O5    A    
C19   C20   A    
C16   C17   A    
O8    Zn2   S    
N3    H22   S    
C9    C10   A    
C36   H16   S    
C18   H21   S    
C23   O6    A    
O3    Zn1   S    
C16   C24   S    
C13   C14   A    
C6    H18   S    
C33   C34   A    
C7    C12   S    
O6    Zn2   S    
N4    H25   S    
O5    Zn1   S    
C29   H12   S    
C3    C8    A    
C10   C11   A    
C30   H24   S    
C33   H14   S    
O7    Zn1   S    
C29   C30   S    
O4    Zn2   S    
C20   C23   S    
C17   C18   A    
C8    C34   S    
C27   N2    A    
C10   H19   S    
C13   H2    S    
C30   H13   S    
C35   H15   S    
C24   H8    S    
C22   C24   S    
C9    N4    S    
C3    C4    A    
C11   H20   S    
C29   N3    S    
C2    C36   A    
C25   C30   S    
C31   O8    A    
C32   H10   S    
C31   O7    A    
C4    C5    A    
C26   N1    A    
C6    C7    A    
N1    Zn2   S    
C1    C17   S    
C32   C33   A    
C9    C15   A    
C1    O1    A    
C12   O4    A    
C3    H17   S    
C2    H1    S    
C22   H6    S    
C5    C15   S    
C4    C31   S    
C19   H4    S    
C12   O3    A    
C20   C21   A    
C24   H7    S    
C14   C15   A    
N3    H23   S    
C21   C22   S    
