data_mof_unit_31141.cif
_audit_creation_date              2012-12-10T17:35:49-0500
_audit_creation_method            fapswitch 2.2
_symmetry_space_group_name_H-M    P1
_symmetry_Int_Tables_number       1
_space_group_crystal_system       triclinic
_cell_length_a                    10.502953
_cell_length_b                    12.067769
_cell_length_c                    12.762288
_cell_angle_alpha                 94.501762
_cell_angle_beta                  90.688179
_cell_angle_gamma                 86.653555
_cell_volume                      1609.79942295

loop_
_atom_site_label
_atom_site_type_symbol
_atom_type_description
_atom_site_fract_x
_atom_site_fract_y
_atom_site_fract_z
_atom_type_partial_charge
C1    C     C_R   0.495631 0.523049 0.700050 0.914676
C2    C     C_R   0.619881 0.163862 0.576999 -0.005276
C3    C     C_R   0.557013 0.858435 0.538158 0.076645
C4    C     C_R   0.442987 0.141565 0.461842 0.076642
C5    C     C_R   0.551420 0.976109 0.529327 -0.039581
C6    C     C_R   0.448581 0.023891 0.470672 -0.039583
C7    C     C_R   0.742233 0.500164 0.498628 0.931260
C8    C     C_R   0.257767 0.499836 0.501372 0.931261
C9    C     C_3   0.964768 0.394741 0.504176 -0.169009
C10   C     C_3   0.035232 0.605259 0.495824 -0.169008
C11   C     C_3   0.042439 0.459551 0.588759 -0.015295
C12   C     C_R   0.504369 0.476951 0.299949 0.914675
C13   C     C_3   0.957561 0.540449 0.411241 -0.015295
C14   C     C_3   0.123009 0.499673 0.502312 -0.064866
C15   C     C_3   0.876991 0.500326 0.497688 -0.064866
C16   C     C_3   0.047250 0.435573 0.416656 -0.221064
C17   C     C_3   0.952750 0.564427 0.583344 -0.221064
C18   C     C_R   0.516841 0.461161 0.188454 -0.093321
C19   C     C_R   0.483159 0.538839 0.811546 -0.093321
C20   C     C_R   0.357615 0.593966 0.966290 -0.065634
C21   C     C_R   0.642384 0.406032 0.033709 -0.065635
C22   C     C_R   0.376517 0.597629 0.858139 -0.099219
C23   C     C_R   0.572223 0.480175 0.869457 -0.216280
C24   C     C_R   0.623482 0.402371 0.141860 -0.099220
C25   C     C_2   0.086548 0.413915 0.689801 0.937174
C26   C     C_2   0.913451 0.586085 0.310199 0.937175
C27   C     C_1   0.714509 0.341232 0.205442 0.272541
C28   C     C_1   0.285490 0.658767 0.794558 0.272539
C29   C     C_2   0.245564 0.656819 0.016952 0.915746
C30   C     C_2   0.754433 0.343178 0.983047 0.915747
C31   C     C_1   0.364010 0.193086 0.383972 0.294686
C32   C     C_1   0.635989 0.806914 0.616028 0.294685
C33   C     C_2   0.232795 0.990312 0.379675 0.905932
C34   C     C_R   0.427777 0.519826 0.130543 -0.216282
C35   C     C_2   0.767209 0.009687 0.620318 0.905935
C36   C     C_R   0.554190 0.471118 0.975542 0.084273
C37   C     C_R   0.445810 0.528881 0.024458 0.084272
C38   C     C_R   0.358143 0.951594 0.421838 -0.117661
C39   C     C_R   0.641858 0.048405 0.578160 -0.117665
C40   C     C_R   0.380120 0.836137 0.422999 -0.005277
H1    H     H_    0.933360 0.308827 0.507810 0.190527
H2    H     H_    0.766319 0.627976 0.215485 0.358127
H3    H     H_    0.180382 0.773127 0.128361 0.388697
H4    H     H_    0.819612 0.226869 0.871637 0.388699
H5    H     H_    0.102310 0.975747 0.262960 0.361300
H6    H     H_    0.897702 0.024256 0.737027 0.361301
H7    H     H_    0.066640 0.691172 0.492190 0.190527
H8    H     H_    0.088718 0.383778 0.348386 0.188201
H9    H     H_    0.911282 0.616222 0.651614 0.188201
H10   H     H_    0.345772 0.560745 0.170960 0.182236
H11   H     H_    0.654228 0.439255 0.829040 0.182236
H12   H     H_    0.686140 0.219548 0.615638 0.174014
H13   H     H_    0.313862 0.780452 0.384360 0.174011
H14   H     H_    0.233681 0.372023 0.784514 0.358128
N1    N     N_R   0.523490 0.207800 0.519350 -0.135421
N2    N     N_R   0.476510 0.792200 0.480650 -0.135421
N3    N     N_1   0.787041 0.292686 0.256256 -0.171170
N4    N     N_1   0.212958 0.707312 0.743744 -0.171172
N5    N     N_1   0.301145 0.234005 0.320849 -0.187016
N6    N     N_1   0.698854 0.765996 0.679152 -0.187016
O1    O     O_R   0.506270 0.421700 0.658830 -0.583388
O2    O     O_R   0.216481 0.403009 0.713813 -0.800686
O3    O     O_2   0.992245 0.613567 0.248979 -0.593193
O4    O     O_R   0.783519 0.596990 0.286187 -0.800686
O5    O     O_2   0.137821 0.639338 0.984874 -0.564579
O6    O     O_R   0.263831 0.736672 0.100355 -0.769903
O7    O     O_2   0.862177 0.360654 0.015126 -0.564579
O8    O     O_R   0.736164 0.263326 0.899643 -0.769906
O9    O     O_2   0.163946 0.058033 0.432181 -0.605280
O10   O     O_R   0.190289 0.944362 0.282495 -0.780844
O11   O     O_2   0.836053 0.941962 0.567812 -0.605280
O12   O     O_R   0.493730 0.578300 0.341170 -0.583388
O13   O     O_R   0.809723 0.055641 0.717495 -0.780849
O14   O     O_R   0.491200 0.609310 0.646410 -0.635817
O15   O     O_R   0.508800 0.390690 0.353590 -0.635816
O16   O     O_R   0.693580 0.406210 0.506230 -0.643979
O17   O     O_R   0.306420 0.593790 0.493770 -0.643979
O18   O     O_R   0.678510 0.593830 0.493810 -0.591120
O19   O     O_R   0.321490 0.406170 0.506190 -0.591120
O20   O     O_2   0.007755 0.386433 0.751021 -0.593190
Zn1   Zn    Zn3+2 0.510060 0.374730 0.508290 0.993575
Zn2   Zn    Zn3+2 0.489940 0.625270 0.491710 0.993575

loop_
_geom_bond_atom_site_label_1
_geom_bond_atom_site_label_2
_ccdc_geom_bond_type
C34   C37   A    
C19   C23   A    
C24   C27   S    
C16   H8    S    
C21   C36   A    
C18   C24   A    
C1    O14   A    
C36   C37   A    
C9    C16   S    
C2    N1    A    
C5    C6    A    
C11   C14   S    
C11   C25   S    
C10   C17   S    
C25   O20   D    
C31   N5    T    
C26   O4    S    
C2    C39   A    
C11   C17   S    
C40   N2    A    
C8    O19   A    
C6    C38   A    
N1    Zn1   S    
C30   O7    D    
C33   O9    D    
C7    C15   S    
C12   O12   A    
C35   O11   D    
C22   C28   S    
O14   Zn2   S    
C20   C29   S    
C34   H10   S    
C1    C19   S    
C19   C22   A    
C4    C6    A    
C10   C14   S    
C17   H9    S    
O19   Zn1   S    
O15   Zn1   S    
H14   O2    S    
C35   C39   S    
C26   O3    D    
C9    C11   S    
C3    N2    A    
O18   Zn2   S    
C23   H11   S    
C18   C34   A    
C2    H12   S    
C33   O10   S    
C7    O18   A    
C29   O5    D    
C20   C22   A    
C23   C36   A    
C13   C15   S    
C4    N1    A    
C27   N3    T    
C8    O17   A    
C14   C16   S    
C13   C26   S    
C13   C16   S    
C32   N6    T    
H2    O4    S    
C15   C17   S    
C35   O13   S    
C8    C14   S    
H5    O10   S    
C3    C5    A    
C10   C13   S    
C1    O1    A    
O16   Zn1   S    
N2    Zn2   S    
C7    O16   A    
C28   N4    T    
C21   C30   S    
C9    H1    S    
C33   C38   S    
C5    C39   A    
C9    C15   S    
O1    Zn1   S    
C38   C40   A    
C20   C37   A    
O17   Zn2   S    
H3    O6    S    
C25   O2    S    
C3    C32   S    
O12   Zn2   S    
C4    C31   S    
H4    O8    S    
C12   O15   A    
C29   O6    S    
C40   H13   S    
C21   C24   A    
C12   C18   S    
C10   H7    S    
H6    O13   S    
C30   O8    S    
