data_mof_unit_25109.cif
_audit_creation_date              2012-12-10T17:43:34-0500
_audit_creation_method            fapswitch 2.2
_symmetry_space_group_name_H-M    P1
_symmetry_Int_Tables_number       1
_space_group_crystal_system       triclinic
_cell_length_a                    14.86841
_cell_length_b                    10.674302
_cell_length_c                    9.996811
_cell_angle_alpha                 91.206041
_cell_angle_beta                  89.888239
_cell_angle_gamma                 93.01159
_cell_volume                      1584.05010075

loop_
_atom_site_label
_atom_site_type_symbol
_atom_type_description
_atom_site_fract_x
_atom_site_fract_y
_atom_site_fract_z
_atom_type_partial_charge
C1    C     C_R   0.512815 0.262781 0.499464 0.913048
C2    C     C_R   0.911196 0.619877 0.480119 0.031555
C3    C     C_R   0.943144 0.283038 0.555029 -0.211846
C4    C     C_R   0.036469 0.280746 0.556850 0.384749
C5    C     C_R   0.088916 0.391391 0.531038 -0.009056
C6    C     C_R   0.046991 0.504401 0.504071 0.027710
C7    C     C_R   0.098950 0.615595 0.476408 0.139838
C8    C     C_R   0.057419 0.727279 0.452304 -0.176802
C9    C     C_R   0.964196 0.729778 0.454944 -0.124069
C10   C     C_R   0.182302 0.392546 0.530833 -0.125366
C11   C     C_R   0.232175 0.502114 0.500980 -0.063313
C12   C     C_R   0.327448 0.500833 0.500214 0.923484
C13   C     C_R   0.191914 0.613085 0.473429 -0.251271
C14   C     C_R   0.576890 0.128952 0.737458 -0.094400
C15   C     C_R   0.567828 0.073654 0.861923 -0.084187
C16   C     C_R   0.519623 0.959347 0.872757 -0.048996
C17   C     C_R   0.487165 0.895640 0.758082 -0.050321
C18   C     C_R   0.504857 0.944240 0.628991 0.067261
C19   C     C_R   0.538444 0.068881 0.621892 0.126536
C20   C     C_R   0.529402 0.130843 0.500045 -0.218838
C21   C     C_R   0.513427 0.063592 0.381721 -0.207716
C22   C     C_R   0.488208 0.938673 0.384100 0.432892
C23   C     C_R   0.493148 0.740018 0.501851 0.950096
C24   C     C_R   0.488875 0.875520 0.506598 -0.233340
C25   C     C_R   0.347607 0.400654 0.135692 0.028467
C26   C     C_R   0.264765 0.409390 0.071873 -0.258807
C27   C     C_R   0.263542 0.409149 0.932945 -0.231293
C28   C     C_R   0.344995 0.403980 0.863818 0.435157
C29   C     C_R   0.425285 0.450939 0.927624 0.067111
C30   C     C_R   0.425662 0.450974 0.071032 0.048144
C31   C     C_R   0.570689 0.550889 0.072331 -0.050185
C32   C     C_R   0.570870 0.550403 0.929259 -0.090743
C33   C     C_R   0.672539 0.502186 0.500113 0.946651
C34   C     C_R   0.817168 0.619753 0.481408 0.282857
C35   C     C_R   0.767961 0.506264 0.501170 -0.105493
C36   C     C_R   0.808893 0.395318 0.526304 -0.256181
C37   C     C_R   0.901659 0.394421 0.528947 0.063680
C38   C     C_R   0.953283 0.506298 0.504329 0.012151
H1    H     H_    0.614045 0.218704 0.732156 0.150964
H2    H     H_    0.595497 0.121449 0.950385 0.163545
H3    H     H_    0.508239 0.919006 0.969863 0.204478
H4    H     H_    0.445733 0.811115 0.773601 0.162274
H5    H     H_    0.202693 0.382885 0.123530 0.202668
H6    H     H_    0.200726 0.382867 0.882432 0.203629
H7    H     H_    0.768040 0.309807 0.543632 0.144755
H8    H     H_    0.902924 0.197539 0.574016 0.192690
H9    H     H_    0.217074 0.308618 0.551341 0.240368
H10   H     H_    0.233153 0.697138 0.451530 0.154784
H11   H     H_    0.097096 0.812822 0.431634 0.189441
H12   H     H_    0.934453 0.817949 0.435738 0.217489
H13   H     H_    0.515330 0.109679 0.286968 0.241307
N1    N     N_R   0.499150 0.498800 0.142780 -0.150065
N2    N     N_R   0.499120 0.498720 0.857170 -0.156687
O1    O     O_R   0.500000 0.316780 0.614690 -0.574506
O2    O     O_R   0.499990 0.316750 0.385360 -0.628494
O3    O     O_R   0.367850 0.499980 0.614680 -0.616475
O4    O     O_R   0.367840 0.499960 0.385350 -0.621147
O5    O     O_R   0.500010 0.683250 0.614640 -0.618644
O6    O     O_R   0.500000 0.683220 0.385310 -0.528147
O7    O     O_R   0.632160 0.500040 0.614650 -0.619389
O8    O     O_R   0.632150 0.500020 0.385320 -0.608620
Zn1   Zn    Zn3+2 0.500010 0.500020 0.653130 1.007884
Zn2   Zn    Zn3+2 0.499990 0.499980 0.346870 1.037149
Cl1   Cl    Cl    0.759906 0.760088 0.463238 -0.584923
Cl2   Cl    Cl    0.445861 0.871829 0.231980 -0.585828
C39   C     C_2   0.646289 0.615924 0.144454 0.996576
O9    O     O_2   0.635834 0.717105 0.200001 -0.540543
O10   O     O_R   0.730624 0.563924 0.144046 -0.763537
H14   H     H_    0.778093 0.619245 0.192485 0.358145
C40   C     C_2   0.353241 0.283848 0.209907 1.003755
O11   O     O_2   0.402833 0.204268 0.168193 -0.627880
O12   O     O_R   0.294818 0.257367 0.316314 -0.811472
H15   H     H_    0.304030 0.172384 0.356057 0.359852
Cl3   Cl    Cl    0.345364 0.272911 0.755054 -0.574126
C41   C     C_2   0.647539 0.612553 0.858847 0.979810
O13   O     O_2   0.637630 0.710219 0.800493 -0.590598
O14   O     O_R   0.731768 0.560293 0.860981 -0.762633
H16   H     H_    0.779034 0.611276 0.809202 0.354104
Cl4   Cl    Cl    0.084220 0.136812 0.590351 -0.591119

loop_
_geom_bond_atom_site_label_1
_geom_bond_atom_site_label_2
_ccdc_geom_bond_type
O5    Zn1   S    
C23   O5    A    
C39   O10   S    
C31   C39   S    
C35   C36   A    
C31   N1    A    
C41   O13   D    
C28   Cl3   S    
C32   C41   S    
C7    C8    A    
O14   H16   S    
C23   O6    A    
C26   C27   A    
C29   C30   A    
C18   C24   A    
C36   C37   A    
C34   C35   A    
C5    C6    A    
C15   C16   A    
O7    Zn1   S    
C18   C19   A    
O8    Zn2   S    
C17   H4    S    
C14   H1    S    
O10   H14   S    
C27   H6    S    
C19   C20   A    
C16   C17   A    
O2    Zn2   S    
C23   C24   S    
C6    C38   A    
C40   O11   D    
C2    C34   A    
C39   O9    D    
C21   C22   A    
C26   H5    S    
O4    Zn2   S    
C4    Cl4   S    
O12   H15   S    
O1    Zn1   S    
C25   C26   A    
C1    O1    A    
C22   Cl2   S    
C37   C38   A    
N2    Zn1   S    
C2    C38   A    
C31   C32   A    
C34   Cl1   S    
C17   C18   A    
C8    C9    A    
C36   H7    S    
C41   O14   S    
C12   O3    A    
C12   O4    A    
C33   O7    A    
C22   C24   A    
C3    C4    A    
C32   N2    A    
C21   H13   S    
C25   C30   A    
C30   N1    A    
C28   C29   A    
C1    C20   S    
C14   C19   A    
C9    H12   S    
C4    C5    A    
N1    Zn2   S    
C13   H10   S    
C11   C12   S    
C6    C7    A    
C3    H8    S    
O6    Zn2   S    
C1    O2    A    
C5    C10   A    
C11   C13   A    
C29   N2    A    
C8    H11   S    
C33   C35   S    
O3    Zn1   S    
C15   H2    S    
C10   C11   A    
C7    C13   A    
C20   C21   A    
C3    C37   A    
C33   O8    A    
C10   H9    S    
C14   C15   A    
C40   O12   S    
C25   C40   S    
C2    C9    A    
C16   H3    S    
C27   C28   A    
