data_mof_unit_54120.cif
_audit_creation_date              2012-12-10T17:02:18-0500
_audit_creation_method            fapswitch 2.2
_symmetry_space_group_name_H-M    P1
_symmetry_Int_Tables_number       1
_space_group_crystal_system       triclinic
_cell_length_a                    10.645449
_cell_length_b                    10.779675
_cell_length_c                    10.03265
_cell_angle_alpha                 90.725011
_cell_angle_beta                  89.738522
_cell_angle_gamma                 89.615961
_cell_volume                      1151.16106777

loop_
_atom_site_label
_atom_site_type_symbol
_atom_type_description
_atom_site_fract_x
_atom_site_fract_y
_atom_site_fract_z
_atom_type_partial_charge
C1    C     C_R   0.496421 0.262518 0.498355 0.912506
C2    C     C_2   0.465851 0.133143 0.491973 0.013221
C3    C     C_2   0.569042 0.573859 0.925582 -0.123282
C4    C     C_R   0.260736 0.503452 0.500392 0.874645
C5    C     C_2   0.573322 0.569745 0.075556 -0.128667
C6    C     C_R   0.502770 0.737012 0.500682 0.915015
C7    C     C_R   0.739480 0.500737 0.499679 0.858361
C8    C     C_R   0.127135 0.717086 0.609210 -0.181582
C9    C     C_R   0.059909 0.818415 0.661974 0.169052
C10   C     C_R   0.928539 0.817463 0.658697 -0.173262
C11   C     C_R   0.865456 0.715799 0.604863 -0.204810
C12   C     C_R   0.064081 0.612680 0.555744 0.053408
C13   C     C_R   0.932554 0.611621 0.554025 0.076246
C14   C     C_3   0.370069 0.090105 0.594063 -0.913631
C15   C     C_3   0.588532 0.106683 0.274087 -0.882823
C16   C     C_R   0.128653 0.509428 0.501090 -0.133133
C17   C     C_R   0.067562 0.408258 0.445156 -0.187116
C18   C     C_R   0.939135 0.405487 0.444199 0.081442
C19   C     C_R   0.872057 0.506636 0.499040 -0.130944
C20   C     C_2   0.488842 0.929570 0.390646 -0.154107
C21   C     C_2   0.515934 0.867747 0.500768 -0.378229
C22   C     C_2   0.508763 0.061182 0.388804 0.196774
H1    H     H_    0.120323 0.329990 0.404186 0.159321
H2    H     H_    0.550063 0.913665 0.590493 0.164414
H3    H     H_    0.298330 0.163885 0.612150 0.242684
H4    H     H_    0.317444 0.007436 0.559426 0.272739
H5    H     H_    0.417275 0.070342 0.689979 0.244613
H6    H     H_    0.174270 0.891420 0.801268 0.186380
H7    H     H_    0.063803 0.991183 0.749243 0.182517
H8    H     H_    0.825406 0.323693 0.308252 0.208048
H9    H     H_    0.819260 0.261528 0.463329 0.170514
H10   H     H_    0.625233 0.028162 0.212092 0.230242
H11   H     H_    0.531817 0.166271 0.207552 0.254425
H12   H     H_    0.628131 0.641206 0.876548 0.159049
H13   H     H_    0.670812 0.157974 0.312433 0.234463
H14   H     H_    0.449482 0.433667 0.897105 0.165067
H15   H     H_    0.640198 0.629587 0.125650 0.163379
H16   H     H_    0.434123 0.448519 0.101840 0.163393
H17   H     H_    0.228629 0.721543 0.610029 0.150476
H18   H     H_    0.874649 0.895611 0.697413 0.131364
H19   H     H_    0.764060 0.720369 0.602853 0.148743
H20   H     H_    0.460751 0.883302 0.298648 0.177518
N1    N     N_2   0.501340 0.501330 0.852150 -0.190554
N2    N     N_2   0.501380 0.501360 0.147810 -0.194560
N3    N     N_3   0.126728 0.922161 0.716792 -0.473755
N4    N     N_3   0.878838 0.297502 0.390454 -0.461192
O1    O     O_R   0.499980 0.319060 0.613040 -0.607800
O2    O     O_R   0.500020 0.319100 0.386900 -0.622218
O3    O     O_R   0.316750 0.499980 0.613090 -0.615193
O4    O     O_R   0.316790 0.500020 0.386950 -0.610593
O5    O     O_R   0.499980 0.680900 0.613100 -0.627919
O6    O     O_R   0.500020 0.680940 0.386960 -0.608155
O7    O     O_R   0.683210 0.499980 0.613050 -0.612281
O8    O     O_R   0.683250 0.500020 0.386910 -0.617992
Zn1   Zn    Zn3+2 0.499970 0.499970 0.650990 0.939275
Zn2   Zn    Zn3+2 0.500030 0.500030 0.349010 0.934502

loop_
_geom_bond_atom_site_label_1
_geom_bond_atom_site_label_2
_ccdc_geom_bond_type
C2    C22   D    
C20   H20   S    
C1    O2    A    
H16   N2    S    
C8    H17   S    
C5    H15   S    
C6    O5    A    
C9    C10   A    
N2    Zn2   S    
C14   H5    S    
C7    C19   S    
C7    O8    A    
O2    Zn2   S    
C4    O3    A    
C8    C12   A    
C3    C5    S    
C17   C18   A    
C15   H10   S    
C14   H4    S    
C9    N3    S    
C12   C13   A    
C11   C13   A    
C3    N1    D    
C17   H1    S    
C18   N4    S    
N1    Zn1   S    
C4    C16   S    
C5    N2    D    
C20   C22   S    
C11   H19   S    
O5    Zn1   S    
O7    Zn1   S    
C14   H3    S    
C2    C14   S    
O8    Zn2   S    
H6    N3    S    
C16   C17   A    
C10   C11   A    
C13   C19   A    
C12   C16   A    
C10   H18   S    
C20   C21   D    
O1    Zn1   S    
C18   C19   A    
C21   H2    S    
C15   H13   S    
C1    C2    S    
C7    O7    A    
C1    O1    A    
H14   N1    S    
C3    H12   S    
C6    O6    A    
O3    Zn1   S    
C6    C21   S    
H8    N4    S    
C15   C22   S    
O4    Zn2   S    
C4    O4    A    
O6    Zn2   S    
H7    N3    S    
C8    C9    A    
C15   H11   S    
H9    N4    S    
