data_mof_unit_18116.cif
_audit_creation_date              2012-12-10T18:05:12-0500
_audit_creation_method            fapswitch 2.2
_symmetry_space_group_name_H-M    P1
_symmetry_Int_Tables_number       1
_space_group_crystal_system       triclinic
_cell_length_a                    9.506654
_cell_length_b                    10.834904
_cell_length_c                    17.114736
_cell_angle_alpha                 89.431182
_cell_angle_beta                  94.052683
_cell_angle_gamma                 90.011278
_cell_volume                      1758.38586255

loop_
_atom_site_label
_atom_site_type_symbol
_atom_type_description
_atom_site_fract_x
_atom_site_fract_y
_atom_site_fract_z
_atom_type_partial_charge
C1    C     C_R   0.499961 0.262032 0.500058 0.790564
C2    C     C_R   0.500038 0.737967 0.499942 0.790570
C3    C     C_R   0.372175 0.936118 0.499928 -0.184415
C4    C     C_R   0.627825 0.063882 0.500071 -0.184415
C5    C     C_R   0.500019 0.871798 0.499934 -0.018447
C6    C     C_R   0.499980 0.128201 0.500066 -0.018444
C7    C     C_R   0.080917 0.426873 0.551291 -0.027584
C8    C     C_R   0.919083 0.573127 0.448709 -0.027622
C9    C     C_R   0.932000 0.426924 0.551280 -0.028978
C10   C     C_R   0.068000 0.573076 0.448720 -0.028977
C11   C     C_R   0.517668 0.498135 0.650982 0.818625
C12   C     C_R   0.482332 0.501857 0.349017 0.818636
C13   C     C_R   0.527863 0.496664 0.736903 -0.061457
C14   C     C_R   0.472147 0.503291 0.263095 -0.061469
C15   C     C_R   0.405027 0.488750 0.777255 -0.243498
C16   C     C_R   0.595022 0.510754 0.222749 -0.243523
C17   C     C_R   0.413093 0.488948 0.858479 -0.224009
C18   C     C_R   0.586967 0.510513 0.141526 -0.223947
C19   C     C_R   0.545096 0.496772 0.901405 0.355409
C20   C     C_R   0.454936 0.503120 0.098592 0.355423
C21   C     C_R   0.669213 0.502175 0.861131 0.249210
C22   C     C_R   0.330788 0.498155 0.138859 0.249211
C23   C     C_R   0.659628 0.503432 0.779118 -0.289106
C24   C     C_R   0.340358 0.496925 0.220873 -0.289078
C25   C     C_R   0.372158 0.063806 0.500014 -0.185088
C26   C     C_R   0.627842 0.936194 0.499985 -0.185091
Cu1   Cu    Cu3+1 0.640660 0.500020 0.500000 0.940738
Cu2   Cu    Cu3+1 0.359340 0.499980 0.500000 0.940752
H1    H     H_    0.698033 0.516158 0.253903 0.165535
H2    H     H_    0.302041 0.483006 0.746104 0.165479
H3    H     H_    0.684624 0.515108 0.112691 0.169582
H4    H     H_    0.315467 0.483974 0.887323 0.169611
H5    H     H_    0.755413 0.509306 0.748527 0.157440
H6    H     H_    0.244543 0.491407 0.251458 0.157394
H7    H     H_    0.272212 0.111803 0.500031 0.149304
H8    H     H_    0.727788 0.888197 0.499968 0.149304
H9    H     H_    0.272234 0.888062 0.499864 0.149415
H10   H     H_    0.727766 0.111938 0.500135 0.149414
H11   H     H_    0.142273 0.368167 0.592269 0.116465
H12   H     H_    0.857727 0.631832 0.407730 0.116508
H13   H     H_    0.880946 0.368289 0.592258 0.117622
H14   H     H_    0.119054 0.631710 0.407741 0.117593
N1    N     N_2   0.557295 0.502214 0.984446 -0.241567
N2    N     N_2   0.442732 0.497673 0.015551 -0.241592
N3    N     N_R   0.852070 0.500030 0.499980 -0.155918
N4    N     N_R   0.147930 0.499970 0.500020 -0.155907
O1    O     O_R   0.618740 0.319660 0.500000 -0.587440
O2    O     O_R   0.381260 0.680340 0.500000 -0.587434
O3    O     O_R   0.381170 0.319630 0.500010 -0.588084
O4    O     O_R   0.618830 0.680370 0.499990 -0.588082
O5    O     O_R   0.631780 0.498870 0.613920 -0.586870
O6    O     O_R   0.368220 0.501130 0.386080 -0.586865
O7    O     O_R   0.394210 0.498840 0.613930 -0.587188
O8    O     O_R   0.605790 0.501160 0.386070 -0.587206
N5    N     N_2   0.803941 0.511298 0.902871 -0.433546
H15   H     H_    0.882865 0.549611 0.872055 0.241255
C27   C     C_3   0.849417 0.405849 0.951068 -0.662492
H16   H     H_    0.943400 0.362662 0.927501 0.214140
H17   H     H_    0.765799 0.334333 0.953272 0.232309
H18   H     H_    0.878363 0.437229 0.011593 0.238081
N6    N     N_2   0.196020 0.489482 0.097113 -0.433623
H19   H     H_    0.116898 0.451535 0.127943 0.241203
C28   C     C_3   0.151073 0.595018 0.048855 -0.662411
H20   H     H_    0.057243 0.638562 0.072361 0.214149
H21   H     H_    0.122072 0.563651 0.988333 0.238071
H22   H     H_    0.235008 0.666247 0.046665 0.232360

loop_
_geom_bond_atom_site_label_1
_geom_bond_atom_site_label_2
_ccdc_geom_bond_type
C10   N4    A    
C23   H5    S    
C4    C26   A    
Cu2   O7    S    
C28   H21   S    
C9    N3    A    
C17   C19   A    
C10   H14   S    
C11   C13   S    
Cu2   O3    S    
C1    C6    S    
C9    H13   S    
C15   H2    S    
C11   O7    A    
Cu1   O4    S    
N1    N2    D    
Cu1   N3    S    
N5    H15   S    
C13   C15   A    
Cu1   O8    S    
C16   C18   A    
C28   H22   S    
C22   N6    S    
Cu1   O5    S    
Cu2   O6    S    
Cu2   N4    S    
C27   H16   S    
C25   H7    S    
C12   O8    A    
C26   H8    S    
C12   O6    A    
C12   C14   S    
C20   N2    S    
C22   C24   A    
N5    C27   S    
C21   C23   A    
C1    O1    A    
N6    H19   S    
C8    C10   A    
C14   C16   A    
C27   H17   S    
C6    C25   A    
C11   O5    A    
C20   C22   A    
C14   C24   A    
C28   H20   S    
C2    C5    S    
C7    N4    A    
C7    C9    A    
C3    C25   A    
C8    H12   S    
C13   C23   A    
C18   C20   A    
C4    C6    A    
C3    C5    A    
Cu1   O1    S    
Cu1   Cu2   S    
C21   N5    S    
C17   H4    S    
C7    H11   S    
C8    N3    A    
Cu2   O2    S    
C27   H18   S    
C18   H3    S    
C2    O4    A    
C2    O2    A    
C16   H1    S    
C15   C17   A    
C1    O3    A    
C4    H10   S    
N6    C28   S    
C24   H6    S    
C5    C26   A    
C3    H9    S    
C19   N1    S    
C19   C21   A    
