data_mof_unit_57519.cif
_audit_creation_date              2012-10-26T19:03:31-0400
_audit_creation_method            fapswitch 2.2
_symmetry_space_group_name_H-M    P1
_symmetry_Int_Tables_number       1
_space_group_crystal_system       triclinic
_cell_length_a                    10.874226
_cell_length_b                    12.99841
_cell_length_c                    11.656241
_cell_angle_alpha                 99.901504
_cell_angle_beta                  93.614104
_cell_angle_gamma                 90.493073
_cell_volume                      1619.49651292

loop_
_atom_site_label
_atom_site_type_symbol
_atom_type_description
_atom_site_fract_x
_atom_site_fract_y
_atom_site_fract_z
_atom_type_partial_charge
C1    C     C_R   0.497902 0.299026 0.478589 0.552926
C2    C     C_R   0.474556 0.123079 0.355713 -0.135785
C3    C     C_R   0.513995 0.139402 0.565762 -0.127259
C4    C     C_R   0.261871 0.494256 0.500804 0.548512
C5    C     C_R   0.511486 0.031356 0.555478 0.049432
C6    C     C_R   0.489467 0.968649 0.444227 0.046605
C7    C     C_R   0.486276 0.860601 0.434121 -0.132362
C8    C     C_R   0.526922 0.876975 0.644008 -0.142090
C9    C     C_R   0.530866 0.985074 0.654697 -0.138420
C10   C     C_R   0.422015 0.375362 0.021161 -0.061214
C11   C     C_R   0.425039 0.392270 0.144066 0.038713
C12   C     C_R   0.068959 0.505497 0.612609 0.023935
C13   C     C_R   0.526008 0.556188 0.157136 0.031114
C14   C     C_R   0.523813 0.544572 0.034207 -0.004666
C15   C     C_R   0.471862 0.453090 0.964580 -0.000671
C16   C     C_R   0.502090 0.700985 0.521405 0.549098
C17   C     C_R   0.473626 0.442549 0.841210 0.034959
C18   C     C_R   0.572768 0.607832 0.857708 0.032654
C19   C     C_R   0.574088 0.621952 0.979793 -0.187692
C20   C     C_R   0.737750 0.508710 0.501171 0.546612
C21   C     C_R   0.128374 0.491293 0.720310 -0.110106
C22   C     C_R   0.076261 0.525901 0.825747 -0.109755
C23   C     C_R   0.127383 0.490976 0.505023 -0.006444
C24   C     C_R   0.962227 0.574836 0.827255 0.011525
C25   C     C_R   0.898118 0.580156 0.720351 -0.087764
C26   C     C_R   0.945012 0.535431 0.612516 0.017463
C27   C     C_R   0.370976 0.274377 0.956541 -0.000423
C28   C     C_R   0.427345 0.180626 0.972773 -0.109696
C29   C     C_R   0.378308 0.084875 0.913687 -0.120803
C30   C     C_R   0.273104 0.082044 0.837802 -0.096265
C31   C     C_R   0.215614 0.174896 0.822390 -0.107268
C32   C     C_R   0.263641 0.270666 0.882382 -0.108417
C33   C     C_3   0.900898 0.616447 0.938792 -0.258736
C34   C     C_R   0.056034 0.485644 0.399750 -0.163037
C35   C     C_3   0.978933 0.614267 0.052954 -0.300346
C36   C     C_3   0.909311 0.660976 0.158779 -0.453773
C37   C     C_R   0.929533 0.494451 0.399545 -0.165563
C38   C     C_R   0.872353 0.517774 0.504788 -0.009781
C39   C     C_R   0.504719 0.814404 0.533707 0.001787
C40   C     C_R   0.495608 0.185620 0.466204 0.000156
C41   C     C_R   0.471265 0.014934 0.344819 -0.139147
Cu1   Cu    Cu3+1 0.509250 0.507730 0.615930 0.926937
Cu2   Cu    Cu3+1 0.490750 0.492270 0.384070 0.928613
H1    H     H_    0.097752 0.472856 0.316608 0.137725
H2    H     H_    0.212519 0.448891 0.725545 0.136214
H3    H     H_    0.126811 0.514592 0.905294 0.102832
H4    H     H_    0.812571 0.621856 0.723082 0.123882
H5    H     H_    0.876427 0.482743 0.316378 0.139032
H6    H     H_    0.469232 0.812711 0.348621 0.115557
H7    H     H_    0.542150 0.842504 0.721828 0.117315
H8    H     H_    0.454534 0.967660 0.259009 0.100491
H9    H     H_    0.509295 0.181796 0.030894 0.101322
H10   H     H_    0.422307 0.012879 0.926184 0.098887
H11   H     H_    0.235823 0.007905 0.791458 0.114958
H12   H     H_    0.549623 0.032378 0.740111 0.111937
H13   H     H_    0.133404 0.172652 0.764545 0.111090
H14   H     H_    0.217056 0.341708 0.871737 0.091065
H15   H     H_    0.885836 0.743363 0.154930 0.150569
H16   H     H_    0.823215 0.615149 0.161864 0.150938
H17   H     H_    0.967953 0.659184 0.239888 0.152751
H18   H     H_    0.001337 0.532312 0.060530 0.157570
H19   H     H_    0.065984 0.659948 0.053722 0.166842
H20   H     H_    0.873744 0.698377 0.936264 0.130775
H21   H     H_    0.815871 0.568838 0.939550 0.158422
H22   H     H_    0.460006 0.157605 0.277844 0.122133
H23   H     H_    0.530473 0.187253 0.651373 0.125475
H24   H     H_    0.433935 0.373869 0.785461 0.127128
H25   H     H_    0.611313 0.668505 0.817238 0.110973
H26   H     H_    0.614699 0.692876 0.031242 0.081235
H27   H     H_    0.386654 0.333258 0.187243 0.130083
H28   H     H_    0.568967 0.624975 0.210641 0.115118
N1    N     N_R   0.523180 0.519350 0.790130 -0.230533
N2    N     N_R   0.476820 0.480650 0.209890 -0.240092
O1    O     O_R   0.506570 0.354460 0.582000 -0.514958
O2    O     O_R   0.490940 0.341410 0.386200 -0.514243
O3    O     O_R   0.327470 0.506530 0.597920 -0.508825
O4    O     O_R   0.311840 0.493480 0.402120 -0.501632
O5    O     O_R   0.509060 0.658590 0.613800 -0.515096
O6    O     O_R   0.493430 0.645540 0.418000 -0.513921
O7    O     O_R   0.688160 0.506520 0.597880 -0.505276
O8    O     O_R   0.672530 0.493470 0.402080 -0.501303

loop_
_geom_bond_atom_site_label_1
_geom_bond_atom_site_label_2
_ccdc_geom_bond_type
C10   C27   S    
Cu2   N2    S    
Cu1   O7    S    
C34   C37   A    
C35   C36   S    
C2    H22   S    
C11   H27   S    
C30   H11   S    
C12   C23   A    
C29   C30   A    
C1    O1    A    
C28   C29   A    
C36   H15   S    
C10   C15   A    
C30   C31   A    
C2    C41   A    
Cu2   O6    S    
C18   C19   A    
C20   O8    A    
C1    C40   S    
C8    C9    A    
C6    C41   A    
C9    H12   S    
C8    C39   A    
C31   H13   S    
C25   H4    S    
C36   H16   S    
C21   C22   A    
Cu2   O2    S    
C32   H14   S    
C21   H2    S    
C18   N1    A    
Cu1   O1    S    
C17   H24   S    
C20   O7    A    
C1    O2    A    
C34   H1    S    
C24   C25   A    
C7    H6    S    
C11   N2    A    
C4    C23   S    
C26   C38   A    
C13   H28   S    
C3    C5    A    
C25   C26   A    
C12   C21   A    
C12   C26   A    
C5    C9    A    
C37   C38   A    
C20   C38   S    
C31   C32   A    
C33   H20   S    
C23   C34   A    
Cu1   N1    S    
C35   H18   S    
C37   H5    S    
C22   H3    S    
C13   N2    A    
C3    C40   A    
Cu1   O5    S    
Cu2   O8    S    
C22   C24   A    
C19   H26   S    
C3    H23   S    
Cu1   Cu2   S    
C8    H7    S    
C15   C17   A    
C27   C32   A    
C14   C19   A    
C36   H17   S    
C6    C7    A    
Cu2   O4    S    
Cu1   O3    S    
C24   C33   S    
C16   O6    A    
C4    O4    A    
C28   H9    S    
C5    C6    A    
C29   H10   S    
C33   H21   S    
C33   C35   S    
C35   H19   S    
C16   O5    A    
C4    O3    A    
C10   C11   A    
C16   C39   S    
C2    C40   A    
C17   N1    A    
C27   C28   A    
C7    C39   A    
C14   C15   A    
C13   C14   A    
C18   H25   S    
C41   H8    S    
