data_mof_unit_44592.cif
_audit_creation_date              2012-12-11T15:24:31-0500
_audit_creation_method            fapswitch 2.2
_symmetry_space_group_name_H-M    P1
_symmetry_Int_Tables_number       1
_space_group_crystal_system       triclinic
_cell_length_a                    23.137371
_cell_length_b                    6.979715
_cell_length_c                    20.644877
_cell_angle_alpha                 90.000796
_cell_angle_beta                  92.970426
_cell_angle_gamma                 90.0022
_cell_volume                      3329.50825313

loop_
_atom_site_label
_atom_site_type_symbol
_atom_type_description
_atom_site_fract_x
_atom_site_fract_y
_atom_site_fract_z
_atom_type_partial_charge
O1    O     O_R   0.188030 0.379840 0.189340 -0.528169
O2    O     O_R   0.811970 0.620160 0.810660 -0.537281
O3    O     O_R   0.311970 0.879840 0.310660 -0.528587
O4    O     O_R   0.688030 0.120160 0.689340 -0.537244
O5    O     O_R   0.307090 0.708420 0.185790 -0.540994
O6    O     O_R   0.692910 0.291580 0.814210 -0.552840
O7    O     O_R   0.192910 0.208420 0.314210 -0.541023
O8    O     O_R   0.807090 0.791580 0.685790 -0.552941
C1    C     C_R   0.326685 0.541601 0.170824 0.750518
C2    C     C_R   0.673174 0.458344 0.828993 0.773192
C3    C     C_R   0.173316 0.041596 0.329177 0.750334
C4    C     C_R   0.826823 0.958349 0.671003 0.773081
O9    O     O_R   0.188180 0.709480 0.181650 -0.551355
O10   O     O_R   0.811820 0.290520 0.818350 -0.526842
O11   O     O_R   0.311820 0.209480 0.318350 -0.551279
O12   O     O_R   0.688180 0.790520 0.681650 -0.526863
O13   O     O_R   0.192210 0.880960 0.306500 -0.527958
O14   O     O_R   0.807790 0.119040 0.693500 -0.505868
O15   O     O_R   0.307790 0.380960 0.193500 -0.527747
O16   O     O_R   0.692210 0.619040 0.806500 -0.505965
C5    C     C_R   0.167965 0.540787 0.165128 0.722512
C6    C     C_R   0.831967 0.459178 0.834170 0.853524
C7    C     C_R   0.332043 0.040792 0.334863 0.722017
C8    C     C_R   0.668040 0.959173 0.665822 0.853792
O17   O     O_3   0.251460 0.546730 0.290970 -0.366578
O18   O     O_3   0.748540 0.453270 0.709030 -0.369834
O19   O     O_3   0.248540 0.046730 0.209030 -0.366134
O20   O     O_3   0.751460 0.953270 0.790970 -0.369842
V1    V     V_3+5 0.249730 0.821120 0.242400 1.527769
V2    V     V_3+5 0.750270 0.178880 0.757600 1.633678
V3    V     V_3+5 0.250270 0.321120 0.257600 1.527942
V4    V     V_3+5 0.749730 0.678880 0.742400 1.633446
C9    C     C_R   0.565664 0.878332 0.628817 -0.050177
C10   C     C_R   0.428249 0.159248 0.383292 -0.071354
C11   C     C_R   0.934523 0.379892 0.870866 -0.051247
C12   C     C_R   0.071695 0.658955 0.116801 -0.071634
C13   C     C_R   0.618998 0.968358 0.616862 -0.118935
C14   C     C_R   0.380891 0.031007 0.385694 -0.186408
C15   C     C_R   0.881028 0.468384 0.883111 -0.119611
C16   C     C_R   0.119130 0.531063 0.114292 -0.186509
C17   C     C_R   0.624524 0.068708 0.557814 -0.039539
C18   C     C_R   0.380570 0.891849 0.435970 -0.024969
C19   C     C_R   0.875368 0.567405 0.942388 -0.039196
C20   C     C_R   0.119523 0.392453 0.063848 -0.024267
C21   C     C_R   0.573859 0.106226 0.517694 -0.017625
C22   C     C_R   0.426605 0.885479 0.485104 0.011221
C23   C     C_R   0.925979 0.605168 0.982576 -0.017060
C24   C     C_R   0.073645 0.387048 0.014536 0.011247
C25   C     C_R   0.524290 0.990093 0.524180 -0.005862
C26   C     C_R   0.476330 0.002789 0.478089 -0.014381
C27   C     C_R   0.975788 0.490441 0.975720 -0.004964
C28   C     C_R   0.023741 0.503207 0.021811 -0.013869
C29   C     C_R   0.522823 0.861918 0.577103 0.055956
C30   C     C_R   0.478525 0.132891 0.425234 0.085146
C31   C     C_R   0.977508 0.363580 0.922441 0.055622
C32   C     C_R   0.021386 0.632239 0.074934 0.086129
C33   C     C_R   0.572749 0.247743 0.468568 -0.060072
C34   C     C_R   0.426187 0.758490 0.539538 -0.039490
C35   C     C_R   0.926839 0.745602 0.032074 -0.059959
C36   C     C_R   0.074440 0.262007 0.959645 -0.040885
C37   C     C_R   0.530769 0.236799 0.417057 0.125611
C38   C     C_R   0.477060 0.727984 0.578493 0.085074
C39   C     C_R   0.968973 0.734818 0.083446 0.125917
C40   C     C_R   0.023654 0.231148 0.920571 0.085039
C41   C     C_3   0.043281 0.101612 0.529241 0.065215
C42   C     C_3   0.956989 0.898349 0.471174 0.077410
C43   C     C_3   0.456724 0.601614 0.970766 0.065193
C44   C     C_3   0.543012 0.398349 0.028828 0.077401
C45   C     C_3   0.020803 0.907270 0.553442 0.113183
C46   C     C_3   0.979460 0.092697 0.446975 0.118678
C47   C     C_3   0.479195 0.407268 0.946564 0.112978
C48   C     C_3   0.520548 0.592701 0.053028 0.118682
C49   C     C_1   0.872298 0.962998 0.625357 -0.076624
C50   C     C_1   0.127893 0.036921 0.374909 -0.122261
C51   C     C_1   0.627700 0.462985 0.874640 -0.076541
C52   C     C_1   0.372110 0.536935 0.125095 -0.122324
C53   C     C_3   0.980048 0.171149 0.517222 -0.032041
C54   C     C_3   0.020220 0.828814 0.483196 -0.026102
C55   C     C_3   0.519959 0.671147 0.982781 -0.032065
C56   C     C_3   0.479778 0.328817 0.016809 -0.026108
C57   C     C_3   0.957657 0.976937 0.541371 0.048642
C58   C     C_3   0.042613 0.023028 0.459034 0.052017
C59   C     C_3   0.542343 0.476931 0.958630 0.048649
C60   C     C_3   0.457392 0.523036 0.040972 0.052050
C61   C     C_1   0.910643 0.965108 0.587419 0.062936
C62   C     C_1   0.089595 0.034825 0.412921 0.062067
C63   C     C_1   0.589356 0.465096 0.912579 0.062965
C64   C     C_1   0.410410 0.534838 0.087085 0.062057
C65   C     C_2   0.549685 0.830373 0.696398 0.296342
H1    H     H_    0.504457 0.814750 0.706746 0.085575
O21   O     O_2   0.585535 0.812211 0.741403 -0.539974
C66   C     C_2   0.422847 0.328618 0.339751 0.374630
H2    H     H_    0.410979 0.310525 0.288568 0.030523
O22   O     O_2   0.430500 0.489980 0.361347 -0.553436
C67   C     C_2   0.950436 0.333613 0.803141 0.296263
H3    H     H_    0.995694 0.321627 0.792477 0.085219
O23   O     O_2   0.914455 0.312311 0.758430 -0.539820
C68   C     C_2   0.077027 0.828377 0.160330 0.375050
H4    H     H_    0.089113 0.810462 0.211466 0.030452
O24   O     O_2   0.069048 0.989624 0.138766 -0.552847
C69   C     C_2   0.682730 0.109367 0.532126 0.433634
H5    H     H_    0.686214 0.139762 0.480948 0.039913
O25   O     O_2   0.727342 0.105615 0.566247 -0.539625
C70   C     C_2   0.333127 0.747924 0.434973 0.513858
H6    H     H_    0.343348 0.596342 0.437961 0.046645
O26   O     O_2   0.282495 0.798126 0.433455 -0.506310
C71   C     C_2   0.817101 0.606426 0.968155 0.434117
H7    H     H_    0.813526 0.634355 0.019480 0.039320
O27   O     O_2   0.772563 0.604344 0.933894 -0.539421
C72   C     C_2   0.166720 0.247624 0.064862 0.513538
H8    H     H_    0.156211 0.096352 0.061204 0.045930
O28   O     O_2   0.217458 0.296747 0.067002 -0.506003
C73   C     C_2   0.609960 0.422524 0.474031 0.353731
H9    H     H_    0.619135 0.506060 0.431509 0.063307
O29   O     O_2   0.628108 0.481593 0.526949 -0.524069
C74   C     C_2   0.372313 0.673283 0.563128 0.367917
H10   H     H_    0.370277 0.522083 0.574971 0.070231
O30   O     O_2   0.330575 0.774687 0.572573 -0.493602
C75   C     C_2   0.889181 0.919406 0.027131 0.354679
H11   H     H_    0.879643 0.001190 0.069916 0.062785
O31   O     O_2   0.871038 0.979693 0.974372 -0.523320
C76   C     C_2   0.128644 0.180031 0.935709 0.368213
H12   H     H_    0.131029 0.029968 0.922416 0.070656
O32   O     O_2   0.170295 0.283116 0.927592 -0.493800
C77   C     C_3   0.547583 0.310612 0.351486 -0.778876
H13   H     H_    0.594370 0.284925 0.345270 0.183892
H14   H     H_    0.525005 0.231573 0.310995 0.199044
H15   H     H_    0.539306 0.466788 0.347154 0.239030
C78   C     C_3   0.483784 0.541205 0.615931 -0.781450
H16   H     H_    0.470780 0.419393 0.583715 0.212313
H17   H     H_    0.529385 0.512386 0.632301 0.238079
H18   H     H_    0.456180 0.541549 0.658337 0.197669
C79   C     C_3   0.952262 0.807491 0.149201 -0.779212
H19   H     H_    0.905582 0.780391 0.155643 0.183951
H20   H     H_    0.975202 0.728709 0.189505 0.199023
H21   H     H_    0.960183 0.963849 0.153649 0.238897
C80   C     C_3   0.017470 0.045363 0.882481 -0.782557
H22   H     H_    0.031069 0.923008 0.914170 0.212184
H23   H     H_    0.971913 0.015105 0.866281 0.237433
H24   H     H_    0.044865 0.048368 0.839910 0.197787
C81   C     C_3   0.044828 0.807851 0.614787 -0.740002
H25   H     H_    0.088772 0.751583 0.606948 0.240949
H26   H     H_    0.047347 0.911938 0.655466 0.214471
H27   H     H_    0.016137 0.688889 0.628108 0.198002
C82   C     C_3   0.955385 0.192117 0.385655 -0.768674
H28   H     H_    0.911424 0.248192 0.393520 0.233505
H29   H     H_    0.984027 0.311227 0.372354 0.196197
H30   H     H_    0.952891 0.088092 0.344957 0.212431
C83   C     C_3   0.455161 0.307840 0.885223 -0.739627
H31   H     H_    0.411212 0.251612 0.893064 0.240925
H32   H     H_    0.452654 0.411911 0.844540 0.214520
H33   H     H_    0.483841 0.188848 0.871909 0.198104
C84   C     C_3   0.544630 0.692128 0.114345 -0.768735
H34   H     H_    0.588597 0.748166 0.106479 0.233539
H35   H     H_    0.515998 0.811267 0.127638 0.196191
H36   H     H_    0.547113 0.588118 0.155046 0.212392
C85   C     C_3   0.092493 0.212255 0.563639 -0.718508
H37   H     H_    0.079592 0.257272 0.612379 0.200922
H38   H     H_    0.131452 0.119724 0.568887 0.243909
H39   H     H_    0.102987 0.340343 0.535211 0.250430
C86   C     C_3   0.907762 0.787698 0.436804 -0.757212
H40   H     H_    0.920612 0.742870 0.388025 0.198474
H41   H     H_    0.897329 0.659488 0.465203 0.251087
H42   H     H_    0.868779 0.880151 0.431648 0.232742
C87   C     C_3   0.407514 0.712258 0.936370 -0.718432
H43   H     H_    0.420412 0.757257 0.887626 0.201060
H44   H     H_    0.368550 0.619737 0.931129 0.243998
H45   H     H_    0.397029 0.840359 0.964795 0.250352
C88   C     C_3   0.592237 0.287698 0.063196 -0.757089
H46   H     H_    0.579390 0.242888 0.111978 0.198426
H47   H     H_    0.602661 0.159476 0.034799 0.251094
H48   H     H_    0.631224 0.380144 0.068344 0.232768
C89   C     C_2   0.044933 0.643502 0.461302 0.337723
H49   H     H_    0.016512 0.528950 0.445139 0.044175
O33   O     O_2   0.097244 0.621474 0.461522 -0.516852
C90   C     C_2   0.955348 0.356425 0.539177 0.362294
H50   H     H_    0.983780 0.470922 0.555361 0.044804
O34   O     O_2   0.903039 0.378471 0.538998 -0.520809
C91   C     C_2   0.455061 0.143504 0.038704 0.337718
H51   H     H_    0.483479 0.028939 0.054854 0.044150
O35   O     O_2   0.402749 0.121486 0.038496 -0.516836
C92   C     C_2   0.544664 0.856425 0.960826 0.362393
H52   H     H_    0.516235 0.970937 0.944655 0.044783
O36   O     O_2   0.596973 0.878461 0.960995 -0.520731

loop_
_geom_bond_atom_site_label_1
_geom_bond_atom_site_label_2
_ccdc_geom_bond_type
C34   C38   A    
C59   C63   S    
O1    C5    A    
C87   H43   S    
O19   V1    S    
O13   V1    S    
C88   H46   S    
O3    C7    A    
C67   H3    S    
C56   C60   S    
O15   V3    S    
C86   H42   S    
C70   O26   D    
C86   H40   S    
C83   H31   S    
C25   C26   A    
C47   C83   S    
C89   H49   S    
O7    C3    A    
C80   H23   S    
C21   C33   A    
C69   H5    S    
C39   C79   S    
O9    V1    S    
C14   C18   A    
C48   C55   S    
C83   H32   S    
C82   H28   S    
O4    C8    A    
C41   C45   S    
C43   C47   S    
C45   C81   S    
O1    V3    S    
C74   H10   S    
O17   V1    S    
O2    V4    S    
C18   C22   A    
C12   C68   S    
C33   C37   A    
O3    V1    S    
C92   H52   S    
C70   H6    S    
C12   C16   A    
C82   H29   S    
C72   H8    S    
C1    O15   A    
C85   H37   S    
C2    O16   A    
O2    C6    A    
C77   H15   S    
C71   H7    S    
O14   V2    S    
C1    C52   S    
C53   C57   S    
C65   O21   D    
C52   C64   T    
O5    V1    S    
C17   C69   S    
C44   C48   S    
C78   H18   S    
C43   C87   S    
O11   C7    A    
C43   C60   S    
O12   C8    A    
C10   C66   S    
C4    C49   S    
C22   C34   A    
C46   C53   S    
C34   C74   S    
C71   O27   D    
C38   C78   S    
C45   C54   S    
O10   V2    S    
C47   C56   S    
C86   H41   S    
C57   C61   S    
C24   C36   A    
C47   C59   S    
C40   C80   S    
C89   O33   D    
C9    C29   A    
C42   C54   S    
C80   H24   S    
C41   C53   S    
C11   C31   A    
C27   C28   A    
O8    V4    S    
C56   C91   S    
O20   V4    S    
O7    V3    S    
C53   C90   S    
C41   C85   S    
C83   H33   S    
O18   V4    S    
C23   C27   A    
C58   C62   S    
O19   V3    S    
C9    C13   A    
C42   C86   S    
C73   O29   D    
C85   H38   S    
C11   C15   A    
O5    C1    A    
C12   C32   A    
C9    C65   S    
C54   C89   S    
C79   H19   S    
C2    C51   S    
C54   C58   S    
C21   C25   A    
O8    C4    A    
C31   C40   A    
C66   O22   D    
C8    C13   S    
C32   C39   A    
O9    C5    A    
C46   C82   S    
C19   C71   S    
C50   C62   T    
C84   H36   S    
C36   C76   S    
C49   C61   T    
C48   C60   S    
C75   O31   D    
C79   H21   S    
O18   V2    S    
C51   C63   T    
C90   H50   S    
O6    V2    S    
C10   C30   A    
C87   H45   S    
C68   O24   D    
C77   H13   S    
C88   H48   S    
C81   H27   S    
C84   H35   S    
C76   O32   D    
C44   C56   S    
C65   H1    S    
C82   H30   S    
C79   H20   S    
C73   H9    S    
O16   V4    S    
C3    O13   A    
C35   C75   S    
C48   C84   S    
C92   O36   D    
C10   C14   A    
C44   C59   S    
O17   V3    S    
C60   C64   S    
C3    C50   S    
C18   C70   S    
O6    C2    A    
C33   C73   S    
C75   H11   S    
C67   O23   D    
O11   V3    S    
C30   C37   A    
C11   C67   S    
C85   H39   S    
O12   V4    S    
C7    C14   S    
C80   H22   S    
C22   C26   A    
C35   C39   A    
C69   O25   D    
C36   C40   A    
O10   C6    A    
C81   H26   S    
C78   H16   S    
C44   C88   S    
C26   C30   A    
C55   C92   S    
C81   H25   S    
C42   C57   S    
C55   C59   S    
C41   C58   S    
C42   C46   S    
C5    C16   S    
C25   C29   A    
C6    C15   S    
O20   V2    S    
C66   H2    S    
C74   O30   D    
C27   C31   A    
C13   C17   A    
C46   C58   S    
C72   O28   D    
C45   C57   S    
C23   C35   A    
C91   H51   S    
C28   C32   A    
C16   C20   A    
C91   O35   D    
C15   C19   A    
C29   C38   A    
C87   H44   S    
C68   H4    S    
C4    O14   A    
C77   H14   S    
C17   C21   A    
C37   C77   S    
C78   H17   S    
C76   H12   S    
C24   C28   A    
C19   C23   A    
C43   C55   S    
O4    V2    S    
C20   C24   A    
C90   O34   D    
C84   H34   S    
C88   H47   S    
C20   C72   S    
