data_mof_unit_24473.cif
_audit_creation_date              2012-12-11T14:41:09-0500
_audit_creation_method            fapswitch 2.2
_symmetry_space_group_name_H-M    P1
_symmetry_Int_Tables_number       1
_space_group_crystal_system       triclinic
_cell_length_a                    7.094581
_cell_length_b                    17.869959
_cell_length_c                    18.599531
_cell_angle_alpha                 90.0
_cell_angle_beta                  89.999825
_cell_angle_gamma                 90.421328
_cell_volume                      2357.98239663

loop_
_atom_site_label
_atom_site_type_symbol
_atom_type_description
_atom_site_fract_x
_atom_site_fract_y
_atom_site_fract_z
_atom_type_partial_charge
O1    O     O_R   0.377350 0.828520 0.186660 -0.534422
O2    O     O_R   0.622650 0.171480 0.813340 -0.534421
O3    O     O_R   0.122650 0.171480 0.686660 -0.534421
O4    O     O_R   0.877350 0.828520 0.313340 -0.534421
O5    O     O_R   0.877350 0.671480 0.313340 -0.536325
O6    O     O_R   0.122650 0.328520 0.686660 -0.536325
O7    O     O_R   0.622650 0.328520 0.813340 -0.536324
O8    O     O_R   0.377350 0.671480 0.186660 -0.536323
O9    O     O_R   0.707090 0.671930 0.178410 -0.538855
O10   O     O_R   0.292910 0.328070 0.821590 -0.538853
O11   O     O_R   0.792910 0.328070 0.678410 -0.538855
O12   O     O_R   0.207090 0.671930 0.321590 -0.538853
O13   O     O_R   0.207090 0.828070 0.321590 -0.537911
O14   O     O_R   0.792910 0.171930 0.678410 -0.537912
O15   O     O_R   0.292910 0.171930 0.821590 -0.537911
O16   O     O_R   0.707090 0.828070 0.178410 -0.537911
C1    C     C_R   0.537713 0.645206 0.162848 0.685958
C2    C     C_R   0.462286 0.354796 0.837150 0.685955
C3    C     C_R   0.962287 0.354794 0.662848 0.685955
C4    C     C_R   0.037714 0.645205 0.337151 0.685954
C5    C     C_R   0.039111 0.853575 0.338411 0.688900
C6    C     C_R   0.960888 0.146425 0.661589 0.688898
C7    C     C_R   0.460888 0.146425 0.838411 0.688901
C8    C     C_R   0.539112 0.853575 0.161589 0.688900
O17   O     O_3   0.543850 0.750000 0.294270 -0.368507
O18   O     O_3   0.456150 0.250000 0.705730 -0.368509
O19   O     O_3   0.956150 0.250000 0.794270 -0.368507
O20   O     O_3   0.043850 0.750000 0.205730 -0.368508
V1    V     V_3+5 0.818700 0.750000 0.241790 1.391909
V2    V     V_3+5 0.181300 0.250000 0.758210 1.391909
V3    V     V_3+5 0.681300 0.250000 0.741790 1.391908
V4    V     V_3+5 0.318700 0.750000 0.258210 1.391910
C9    C     C_R   0.979056 0.419737 0.613238 -0.086718
C10   C     C_R   0.020953 0.580260 0.386761 -0.086751
C11   C     C_R   0.520944 0.580263 0.113237 -0.086740
C12   C     C_R   0.479047 0.419741 0.886760 -0.086759
C13   C     C_R   0.466192 0.082163 0.888814 -0.083397
C14   C     C_R   0.533809 0.917837 0.111186 -0.083393
C15   C     C_R   0.033808 0.917837 0.388814 -0.083395
C16   C     C_R   0.966191 0.082164 0.611185 -0.083387
C17   C     C_R   0.866070 0.463219 0.421998 -0.197156
C18   C     C_R   0.133961 0.536774 0.578000 -0.197193
C19   C     C_R   0.633929 0.536782 0.921997 -0.197150
C20   C     C_R   0.366043 0.463225 0.077999 -0.197168
C21   C     C_R   0.632768 0.043478 0.075551 -0.194316
C22   C     C_R   0.367229 0.956522 0.924450 -0.194313
C23   C     C_R   0.867249 0.956519 0.575553 -0.194318
C24   C     C_R   0.132751 0.043481 0.424446 -0.194312
C25   C     C_R   0.908894 0.516647 0.368460 0.059015
C26   C     C_R   0.091119 0.483349 0.631540 0.059021
C27   C     C_R   0.591110 0.483354 0.868458 0.059009
C28   C     C_R   0.408882 0.516650 0.131539 0.059020
C29   C     C_R   0.621833 0.987086 0.128646 0.053509
C30   C     C_R   0.378164 0.012913 0.871354 0.053505
C31   C     C_R   0.878175 0.012913 0.628648 0.053504
C32   C     C_R   0.121824 0.987088 0.371351 0.053507
C33   C     C_R   0.098836 0.585396 0.456093 -0.251063
C34   C     C_R   0.901189 0.414599 0.543905 -0.251066
C35   C     C_R   0.401163 0.414606 0.956091 -0.251065
C36   C     C_R   0.598809 0.585402 0.043904 -0.251067
C37   C     C_R   0.446577 0.908739 0.043815 -0.247974
C38   C     C_R   0.553425 0.091260 0.956185 -0.247973
C39   C     C_R   0.053412 0.091263 0.543813 -0.247971
C40   C     C_R   0.946587 0.908738 0.456186 -0.247973
C41   C     C_R   0.059537 0.530486 0.508437 0.128553
C42   C     C_R   0.940495 0.469507 0.491561 0.128557
C43   C     C_R   0.440464 0.469514 0.008435 0.128553
C44   C     C_R   0.559503 0.530494 0.991560 0.128559
C45   C     C_R   0.452276 0.966236 0.992144 0.128308
C46   C     C_R   0.547725 0.033763 0.007856 0.128306
C47   C     C_R   0.047716 0.033765 0.492142 0.128308
C48   C     C_R   0.952283 0.966236 0.507857 0.128308
H1    H     H_    0.815833 0.366160 0.529905 0.117698
H2    H     H_    0.184191 0.633835 0.470092 0.117705
H3    H     H_    0.684163 0.633842 0.029904 0.117700
H4    H     H_    0.315805 0.366166 0.970089 0.117707
H5    H     H_    0.622183 0.144031 0.968878 0.113431
H6    H     H_    0.377821 0.855968 0.031121 0.113429
H7    H     H_    0.877842 0.855965 0.468883 0.113427
H8    H     H_    0.122156 0.144036 0.531117 0.113425
H9    H     H_    0.776231 0.415807 0.409318 0.113629
H10   H     H_    0.223806 0.584185 0.590679 0.113647
H11   H     H_    0.723768 0.584195 0.909317 0.113625
H12   H     H_    0.276205 0.415813 0.090678 0.113636
H13   H     H_    0.704800 0.095708 0.087211 0.114555
H14   H     H_    0.295192 0.904293 0.912790 0.114554
H15   H     H_    0.795228 0.904287 0.587215 0.114556
H16   H     H_    0.204775 0.095713 0.412784 0.114553
C49   C     C_3   0.165068 0.494985 0.707633 -0.324454
C50   C     C_3   0.146256 0.576232 0.735000 -0.326619
C51   C     C_3   0.149975 0.581377 0.817222 -0.787892
H17   H     H_    0.019757 0.558415 0.841322 0.226186
H18   H     H_    0.267809 0.549095 0.839771 0.249263
H19   H     H_    0.164774 0.640781 0.833914 0.210996
H20   H     H_    0.261354 0.611396 0.712891 0.190545
H21   H     H_    0.016003 0.602128 0.715133 0.212797
H22   H     H_    0.093193 0.457056 0.745924 0.170617
H23   H     H_    0.314040 0.478361 0.708533 0.168127
C52   C     C_3   0.834907 0.505013 0.292372 -0.324492
C53   C     C_3   0.853770 0.423773 0.264992 -0.326622
C54   C     C_3   0.850071 0.418642 0.182768 -0.787868
H24   H     H_    0.732139 0.450869 0.160224 0.249252
H25   H     H_    0.980221 0.441674 0.158674 0.226206
H26   H     H_    0.835460 0.359234 0.166068 0.210992
H27   H     H_    0.984035 0.397890 0.284862 0.212827
H28   H     H_    0.738691 0.388593 0.287091 0.190516
H29   H     H_    0.685921 0.521613 0.291498 0.168142
H30   H     H_    0.906717 0.542959 0.254077 0.170648
C55   C     C_3   0.334930 0.505013 0.207631 -0.324468
C56   C     C_3   0.353759 0.423768 0.235000 -0.326623
C57   C     C_3   0.350044 0.418625 0.317223 -0.787888
H31   H     H_    0.480238 0.441608 0.341322 0.226192
H32   H     H_    0.232177 0.450887 0.339771 0.249259
H33   H     H_    0.335308 0.359219 0.333915 0.210995
H34   H     H_    0.238668 0.388599 0.212894 0.190531
H35   H     H_    0.484017 0.397878 0.215131 0.212814
H36   H     H_    0.406793 0.542946 0.245923 0.170625
H37   H     H_    0.185953 0.521630 0.208526 0.168141
C58   C     C_3   0.665105 0.494988 0.792372 -0.324489
C59   C     C_3   0.646227 0.576227 0.764990 -0.326620
C60   C     C_3   0.649907 0.581357 0.682766 -0.787861
H38   H     H_    0.767915 0.549175 0.660219 0.249244
H39   H     H_    0.519811 0.558276 0.658673 0.226216
H40   H     H_    0.664366 0.640771 0.666065 0.210987
H41   H     H_    0.515962 0.602106 0.784865 0.212832
H42   H     H_    0.761303 0.611411 0.787085 0.190510
H43   H     H_    0.814095 0.478394 0.791502 0.168145
H44   H     H_    0.593310 0.457039 0.754076 0.170653
C61   C     C_3   0.299967 0.999453 0.796025 -0.327387
C62   C     C_3   0.316814 0.918207 0.768346 -0.323595
C63   C     C_3   0.309895 0.913833 0.686054 -0.783282
H45   H     H_    0.198128 0.949936 0.664409 0.250267
H46   H     H_    0.442785 0.933304 0.661302 0.226087
H47   H     H_    0.283814 0.855155 0.668886 0.210000
H48   H     H_    0.447738 0.891861 0.786975 0.212679
H49   H     H_    0.201994 0.883194 0.790865 0.189141
H50   H     H_    0.151196 0.016871 0.795529 0.170413
H51   H     H_    0.372634 0.036674 0.757143 0.167299
C64   C     C_3   0.700021 0.000547 0.203977 -0.327391
C65   C     C_3   0.683181 0.081793 0.231654 -0.323593
C66   C     C_3   0.690107 0.086170 0.313946 -0.783284
H52   H     H_    0.557194 0.066727 0.338700 0.226080
H53   H     H_    0.801832 0.050046 0.335592 0.250267
H54   H     H_    0.716261 0.144843 0.331112 0.210000
H55   H     H_    0.798003 0.116804 0.209133 0.189144
H56   H     H_    0.552258 0.108142 0.213027 0.212678
H57   H     H_    0.627342 0.963329 0.242858 0.167294
H58   H     H_    0.848789 0.983125 0.204479 0.170415
C67   C     C_3   0.200027 0.000547 0.296023 -0.327390
C68   C     C_3   0.183176 0.081791 0.268341 -0.323601
C69   C     C_3   0.190104 0.086162 0.186048 -0.783280
H59   H     H_    0.301865 0.050055 0.164406 0.250268
H60   H     H_    0.057211 0.066695 0.161295 0.226085
H61   H     H_    0.216199 0.144838 0.168879 0.210001
H62   H     H_    0.052247 0.108135 0.286967 0.212684
H63   H     H_    0.297990 0.116806 0.290859 0.189139
H64   H     H_    0.348800 0.983131 0.295529 0.170416
H65   H     H_    0.127370 0.963323 0.257141 0.167299
C70   C     C_3   0.799983 0.999453 0.703978 -0.327387
C71   C     C_3   0.816813 0.918207 0.731657 -0.323592
C72   C     C_3   0.809883 0.913833 0.813949 -0.783275
H66   H     H_    0.942789 0.933284 0.838703 0.226080
H67   H     H_    0.698146 0.949951 0.835593 0.250266
H68   H     H_    0.783747 0.855158 0.831116 0.210000
H69   H     H_    0.701988 0.883198 0.709136 0.189147
H70   H     H_    0.947734 0.891856 0.713030 0.212673
H71   H     H_    0.872662 0.036671 0.742858 0.167292
H72   H     H_    0.651216 0.016878 0.704479 0.170409

loop_
_geom_bond_atom_site_label_1
_geom_bond_atom_site_label_2
_ccdc_geom_bond_type
C9    C34   A    
C19   H11   S    
C38   H5    S    
C57   H31   S    
C18   H10   S    
C6    C16   S    
O14   V3    S    
C12   C35   A    
C19   C27   A    
C72   H66   S    
C55   H36   S    
C50   H20   S    
O5    C4    A    
C15   C40   A    
O11   C3    A    
C53   H27   S    
C54   H24   S    
C16   C39   A    
O20   V1    S    
C66   H53   S    
C59   H42   S    
C51   H18   S    
C70   H72   S    
C38   C46   A    
C69   H61   S    
C56   C57   S    
C22   C45   A    
O13   V4    S    
C35   C43   A    
C34   C42   A    
C61   H51   S    
C62   H48   S    
C19   C44   A    
C60   H40   S    
C18   C41   A    
C27   C58   S    
C69   H59   S    
C24   H16   S    
C71   H70   S    
C67   H65   S    
O4    V1    S    
O9    V1    S    
C14   C37   A    
C4    C10   S    
C58   H44   S    
C63   H47   S    
O17   V4    S    
C31   C70   S    
O11   V3    S    
O18   V3    S    
C54   H25   S    
C68   H63   S    
O12   V4    S    
O19   V2    S    
O12   C4    A    
C69   H60   S    
C17   C25   A    
C72   H67   S    
C55   H37   S    
C13   C38   A    
O5    V1    S    
C39   H8    S    
O17   V1    S    
C64   H58   S    
O7    V3    S    
C20   C43   A    
O19   V3    S    
C43   C44   A    
O8    V4    S    
O20   V4    S    
C65   C66   S    
C3    C9    S    
C66   H54   S    
C65   H56   S    
C51   H17   S    
C59   H41   S    
C52   H30   S    
C63   H46   S    
O16   V1    S    
C7    C13   S    
O1    V4    S    
C49   H22   S    
C11   C36   A    
C23   H15   S    
C33   H2    S    
O3    V2    S    
C21   H13   S    
O6    C3    A    
C25   C52   S    
O10   V2    S    
C26   C49   S    
C8    C14   S    
C70   C71   S    
C5    C15   S    
C37   H6    S    
C64   C65   S    
O7    C2    A    
C17   H9    S    
C22   C30   A    
O13   C5    A    
C57   H32   S    
C15   C32   A    
C71   H69   S    
C60   H38   S    
C12   C27   A    
C18   C26   A    
C13   C30   A    
C64   H57   S    
O9    C1    A    
O6    V2    S    
C39   C47   A    
O18   V2    S    
C54   H26   S    
C68   H62   S    
C40   H7    S    
C24   C47   A    
C63   H45   S    
C49   C50   S    
C56   H35   S    
O2    C7    A    
C72   H68   S    
C59   C60   S    
O15   V2    S    
C23   C31   A    
C61   C62   S    
C37   C45   A    
C24   C32   A    
C30   C61   S    
C10   C25   A    
C21   C46   A    
C29   C64   S    
C62   H49   S    
C33   C41   A    
C20   H12   S    
C16   C31   A    
C65   H55   S    
C58   C59   S    
C50   H21   S    
C17   C42   A    
C52   H29   S    
C36   H3    S    
C53   H28   S    
O8    C1    A    
C52   C53   S    
C49   H23   S    
C71   C72   S    
O14   C6    A    
C62   C63   S    
C9    C26   A    
C47   C48   A    
C66   H52   S    
C51   H19   S    
O4    C5    A    
C20   C28   A    
C50   C51   S    
C14   C29   A    
C2    C12   S    
C28   C55   S    
O10   C2    A    
C10   C33   A    
C35   H4    S    
O15   C7    A    
C53   C54   S    
C70   H71   S    
C57   H33   S    
C40   C48   A    
C45   C46   A    
C23   C48   A    
C60   H39   S    
C21   C29   A    
C61   H50   S    
C36   C44   A    
O1    C8    A    
O16   C8    A    
C41   C42   A    
C55   C56   S    
C11   C28   A    
C68   C69   S    
O2    V3    S    
O3    C6    A    
C1    C11   S    
C32   C67   S    
C67   C68   S    
C67   H64   S    
C56   H34   S    
C34   H1    S    
C22   H14   S    
C58   H43   S    
