data_mof_unit_13743.cif
_audit_creation_date              2013-03-05T15:51:17-0500
_audit_creation_method            fapswitch 2.2
_symmetry_space_group_name_H-M    P1
_symmetry_Int_Tables_number       1
_space_group_crystal_system       triclinic
_cell_length_a                    8.417795
_cell_length_b                    17.356706
_cell_length_c                    17.419896
_cell_angle_alpha                 98.332999
_cell_angle_beta                  96.623703
_cell_angle_gamma                 97.149048
_cell_volume                      2475.52032435

loop_
_atom_site_label
_atom_site_type_symbol
_atom_site_description
_atom_site_fract_x
_atom_site_fract_y
_atom_site_fract_z
_atom_type_partial_charge
P1    P     P_3+3 0.996700 0.679700 0.572930 0.481063
O1    O     O_2   0.169780 0.691990 0.551040 -0.368218
O2    O     O_3   0.896620 0.594010 0.545570 -0.422452
O3    O     O_3   0.384860 0.644020 0.410190 -0.329383
O4    O     O_2   0.304049 0.772669 0.471021 -0.419385
O5    O     O_3   0.031095 0.696822 0.675403 -0.523704
O6    O     O_3   0.392412 0.801921 0.349540 -0.652155
C1    C     C_3   0.410485 0.858117 0.232708 -0.983734
H1    H     H_    0.280822 0.848681 0.209660 0.262691
H2    H     H_    0.437373 0.916263 0.271404 0.237456
P2    P     P_3+3 0.328720 0.438370 0.322170 0.478385
P3    P     P_3+3 0.912312 0.600369 0.267125 0.510416
O7    O     O_2   0.160250 0.462050 0.312130 -0.359259
O8    O     O_3   0.957280 0.604490 0.369120 -0.429012
O9    O     O_2   0.043947 0.560644 0.227977 -0.368470
O10   O     O_3   0.293019 0.335720 0.297714 -0.569619
O11   O     O_3   0.939449 0.697992 0.249946 -0.454692
C2    C     C_3   0.044768 0.744038 0.313362 0.726399
H3    H     H_    0.159578 0.721488 0.314362 0.131094
H4    H     H_    0.003943 0.739006 0.370907 0.080864
C3    C     C_3   0.060392 0.831842 0.306663 -0.870618
H5    H     H_    0.178265 0.865554 0.332111 0.228584
H6    H     H_    0.032624 0.840991 0.245170 0.292814
C4    C     C_3   0.747106 0.361352 0.291519 0.425424
H7    H     H_    0.632173 0.377500 0.309418 0.074725
H8    H     H_    0.845047 0.412250 0.308691 0.104663
C5    C     C_3   0.726179 0.337855 0.202994 -0.992366
H9    H     H_    0.624617 0.288950 0.183993 0.274077
H10   H     H_    0.700005 0.388150 0.173884 0.206508
H11   H     H_    0.838842 0.318526 0.184500 0.271637
Ba1   Ba    Ba6+2 0.160000 0.538340 0.465920 1.583153
C6    C     C_3   0.060308 0.627625 0.703396 0.410917
H12   H     H_    0.162994 0.604655 0.678134 0.083896
H13   H     H_    0.951495 0.582350 0.688837 0.127210
C7    C     C_3   0.101190 0.646519 0.792092 -0.860620
H14   H     H_    0.213453 0.689604 0.808374 0.278696
H15   H     H_    0.119450 0.592522 0.816812 0.208885
H16   H     H_    0.000640 0.671853 0.817845 0.278780
C8    C     C_3   0.232961 0.302316 0.358709 0.433509
H17   H     H_    0.119789 0.324865 0.371138 0.092840
H18   H     H_    0.323587 0.315066 0.412217 0.129015
C9    C     C_3   0.197099 0.213592 0.332817 -0.960700
H19   H     H_    0.105057 0.199460 0.279863 0.268995
H20   H     H_    0.150347 0.184231 0.379597 0.222683
H21   H     H_    0.309296 0.190191 0.319057 0.268869
P4    P     P_3+3 0.813590 0.320290 0.427010 0.467193
O12   O     O_2   0.640500 0.307960 0.448930 -0.354434
O13   O     O_3   0.913680 0.405980 0.454370 -0.426898
O14   O     O_3   0.425430 0.355970 0.589750 -0.393148
O15   O     O_3   0.786452 0.296625 0.324918 -0.556968
P5    P     P_3+3 0.889135 0.394298 0.731664 0.458876
O16   O     O_3   0.389690 0.539950 0.593560 -0.392127
O17   O     O_3   0.853010 0.395500 0.630820 -0.358207
O18   O     O_2   0.776730 0.447141 0.771160 -0.385759
O19   O     O_3   0.814654 0.299320 0.745348 -0.497361
Ba2   Ba    Ba6+2 0.650170 0.461650 0.534010 1.569156
P6    P     P_3+3 0.441900 0.748000 0.426591 0.513735
C10   C     C_3   0.458030 0.792260 0.277577 1.299557
H22   H     H_    0.475817 0.861057 0.181041 0.276322
O20   O     O_3   0.420600 0.460050 0.406370 -0.423810
C11   C     C_3   0.556687 0.702464 0.678346 0.216174
H23   H     H_    0.679985 0.689343 0.669837 0.101835
H24   H     H_    0.476064 0.690294 0.621482 0.054486
C12   C     C_3   0.565621 0.789729 0.710817 0.195529
H25   H     H_    0.592387 0.825499 0.664800 -0.008260
H26   H     H_    0.447287 0.801416 0.728774 0.111173
P7    P     P_3+3 0.473396 0.557555 0.692647 0.469851
O21   O     O_2   0.650040 0.537900 0.687840 -0.357340
O22   O     O_3   0.492635 0.657690 0.731151 -0.536602
H27   H     H_    0.981253 0.860985 0.343577 0.286611
C13   C     C_3   0.921581 0.248091 0.719380 0.314311
H28   H     H_    0.962879 0.260449 0.663391 0.068637
H29   H     H_    0.028490 0.253947 0.764815 0.042321
C14   C     C_3   0.836807 0.163219 0.704173 -0.587315
H30   H     H_    0.728117 0.157160 0.659861 0.238565
H31   H     H_    0.920150 0.123608 0.680941 0.155072
P8    P     P_3+3 0.383933 0.254035 0.582041 0.454920
C15   C     C_3   0.399321 0.284622 0.731294 0.515918
H32   H     H_    0.272118 0.294747 0.717562 -0.023657
O23   O     O_2   0.497663 0.217131 0.528194 -0.375030
O24   O     O_3   0.441043 0.228217 0.673591 -0.512589
H33   H     H_    0.481547 0.340993 0.736664 0.141469
H34   H     H_    0.382736 0.299582 0.855501 0.221933
C16   C     C_3   0.417147 0.255733 0.809704 -0.976276
H35   H     H_    0.544401 0.247458 0.826503 0.283860
H36   H     H_    0.337252 0.198969 0.805905 0.257976
C17   C     C_2   0.727029 0.731937 0.519278 -0.387494
C18   C     C_3   0.611369 0.789596 0.506926 0.178718
C19   C     C_2   0.691409 0.870780 0.501552 -0.084259
C20   C     C_2   0.854684 0.889068 0.512406 0.168836
C21   C     C_2   0.954586 0.825462 0.527822 -0.296415
C22   C     C_1   0.884783 0.754336 0.534998 0.329594
C23   C     C_R   0.104697 0.141041 0.535481 -0.271928
C24   C     C_R   0.170911 0.220129 0.542295 0.221748
C25   C     C_R   0.920777 0.249589 0.476240 0.345751
C26   C     C_R   0.854569 0.169890 0.468519 -0.257700
C27   C     C_R   0.944324 0.114852 0.499356 0.096924
C28   C     C_2   0.938752 0.971052 0.513859 -0.151538
C29   C     C_2   0.864532 0.031666 0.493315 -0.128350
C30   C     C_R   0.076810 0.274434 0.515824 -0.512334
H37   H     H_    0.737282 0.021038 0.470545 0.151124
H38   H     H_    0.085163 0.839637 0.538286 0.166743
H39   H     H_    0.179643 0.101425 0.558709 0.145552
H40   H     H_    0.067577 0.980466 0.532939 0.125467
H41   H     H_    0.612226 0.914404 0.493953 0.119687
H42   H     H_    0.733471 0.150709 0.437902 0.156982
H43   H     H_    0.673456 0.677931 0.535709 0.117642
H44   H     H_    0.129117 0.335500 0.521624 0.166453
H45   H     H_    0.539635 0.530955 0.856135 0.170201
H46   H     H_    0.729553 0.552881 0.104818 0.149411
C31   C     C_R   0.598454 0.528153 0.278089 -0.375790
C32   C     C_R   0.447047 0.483073 0.251423 0.324131
C33   C     C_R   0.394280 0.466363 0.170498 -0.214154
C34   C     C_R   0.493324 0.493753 0.117295 0.078272
C35   C     C_R   0.650699 0.533669 0.145401 -0.162420
C36   C     C_R   0.704845 0.549789 0.226363 0.239823
C37   C     C_R   0.420310 0.499891 0.832550 -0.220815
C38   C     C_R   0.363138 0.496590 0.753108 0.285281
C39   C     C_R   0.103524 0.429026 0.772383 0.210405
C40   C     C_R   0.160956 0.432058 0.852114 -0.284020
C41   C     C_R   0.320718 0.466783 0.882322 0.060335
C42   C     C_1   0.380221 0.473924 0.965157 0.007235
C43   C     C_1   0.432122 0.481994 0.034298 0.024613
C44   C     C_R   0.207346 0.458646 0.722986 -0.506563
H47   H     H_    0.080737 0.409418 0.890543 0.151675
H48   H     H_    0.276325 0.432649 0.149181 0.139586
H49   H     H_    0.162282 0.457918 0.662084 0.161339
S1    S     S_3+6 0.383560 0.700037 0.213578 -0.030665
O25   O     O_2   0.500338 0.681424 0.156920 -0.266143
O26   O     O_2   0.360342 0.634933 0.260248 -0.312273
O27   O     O_3   0.205559 0.705231 0.161142 -0.545072
H50   H     H_    0.175720 0.653284 0.127000 0.389226
S2    S     S_3+6 0.668821 0.808910 0.294725 -0.062702
O28   O     O_2   0.725228 0.749911 0.342362 -0.367891
O29   O     O_2   0.734905 0.800907 0.217815 -0.268513
O30   O     O_3   0.725183 0.901145 0.343414 -0.614586
H51   H     H_    0.745447 0.934248 0.302797 0.356993
S3    S     S_3+6 0.720251 0.820253 0.792730 0.008392
O31   O     O_2   0.882921 0.819639 0.765172 -0.278815
O32   O     O_2   0.705567 0.902285 0.829990 -0.257973
O33   O     O_3   0.700496 0.759095 0.858728 -0.478668
H52   H     H_    0.797373 0.775754 0.898489 0.375278
C45   C     C_1   0.788497 0.138867 0.776341 0.295402
N1    N     N_1   0.750385 0.119584 0.833209 -0.047560
C46   C     C_1   0.641328 0.555700 0.359408 0.306159
N2    N     N_1   0.673992 0.577621 0.425406 0.000103

loop_
_geom_bond_atom_site_label_1
_geom_bond_atom_site_label_2
_geom_bond_distance
_ccdc_geom_bond_type
O5    C6    1.398694 S    
C14   C45   1.467530 S    
C10   S1    1.808262 S    
C23   C24   1.398623 A    
C5    H10   1.103705 S    
C2    C3    1.535795 S    
C31   C32   1.400793 A    
C4    C5    1.520710 S    
O8    Ba1   2.731056 S    
C17   C18   1.500791 S    
S1    O25   1.501751 D    
C23   H39   1.079002 S    
C34   C35   1.413604 A    
H45   C37   1.083615 S    
C8    H18   1.110813 S    
C12   S3    1.786554 S    
C39   C44   1.399436 A    
P7    O22   1.750372 S    
C14   H31   1.110657 S    
C7    H15   1.106788 S    
C4    H8    1.111245 S    
C2    H3    1.086161 S    
C31   C46   1.417143 S    
C1    H22   1.111579 S    
P3    C36   1.864535 S    
O17   Ba2   2.731773 S    
C45   N1    1.157149 T    
P8    C24   1.836844 S    
P1    Ba1   3.389584 S    
P1    O1    1.545317 D    
O2    Ba2   2.864506 S    
C11   H24   1.111305 S    
C37   C41   1.406034 A    
C1    C10   1.542193 S    
P4    C25   1.859443 S    
C25   C26   1.406816 A    
C1    H1    1.102129 S    
O3    P6    1.781160 S    
S2    O30   1.682814 S    
P5    C39   1.852927 S    
C31   C36   1.398412 A    
C24   C30   1.398588 A    
Ba1   Ba2   4.571586 S    
Ba1   O16   2.767625 S    
O6    C10   1.423579 S    
C2    H4    1.108147 S    
P2    Ba1   3.387161 S    
C3    H5    1.096469 S    
C5    H11   1.110903 S    
C9    H20   1.105933 S    
C32   C33   1.404875 A    
C27   C29   1.498384 S    
C46   N2    1.147329 T    
C8    C9    1.522374 S    
C10   S2    1.745368 S    
C4    O15   1.395682 S    
P4    O13   1.593445 S    
C30   H44   1.081675 S    
C14   H30   1.110673 S    
P7    O21   1.575160 D    
C6    C7    1.521716 S    
C7    H16   1.110885 S    
C4    H7    1.106146 S    
C8    H17   1.106086 S    
C13   H29   1.111860 S    
C15   H32   1.111120 S    
C33   H48   1.083304 S    
Ba2   O21   2.811659 S    
Ba2   O20   2.767049 S    
O1    Ba1   2.844039 S    
P1    O2    1.593413 S    
C9    H21   1.110807 S    
C6    H13   1.109198 S    
Ba1   O20   2.931410 S    
P3    O11   1.754761 S    
C11   C12   1.527485 S    
C15   C16   1.519715 S    
P2    O10   1.750229 S    
C15   H33   1.111361 S    
H34   C16   1.109851 S    
P3    O9    1.548071 D    
P8    O24   1.749052 S    
C26   C27   1.416589 A    
O11   C2    1.409562 S    
C38   C44   1.398221 A    
C16   H35   1.109900 S    
O2    Ba1   2.937430 S    
C41   C42   1.454099 S    
O16   P7    1.755609 S    
S3    O32   1.502742 D    
C44   H49   1.082438 S    
C34   C43   1.453921 S    
C29   H37   1.081828 S    
P3    O8    1.762512 S    
P1    C22   1.846783 S    
Ba1   O13   2.863855 S    
C3    H6    1.108193 S    
S2    O28   1.496386 D    
C9    H19   1.110689 S    
C21   H38   1.084157 S    
C19   H41   1.081393 S    
O27   H50   0.991717 S    
S1    O27   1.682073 S    
C23   C27   1.411900 A    
C21   C22   1.328917 D    
C17   C22   1.321477 D    
C40   C41   1.411325 A    
C35   C36   1.407362 A    
C33   C34   1.409726 A    
P8    O23   1.546704 D    
C11   O22   1.399329 S    
O13   Ba2   2.938270 S    
C26   H42   1.083076 S    
P4    O12   1.545633 D    
P2    C32   1.865733 S    
C25   C30   1.396605 A    
O7    Ba1   2.811443 S    
C16   H36   1.110538 S    
O30   H51   0.990515 S    
S3    O33   1.682286 S    
S1    O26   1.491308 D    
C13   C14   1.526772 S    
C39   C40   1.408227 A    
O14   Ba2   2.821804 S    
P4    O15   1.747829 S    
P6    C18   1.872151 S    
O4    P6    1.537429 D    
C3    H27   1.096157 S    
P5    O18   1.546989 D    
C6    H12   1.105637 S    
C42   C43   1.214750 T    
C13   H28   1.112844 S    
C37   C38   1.402327 A    
C12   H25   1.109021 S    
P2    O7    1.522940 D    
C15   O24   1.404976 S    
C20   C21   1.504341 S    
C28   H40   1.081731 S    
C40   H47   1.083063 S    
O14   P8    1.742646 S    
P5    O19   1.748890 S    
C11   H23   1.111574 S    
P7    C38   1.842413 S    
O6    P6    1.784133 S    
O3    Ba1   2.822349 S    
S3    O31   1.503140 D    
O10   C8    1.396506 S    
O16   Ba2   2.930644 S    
C17   H43   1.079949 S    
C18   C19   1.504901 S    
C1    H2    1.111258 S    
C28   C29   1.358820 D    
P4    Ba2   3.390063 S    
P1    O5    1.750494 S    
S2    O29   1.503646 D    
C7    H14   1.110635 S    
P5    O17   1.751523 S    
C19   C20   1.356316 D    
O33   H52   0.990627 S    
H46   C35   1.083092 S    
C20   C28   1.503687 S    
O19   C13   1.407822 S    
P2    O20   1.548233 S    
C12   H26   1.111315 S    
O12   Ba2   2.844504 S    
C5    H9    1.110681 S    
