data_mof_unit_50457.cif
_audit_creation_date              2013-03-05T15:47:40-0500
_audit_creation_method            fapswitch 2.2
_symmetry_space_group_name_H-M    P1
_symmetry_Int_Tables_number       1
_space_group_crystal_system       triclinic
_cell_length_a                    8.646722
_cell_length_b                    19.008051
_cell_length_c                    23.064956
_cell_angle_alpha                 96.208654
_cell_angle_beta                  90.508494
_cell_angle_gamma                 93.584442
_cell_volume                      3760.82011766

loop_
_atom_site_label
_atom_site_type_symbol
_atom_site_description
_atom_site_fract_x
_atom_site_fract_y
_atom_site_fract_z
_atom_type_partial_charge
P1    P     P_3+3 0.067040 0.441110 0.370020 0.515713
O1    O     O_2   0.896730 0.461690 0.361000 -0.355760
O2    O     O_3   0.137170 0.462400 0.432040 -0.321746
O3    O     O_3   0.657500 0.588540 0.395070 -0.339186
O4    O     O_2   0.744724 0.517567 0.294884 -0.405212
O5    O     O_3   0.071082 0.348550 0.353106 -0.605774
O6    O     O_3   0.698615 0.646100 0.283649 -0.592421
C1    C     C_3   0.588937 0.725389 0.223232 0.351261
H1    H     H_    0.548086 0.679801 0.191822 0.132844
P2    P     P_3+3 0.640420 0.660110 0.543790 0.508652
P3    P     P_3+3 0.106206 0.717503 0.434064 0.523058
O7    O     O_2   0.816140 0.670340 0.526560 -0.363716
O8    O     O_3   0.069580 0.624410 0.423530 -0.313527
O9    O     O_2   0.004285 0.747765 0.483864 -0.308737
O10   O     O_3   0.643786 0.703537 0.616375 -0.675200
O11   O     O_3   0.035218 0.755388 0.374426 -0.566639
C2    C     C_3   0.129208 0.740572 0.325655 0.449021
H2    H     H_    0.220833 0.705006 0.334210 0.141687
C3    C     C_3   0.208936 0.810379 0.308862 -0.406731
H3    H     H_    0.289883 0.832270 0.344656 0.180893
C4    C     C_3   0.140551 0.698743 0.614479 0.340047
H4    H     H_    0.114261 0.674322 0.569157 0.127711
C5    C     C_3   0.028926 0.757383 0.630689 0.484493
H5    H     H_    0.056302 0.784349 0.675088 0.115783
H6    H     H_    0.911260 0.733590 0.630672 0.163021
Ba1   Ba    Ba6+2 0.850680 0.532880 0.472010 1.665749
C6    C     C_3   0.933201 0.308963 0.363045 0.460944
H7    H     H_    0.851445 0.339994 0.390595 0.107144
C7    C     C_3   0.979165 0.246886 0.395241 0.258071
H8    H     H_    0.874532 0.214456 0.406029 0.048128
H9    H     H_    0.044620 0.267892 0.435545 0.113041
C8    C     C_3   0.654224 0.662887 0.663571 1.343793
C9    C     C_3   0.652232 0.712148 0.720634 0.372124
H10   H     H_    0.638643 0.679962 0.757809 0.058478
H11   H     H_    0.555239 0.747498 0.721308 0.024632
P4    P     P_3+3 0.122660 0.558950 0.629980 0.580796
O12   O     O_2   0.292960 0.538340 0.639040 -0.291493
O13   O     O_3   0.052540 0.537650 0.567960 -0.407826
O14   O     O_3   0.532200 0.411510 0.604930 -0.391864
O15   O     O_3   0.120306 0.649745 0.655710 -0.554770
P5    P     P_3+3 0.092288 0.281989 0.572172 0.490461
O16   O     O_3   0.629030 0.416090 0.471500 -0.341424
O17   O     O_3   0.120120 0.375640 0.576470 -0.327281
O18   O     O_2   0.231248 0.253024 0.537745 -0.379465
O19   O     O_3   0.131095 0.259580 0.642955 -0.559630
Ba2   Ba    Ba6+2 0.339140 0.467180 0.527990 1.633553
P6    P     P_3+3 0.630382 0.572345 0.318246 0.501658
C10   C     C_3   0.594351 0.700816 0.284796 0.997802
H12   H     H_    0.506270 0.767295 0.220890 0.044519
O20   O     O_3   0.560670 0.583970 0.528500 -0.361135
C11   C     C_3   0.404488 0.325628 0.354559 0.485860
H13   H     H_    0.318087 0.284435 0.366864 0.180329
H14   H     H_    0.371353 0.379446 0.371436 0.084544
C12   C     C_3   0.407094 0.320992 0.288299 -0.984078
H15   H     H_    0.287253 0.321635 0.270761 0.268047
H16   H     H_    0.475734 0.367247 0.274275 0.231870
H17   H     H_    0.457315 0.271113 0.270048 0.278442
P7    P     P_3+3 0.549739 0.328293 0.453061 0.489845
O21   O     O_2   0.373560 0.329680 0.473470 -0.368507
O22   O     O_3   0.550430 0.313052 0.376628 -0.603621
H18   H     H_    0.281150 0.799534 0.269883 0.184144
C13   C     C_3   0.995591 0.254059 0.676768 0.554582
H19   H     H_    0.889666 0.256741 0.650117 -0.017123
C14   C     C_3   0.982387 0.179587 0.699867 -0.466364
H20   H     H_    0.088793 0.151618 0.689049 0.200718
H21   H     H_    0.886232 0.147692 0.675111 0.172339
P8    P     P_3+3 0.563227 0.421746 0.682661 0.433288
C15   C     C_3   0.522891 0.282859 0.693680 0.556404
O23   O     O_2   0.405050 0.429459 0.713132 -0.440291
O24   O     O_3   0.633035 0.341023 0.698696 -0.629419
H22   H     H_    0.404921 0.300024 0.701029 0.141736
H23   H     H_    0.646641 0.195038 0.721833 0.206689
C16   C     C_3   0.568679 0.235246 0.740982 -0.450205
H24   H     H_    0.636875 0.268278 0.776230 0.216316
H25   H     H_    0.937365 0.341953 0.055439 0.168758
H26   H     H_    0.866678 0.339545 0.953379 0.163357
C17   C     C_R   0.330369 0.515271 0.332978 -0.409490
C18   C     C_R   0.140147 0.551042 0.935769 -0.313363
C19   C     C_R   0.088666 0.550624 0.876746 0.605175
O25   O     O_2   0.127679 0.600318 0.849548 -0.488827
N1    N     N_R   0.992123 0.495266 0.849956 -0.165661
C20   C     C_R   0.948302 0.438707 0.881047 0.494430
O26   O     O_2   0.871541 0.387582 0.856892 -0.634315
C21   C     C_R   0.991537 0.439211 0.940650 0.017439
C22   C     C_R   0.087759 0.495870 0.968303 -0.086640
C23   C     C_R   0.243898 0.605114 0.962732 0.753319
C24   C     C_R   0.294385 0.605496 0.021203 -0.007281
C25   C     C_R   0.230869 0.552821 0.056104 -0.152031
C26   C     C_R   0.131334 0.497083 0.028551 -0.045002
C27   C     C_R   0.940271 0.384017 0.973263 -0.146804
C28   C     C_R   0.981103 0.385436 0.032216 -0.124112
C29   C     C_R   0.075871 0.441831 0.060874 -0.012806
C30   C     C_R   0.117201 0.443258 0.120863 0.518124
N2    N     N_R   0.206647 0.499957 0.149503 -0.159204
C31   C     C_R   0.261514 0.554240 0.117378 0.551590
C32   C     C_2   0.780810 0.491794 0.774962 0.097132
C33   C     C_3   0.731311 0.489449 0.710766 0.254584
C34   C     C_1   0.008885 0.510796 0.685635 0.362979
C35   C     C_2   0.053351 0.508567 0.741160 -0.312844
C36   C     C_2   0.936925 0.497033 0.789422 0.139124
C37   C     C_R   0.400095 0.524932 0.232471 -0.227771
C38   C     C_R   0.438044 0.534290 0.292259 0.322327
C39   C     C_R   0.183282 0.486623 0.315326 0.249642
C40   C     C_R   0.139415 0.483259 0.255267 -0.242601
C41   C     C_R   0.248000 0.502347 0.212344 0.143518
O27   O     O_2   0.074977 0.393219 0.147172 -0.609240
O28   O     O_2   0.333949 0.605371 0.142644 -0.654154
C42   C     C_2   0.871343 0.478635 0.671318 -0.228777
H27   H     H_    0.489448 0.536946 0.201850 0.165974
H28   H     H_    0.176103 0.513337 0.752023 0.191906
H29   H     H_    0.021881 0.466330 0.242175 0.179876
H30   H     H_    0.364761 0.519363 0.378507 0.196669
C43   C     C_R   0.406047 0.697635 0.470632 0.430707
C44   C     C_R   0.548782 0.719963 0.497556 0.196307
C45   C     C_R   0.601094 0.792096 0.500894 -0.361510
C46   C     C_R   0.507559 0.842514 0.479853 0.073558
C47   C     C_R   0.359073 0.819268 0.457079 -0.391972
C48   C     C_R   0.308498 0.747174 0.453094 0.070898
C49   C     C_R   0.537943 0.960988 0.439685 -0.374664
C50   C     C_R   0.589607 0.032988 0.444561 0.757743
C51   C     C_R   0.657922 0.066426 0.496991 -0.043521
C52   C     C_R   0.670092 0.026083 0.544289 -0.243816
C53   C     C_R   0.624054 0.953484 0.538572 -0.142017
C54   C     C_R   0.558197 0.919795 0.486018 0.128642
C55   C     C_R   0.868248 0.166830 0.522928 -0.019501
C56   C     C_R   0.907183 0.241403 0.534964 -0.009314
C57   C     C_R   0.662687 0.265176 0.489067 0.102937
C58   C     C_R   0.613507 0.193535 0.486514 -0.324876
C59   C     C_R   0.714084 0.143359 0.503157 0.055632
C60   C     C_R   0.807718 0.288407 0.513659 0.325569
H31   H     H_    0.498972 0.176436 0.469045 0.210815
H32   H     H_    0.484899 0.936971 0.399040 0.166700
H33   H     H_    0.710696 0.809351 0.522543 0.224064
H34   H     H_    0.713106 0.051109 0.586132 0.153454
H35   H     H_    0.636561 0.924021 0.575792 0.147403
H36   H     H_    0.279922 0.857590 0.445449 0.191805
C61   C     C_3   0.644272 0.759518 0.334915 -0.397651
C62   C     C_3   0.660599 0.835893 0.319495 -0.952514
H37   H     H_    0.749058 0.842074 0.285749 0.302545
H38   H     H_    0.548212 0.852918 0.304372 0.259325
H39   H     H_    0.700064 0.871390 0.358868 0.275145
H40   H     H_    0.559208 0.757657 0.370429 0.194103
H41   H     H_    0.755367 0.747388 0.354525 0.242284
F1    F     F_    0.029897 0.807156 0.591270 -0.688365
C63   C     C_3   0.854690 0.277907 0.304548 -0.348692
C64   C     C_3   0.808475 0.334056 0.266720 -0.766705
H42   H     H_    0.740256 0.373787 0.291939 0.280543
H43   H     H_    0.913680 0.359930 0.249567 0.273737
H44   H     H_    0.737095 0.308671 0.229015 0.238259
H45   H     H_    0.933954 0.243275 0.278718 0.251466
H46   H     H_    0.749365 0.244397 0.313340 0.203619
F2    F     F_    0.074108 0.203363 0.361614 -0.673605
F3    F     F_    0.791341 0.630070 0.663707 -0.783013
F4    F     F_    0.529112 0.615071 0.663708 -0.772669
F5    F     F_    0.732282 0.749404 0.204863 -0.714870
F6    F     F_    0.788836 0.754018 0.728733 -0.680988
F7    F     F_    0.445105 0.676741 0.295147 -0.834195
C65   C     C_3   0.993545 0.319335 0.722831 -0.277724
C66   C     C_3   0.123009 0.326847 0.768958 -0.834067
H47   H     H_    0.078529 0.312905 0.811408 0.256078
H48   H     H_    0.213700 0.291246 0.755961 0.237541
H49   H     H_    0.173989 0.382122 0.775731 0.263398
H50   H     H_    0.004140 0.366355 0.698627 0.180423
H51   H     H_    0.880776 0.320399 0.745021 0.208600
C67   C     C_3   0.957412 0.175787 0.765516 -0.300869
C68   C     C_3   0.908582 0.100270 0.777682 -0.862300
H52   H     H_    0.798748 0.081472 0.754087 0.257807
H53   H     H_    0.000184 0.063923 0.763607 0.270605
H54   H     H_    0.890389 0.098990 0.825168 0.255395
H55   H     H_    0.067568 0.191295 0.789873 0.216509
H56   H     H_    0.867987 0.211227 0.782696 0.215856
C69   C     C_3   0.529290 0.244106 0.631282 -0.313976
C70   C     C_3   0.448009 0.169883 0.623542 -0.913456
H57   H     H_    0.333843 0.170354 0.644056 0.272333
H58   H     H_    0.430572 0.151531 0.576551 0.275496
H59   H     H_    0.518031 0.131271 0.643086 0.248118
H60   H     H_    0.475601 0.276864 0.600702 0.250623
H61   H     H_    0.650828 0.239280 0.617984 0.151297
C71   C     C_3   0.431994 0.199352 0.771126 -0.354215
C72   C     C_3   0.481655 0.135928 0.800320 -0.829397
H62   H     H_    0.517678 0.093861 0.766878 0.255537
H63   H     H_    0.579280 0.152251 0.831512 0.264810
H64   H     H_    0.382682 0.113859 0.824492 0.252201
H65   H     H_    0.387383 0.238096 0.805475 0.207355
H66   H     H_    0.336494 0.180844 0.739981 0.212664
C73   C     C_3   0.026902 0.700325 0.277103 -0.316662
C74   C     C_3   0.109569 0.683238 0.220000 -0.838125
H67   H     H_    0.133796 0.731725 0.197978 0.258250
H68   H     H_    0.218799 0.659103 0.229049 0.309599
H69   H     H_    0.035290 0.644958 0.190439 0.277467
H70   H     H_    0.983868 0.649334 0.292451 0.234213
H71   H     H_    0.927785 0.731800 0.269495 0.273467
C75   C     C_3   0.422628 0.661124 0.042490 -0.221115
C76   C     C_3   0.356613 0.730036 0.068620 -0.737584
H72   H     H_    0.293516 0.754295 0.034460 0.268884
H73   H     H_    0.275550 0.720463 0.104303 0.264587
H74   H     H_    0.452636 0.767962 0.086431 0.239388
H75   H     H_    0.504041 0.641149 0.073309 0.208662
H76   H     H_    0.498464 0.673391 0.005752 0.205742
F8    F     F_    0.299909 0.657855 0.931711 -0.664278
C77   C     C_3   0.654850 0.500049 0.820563 -0.362888
C78   C     C_3   0.675432 0.569823 0.860414 -0.813026
H77   H     H_    0.767077 0.567332 0.893866 0.240159
H78   H     H_    0.705393 0.614685 0.834730 0.276736
H79   H     H_    0.565713 0.580002 0.883639 0.268795
H80   H     H_    0.540507 0.500065 0.798533 0.220248
H81   H     H_    0.646389 0.454845 0.847052 0.231364
C79   C     C_3   0.834337 0.451835 0.610451 -0.379478
C80   C     C_3   0.740259 0.507298 0.587381 -0.360868
H82   H     H_    0.644917 0.524472 0.614971 0.243552
H83   H     H_    0.807040 0.556161 0.581278 0.242799
H84   H     H_    0.684548 0.485157 0.548165 0.279915
H85   H     H_    0.928552 0.441875 0.582674 0.282190
H86   H     H_    0.784210 0.396862 0.607695 0.201577
F9    F     F_    0.575533 0.069467 0.397550 -0.698500
C81   C     C_3   0.996148 0.115701 0.511601 -0.224344
C82   C     C_3   0.062063 0.089671 0.566017 -0.896524
H87   H     H_    0.123120 0.134313 0.592449 0.281653
H88   H     H_    0.970934 0.065293 0.592094 0.255180
H89   H     H_    0.147262 0.049599 0.553421 0.261084
H90   H     H_    0.954742 0.068532 0.481554 0.194852
H91   H     H_    0.091533 0.141283 0.487855 0.217448
F10   F     F_    0.864448 0.354855 0.507189 -0.708086
C83   C     C_3   0.095697 0.866734 0.297778 -0.269428
C84   C     C_3   0.182767 0.936797 0.288305 -0.818147
H92   H     H_    0.260685 0.929300 0.250397 0.260357
H93   H     H_    0.098528 0.976281 0.279560 0.268839
H94   H     H_    0.252544 0.957727 0.327810 0.268738
H95   H     H_    0.018354 0.876141 0.335670 0.239286
H96   H     H_    0.023727 0.848465 0.258271 0.227586
F11   F     F_    0.353398 0.628614 0.467537 -0.667551
C85   C     C_3   0.309364 0.727900 0.620944 -0.368471
C86   C     C_3   0.347111 0.805489 0.611216 -0.883107
H97   H     H_    0.300651 0.816807 0.568771 0.306544
H98   H     H_    0.298911 0.841650 0.646574 0.274784
H99   H     H_    0.474524 0.816766 0.612239 0.261707
H100  H     H_    0.350933 0.721808 0.665460 0.225172
H101  H     H_    0.372096 0.693014 0.590060 0.211825

loop_
_geom_bond_atom_site_label_1
_geom_bond_atom_site_label_2
_geom_bond_distance
_ccdc_geom_bond_type
C69   H60   1.107267 S    
C67   H56   1.105221 S    
C76   H73   1.108359 S    
C61   H40   1.107677 S    
N2    C41   1.485001 S    
C79   H85   1.054655 S    
Ba2   O21   2.809601 S    
C6    C7    1.531228 S    
C15   C69   1.547317 S    
C16   H24   1.112510 S    
C47   H36   1.082732 S    
C3    H3    1.106187 S    
C42   C79   1.466196 S    
C12   H17   1.110426 S    
C83   C84   1.525988 S    
O16   P7    1.770383 S    
C63   C64   1.519387 S    
C9    F6    1.381977 S    
C53   C54   1.406387 A    
C68   H53   1.111095 S    
C49   C54   1.407337 A    
C35   H28   1.084384 S    
C82   H89   1.110579 S    
O4    P6    1.539101 D    
C67   C68   1.526740 S    
C55   C56   1.432909 A    
C78   H78   1.108879 S    
C10   C61   1.555498 S    
C29   C30   1.422945 A    
C60   F10   1.350112 S    
C64   H42   1.106072 S    
P1    O2    1.551285 S    
P2    O10   1.783909 S    
Ba1   O20   3.002959 S    
O16   Ba2   3.002069 S    
C55   C81   1.523296 S    
C76   H74   1.110360 S    
C56   C60   1.401057 A    
C37   H27   1.081858 S    
C45   C46   1.413730 A    
C34   C35   1.339700 D    
O19   C13   1.417955 S    
C80   H84   1.054481 S    
C34   C42   1.324996 D    
C46   C47   1.409435 A    
C2    H2    1.103034 S    
P1    O1    1.564968 D    
C77   C78   1.529514 S    
C73   H70   1.111144 S    
C1    F5    1.380049 S    
C81   H90   1.110603 S    
C52   H34   1.080864 S    
C74   H69   1.110549 S    
C13   C14   1.563548 S    
C80   H83   1.085617 S    
C33   C42   1.531800 S    
C31   O28   1.213005 D    
C66   H47   1.107645 S    
C1    H1    1.105399 S    
C78   H79   1.110849 S    
C77   H80   1.107642 S    
C13   C65   1.544849 S    
P4    Ba2   3.417489 S    
C7    H8    1.108099 S    
C86   H97   1.102482 S    
P1    C39   1.870803 S    
C63   H45   1.112135 S    
P2    C44   1.849199 S    
C72   H64   1.110568 S    
C65   H51   1.105543 S    
C43   C48   1.391906 A    
C18   C23   1.408717 A    
C76   H72   1.110621 S    
C61   H41   1.105924 S    
C25   C31   1.432669 A    
P7    C57   1.852166 S    
P6    C38   1.840243 S    
C4    H4    1.112433 S    
C58   C59   1.410769 A    
C85   H101  1.091344 S    
P5    O17   1.773247 S    
C23   F8    1.360912 S    
C17   C38   1.387970 A    
C21   C27   1.407653 A    
O8    Ba1   2.811841 S    
P2    O7    1.579500 D    
C40   C41   1.430002 A    
O17   Ba2   2.812620 S    
C72   H63   1.111140 S    
C75   H75   1.108116 S    
C43   F11   1.355744 S    
C64   H43   1.103838 S    
C70   H58   1.108088 S    
Ba1   Ba2   4.687943 S    
C37   C41   1.415920 A    
C84   H93   1.110410 S    
C12   H16   1.108865 S    
O12   Ba2   2.808185 S    
O13   Ba2   2.995648 S    
C78   H77   1.107805 S    
C11   H13   1.109277 S    
C37   C38   1.404493 A    
C32   C77   1.524176 S    
C21   C22   1.410270 A    
C24   C75   1.523219 S    
C80   H82   1.090492 S    
C79   C80   1.509034 S    
P3    O9    1.537964 D    
C19   N1    1.387909 Am   
C22   C26   1.433943 A    
C23   C24   1.412957 A    
O11   C2    1.407651 S    
C45   H33   1.082745 S    
C15   C16   1.554619 S    
C70   H57   1.098605 S    
C4    C85   1.528781 S    
N1    C20   1.390785 Am   
P1    O5    1.763049 S    
O7    Ba1   2.809338 S    
P8    O23   1.551107 D    
O6    P6    1.759892 S    
C65   C66   1.526898 S    
C17   H30   1.082180 S    
C1    C10   1.543282 S    
O10   C8    1.406792 S    
C14   C67   1.540193 S    
C83   H96   1.110256 S    
C30   O27   1.221301 D    
C64   H44   1.110217 S    
P3    O11   1.744134 S    
C50   F9    1.357257 S    
O5    C6    1.403613 S    
P4    O15   1.764703 S    
C2    C73   1.527860 S    
C6    C63   1.546337 S    
C32   C33   1.532874 S    
C13   H19   1.105432 S    
C66   H48   1.090594 S    
C84   H92   1.110962 S    
C77   H81   1.106069 S    
C66   H49   1.108146 S    
O1    Ba1   2.807410 S    
C30   N2    1.388802 Am   
C81   C82   1.517169 S    
C26   C29   1.414772 A    
C86   H98   1.109890 S    
C51   C52   1.406491 A    
C63   H46   1.111281 S    
C62   H38   1.108360 S    
C65   H50   1.103376 S    
C68   H54   1.110520 S    
O14   Ba2   2.762275 S    
C8    F4    1.368996 S    
C18   C22   1.408877 A    
C20   O26   1.221064 D    
C20   C21   1.420323 A    
C4    C5    1.537723 S    
C85   H100  1.105098 S    
P5    O18   1.543515 D    
C19   O25   1.221334 D    
P7    O21   1.599378 D    
C2    C3    1.545136 S    
C84   H94   1.111026 S    
P2    O20   1.566838 S    
C58   H31   1.083112 S    
C28   C29   1.408818 A    
C69   C70   1.528267 S    
Ba1   O16   2.839615 S    
C43   C44   1.397452 A    
C61   C62   1.529995 S    
C70   H59   1.109392 S    
C69   H61   1.103895 S    
C67   H55   1.108742 S    
C12   H15   1.110304 S    
P4    O12   1.565210 D    
C79   H86   1.101043 S    
C46   C54   1.497700 S    
C53   H35   1.082686 S    
C18   C19   1.427576 A    
O14   P8    1.798244 S    
P5    C56   1.889822 S    
O2    Ba1   2.994920 S    
Ba1   O13   2.796554 S    
C3    C83   1.535410 S    
C51   C59   1.503170 S    
H23   C16   1.109186 S    
C62   H39   1.108857 S    
C49   H32   1.082234 S    
C40   H29   1.077126 S    
O3    Ba1   2.762829 S    
C49   C50   1.405208 A    
C44   C45   1.410481 A    
C71   H66   1.104621 S    
N1    C36   1.476018 S    
H25   C28   1.083210 S    
C71   C72   1.525248 S    
C82   H88   1.104724 S    
C10   F7    1.373692 S    
Ba2   O20   2.838966 S    
O2    Ba2   2.797125 S    
C35   C36   1.531576 S    
C11   C12   1.521722 S    
O6    C10   1.416635 S    
P8    O24   1.757861 S    
P4    O13   1.551277 S    
C82   H87   1.093998 S    
C57   C60   1.397600 A    
C74   H67   1.109194 S    
C7    H9    1.107258 S    
C75   H76   1.111692 S    
C83   H95   1.111114 S    
C8    C9    1.531396 S    
C7    F2    1.384689 S    
P3    O8    1.768081 S    
P2    Ba1   3.410594 S    
C27   C28   1.398802 A    
P1    Ba1   3.416884 S    
C4    O15   1.405919 S    
C3    H18   1.107546 S    
C15   H22   1.099282 S    
C32   C36   1.382507 D    
C14   H20   1.108139 S    
C85   C86   1.531210 S    
C9    H11   1.106129 S    
C9    H10   1.108853 S    
C5    H6    1.087252 S    
C73   H71   1.098813 S    
N2    C31   1.396108 Am   
C5    F1    1.380943 S    
C86   H99   1.108684 S    
C81   H91   1.110023 S    
C74   H68   1.103378 S    
C17   C39   1.391432 A    
C62   H37   1.106247 S    
P8    C33   1.938455 S    
C5    H5    1.111059 S    
C8    F3    1.373913 S    
C16   C71   1.536916 S    
C71   H65   1.110654 S    
C55   C59   1.433440 A    
C25   C26   1.413411 A    
C24   C25   1.437202 A    
C15   O24   1.407644 S    
C75   C76   1.527628 S    
H26   C27   1.083298 S    
C39   C40   1.426682 A    
C52   C53   1.403984 A    
P5    O19   1.765802 S    
C50   C51   1.410464 A    
P4    C34   1.901964 S    
C11   O22   1.400482 S    
C11   H14   1.110216 S    
C73   C74   1.518014 S    
C47   C48   1.405236 A    
P3    C48   1.838428 S    
P7    O22   1.755491 S    
C1    H12   1.108225 S    
C68   H52   1.110009 S    
C72   H62   1.110570 S    
C57   C58   1.395874 A    
C14   H21   1.112884 S    
C6    H7    1.109274 S    
O3    P6    1.776273 S    
