data_mof_unit_46149.cif
_audit_creation_date              2012-12-11T17:36:07-0500
_audit_creation_method            fapswitch 2.2
_symmetry_space_group_name_H-M    P1
_symmetry_Int_Tables_number       1
_space_group_crystal_system       triclinic
_cell_length_a                    25.916138
_cell_length_b                    6.891659
_cell_length_c                    21.646275
_cell_angle_alpha                 90.001114
_cell_angle_beta                  96.01212
_cell_angle_gamma                 90.001664
_cell_volume                      3844.87228912

loop_
_atom_site_label
_atom_site_type_symbol
_atom_type_description
_atom_site_fract_x
_atom_site_fract_y
_atom_site_fract_z
_atom_type_partial_charge
O1    O     O_R   0.208650 0.594520 0.175450 -0.539761
O2    O     O_R   0.791350 0.405480 0.824550 -0.532565
O3    O     O_R   0.291350 0.094520 0.324550 -0.539742
O4    O     O_R   0.708650 0.905480 0.675450 -0.532563
O5    O     O_R   0.192980 0.260780 0.300160 -0.540413
O6    O     O_R   0.807020 0.739220 0.699840 -0.539221
O7    O     O_R   0.307020 0.760780 0.199840 -0.540401
O8    O     O_R   0.692980 0.239220 0.800160 -0.539223
C1    C     C_R   0.178628 0.432945 0.318225 0.685079
C2    C     C_R   0.821212 0.567090 0.681545 0.681873
C3    C     C_R   0.321372 0.932946 0.181775 0.685030
C4    C     C_R   0.678788 0.067089 0.818455 0.681856
O9    O     O_R   0.202550 0.264660 0.174420 -0.535548
O10   O     O_R   0.797450 0.735340 0.825580 -0.540470
O11   O     O_R   0.297450 0.764660 0.325580 -0.535538
O12   O     O_R   0.702550 0.235340 0.674420 -0.540461
O13   O     O_R   0.300990 0.096480 0.197920 -0.540567
O14   O     O_R   0.699010 0.903520 0.802080 -0.540419
O15   O     O_R   0.199010 0.596480 0.302080 -0.540561
O16   O     O_R   0.800990 0.403520 0.697920 -0.540420
C5    C     C_R   0.191075 0.433153 0.151108 0.736564
C6    C     C_R   0.809152 0.567239 0.848997 0.717844
C7    C     C_R   0.308926 0.933162 0.348891 0.736534
C8    C     C_R   0.690847 0.067230 0.651004 0.717850
O17   O     O_3   0.282290 0.427760 0.257860 -0.366639
O18   O     O_3   0.717710 0.572240 0.742140 -0.364412
O19   O     O_3   0.217710 0.927760 0.242140 -0.366648
O20   O     O_3   0.782290 0.072240 0.757860 -0.364417
V1    V     V_3+5 0.244010 0.152080 0.248540 1.398779
V2    V     V_3+5 0.755990 0.847920 0.751460 1.398673
V3    V     V_3+5 0.255990 0.652080 0.251460 1.398790
V4    V     V_3+5 0.744010 0.347920 0.748540 1.398672
C9    C     C_R   0.656530 0.070647 0.591638 -0.182258
C10   C     C_R   0.342892 0.937837 0.408092 -0.139277
C11   C     C_R   0.843481 0.570692 0.908355 -0.182251
C12   C     C_R   0.157117 0.437767 0.091899 -0.139321
C13   C     C_R   0.638306 0.233392 0.492517 0.375001
C14   C     C_R   0.352804 0.851242 0.517742 0.401540
C15   C     C_R   0.861763 0.733732 0.007418 0.374968
C16   C     C_R   0.147173 0.350430 0.982308 0.401541
C17   C     C_R   0.671254 0.193698 0.545605 -0.230782
C18   C     C_R   0.321729 0.878147 0.461389 -0.327408
C19   C     C_R   0.828782 0.693858 0.954372 -0.230721
C20   C     C_R   0.178258 0.377567 0.038641 -0.327373
C21   C     C_R   0.607438 0.978479 0.583056 0.230945
C22   C     C_R   0.396484 0.979221 0.410745 0.235873
C23   C     C_R   0.892567 0.478495 0.916929 0.230982
C24   C     C_R   0.103542 0.479453 0.089218 0.235894
C25   C     C_R   0.569080 0.044330 0.534362 -0.020935
C26   C     C_R   0.428187 0.972878 0.469250 -0.055027
C27   C     C_R   0.930951 0.544430 0.965588 -0.020893
C28   C     C_R   0.071834 0.472846 0.030719 -0.055069
C29   C     C_R   0.585544 0.173642 0.488405 -0.067618
C30   C     C_R   0.406831 0.891655 0.521537 0.003372
C31   C     C_R   0.914522 0.673991 0.011499 -0.067734
C32   C     C_R   0.093160 0.391116 0.978487 0.003383
C33   C     C_R   0.514825 0.992239 0.530524 0.033060
C34   C     C_R   0.480709 0.042341 0.477027 0.023970
C35   C     C_R   0.985197 0.492179 0.969439 0.033003
C36   C     C_R   0.019332 0.542496 0.022900 0.023900
C37   C     C_R   0.497489 0.183025 0.436940 -0.171886
C38   C     C_R   0.492257 0.909718 0.580704 -0.246220
C39   C     C_R   0.002596 0.683531 0.062897 -0.171740
C40   C     C_R   0.007741 0.409222 0.919310 -0.246319
C41   C     C_R   0.548454 0.250064 0.442027 0.247731
C42   C     C_R   0.439949 0.857333 0.576799 0.276990
C43   C     C_R   0.951642 0.750661 0.057799 0.247679
C44   C     C_R   0.060031 0.356567 0.923251 0.277000
H1    H     H_    0.280604 0.845536 0.458411 0.120557
H2    H     H_    0.709738 0.257462 0.550415 0.151890
H3    H     H_    0.219370 0.344709 0.041644 0.120578
H4    H     H_    0.790300 0.757625 0.949574 0.151883
H5    H     H_    0.469757 0.256943 0.404431 0.165284
H6    H     H_    0.513467 0.894902 0.625841 0.172405
H7    H     H_    0.030355 0.757598 0.095337 0.165292
H8    H     H_    0.986533 0.394218 0.874180 0.172490
C45   C     C_R   0.428461 0.793673 0.081015 -0.132540
C46   C     C_R   0.573041 0.206569 0.921148 -0.129837
C47   C     C_R   0.071541 0.293667 0.418989 -0.132528
C48   C     C_R   0.926959 0.706574 0.578850 -0.129826
H9    H     H_    0.447037 0.663000 0.066496 0.105742
H10   H     H_    0.554985 0.337363 0.936423 0.105502
H11   H     H_    0.052967 0.162993 0.433513 0.105745
H12   H     H_    0.945016 0.837369 0.563575 0.105504
C49   C     C_R   0.389073 0.778739 0.120790 -0.171319
C50   C     C_R   0.612146 0.221529 0.880986 -0.165411
C51   C     C_R   0.110928 0.278732 0.379215 -0.171341
C52   C     C_R   0.887854 0.721535 0.619013 -0.165401
H13   H     H_    0.378200 0.636258 0.136029 0.118232
H14   H     H_    0.623368 0.364168 0.866269 0.118618
H15   H     H_    0.121804 0.136250 0.363980 0.118229
H16   H     H_    0.876633 0.864174 0.633729 0.118616
C53   C     C_R   0.363987 0.945990 0.140313 -0.054940
C54   C     C_R   0.636501 0.054087 0.860397 -0.057289
C55   C     C_R   0.136012 0.445986 0.359686 -0.054947
C56   C     C_R   0.863499 0.554092 0.639602 -0.057290
C57   C     C_R   0.379753 0.128157 0.119147 -0.169133
C58   C     C_R   0.620392 0.871751 0.881053 -0.165280
C59   C     C_R   0.120243 0.628155 0.380846 -0.169111
C60   C     C_R   0.879607 0.371755 0.618947 -0.165279
H17   H     H_    0.361572 0.260476 0.132929 0.121866
H18   H     H_    0.638043 0.739292 0.866503 0.122854
H19   H     H_    0.138421 0.760475 0.367060 0.121864
H20   H     H_    0.861956 0.239296 0.633498 0.122854
C61   C     C_R   0.419019 0.142595 0.079501 -0.136062
C62   C     C_R   0.581407 0.857288 0.921086 -0.132504
C63   C     C_R   0.080977 0.642593 0.420492 -0.136065
C64   C     C_R   0.918592 0.357292 0.578914 -0.132496
H21   H     H_    0.430105 0.284457 0.063842 0.105829
H22   H     H_    0.569990 0.715272 0.936253 0.105819
H23   H     H_    0.069889 0.784457 0.436146 0.105830
H24   H     H_    0.930008 0.215275 0.563747 0.105821
C65   C     C_R   0.443553 0.975734 0.060014 0.131238
C66   C     C_R   0.557523 0.024301 0.941513 0.130375
C67   C     C_R   0.056446 0.475731 0.439985 0.131231
C68   C     C_R   0.942477 0.524305 0.558487 0.130374
C69   C     C_1   0.483827 0.992357 0.018305 -0.056622
C70   C     C_1   0.517352 0.007600 0.983361 -0.055666
C71   C     C_1   0.016172 0.492356 0.481694 -0.056614
C72   C     C_1   0.982647 0.507602 0.516638 -0.055658
N1    N     N_2   0.560372 0.412756 0.405439 -0.497807
H25   H     H_    0.544367 0.540212 0.419567 0.254514
C73   C     C_3   0.552447 0.385541 0.338770 -0.542427
H26   H     H_    0.570306 0.508428 0.315577 0.207408
H27   H     H_    0.510403 0.381913 0.322313 0.185888
H28   H     H_    0.571050 0.248748 0.325340 0.204438
N2    N     N_2   0.421791 0.762798 0.628870 -0.452697
H29   H     H_    0.436810 0.819320 0.671114 0.245774
C74   C     C_3   0.426394 0.553580 0.627175 -0.454202
H30   H     H_    0.408771 0.489626 0.667104 0.197693
H31   H     H_    0.467930 0.510409 0.630224 0.165699
H32   H     H_    0.405701 0.494747 0.583603 0.210616
N3    N     N_2   0.939763 0.913676 0.094271 -0.497859
H33   H     H_    0.955741 0.041008 0.080001 0.254516
C75   C     C_3   0.947760 0.887058 0.160962 -0.542483
H34   H     H_    0.929912 0.010137 0.184072 0.207415
H35   H     H_    0.989815 0.883617 0.177362 0.185842
H36   H     H_    0.929190 0.750369 0.174544 0.204467
N4    N     N_2   0.078151 0.261505 0.871252 -0.452660
H37   H     H_    0.063159 0.317803 0.828966 0.245789
C76   C     C_3   0.073456 0.052333 0.873097 -0.454265
H38   H     H_    0.091050 0.987945 0.833214 0.197692
H39   H     H_    0.031901 0.009424 0.870081 0.165705
H40   H     H_    0.094124 0.993694 0.916711 0.210585
N5    N     N_2   0.419326 0.004150 0.354049 -0.536712
H41   H     H_    0.396360 0.073692 0.319068 0.244032
C77   C     C_3   0.444117 0.832208 0.332709 -0.544869
H42   H     H_    0.463172 0.867557 0.290490 0.198038
H43   H     H_    0.414854 0.716439 0.321022 0.188861
H44   H     H_    0.474265 0.778447 0.368919 0.210166
N6    N     N_2   0.598396 0.813542 0.620096 -0.548977
H45   H     H_    0.614870 0.817990 0.665491 0.253070
C78   C     C_3   0.605371 0.629288 0.590105 -0.465093
H46   H     H_    0.594575 0.509436 0.620543 0.177783
H47   H     H_    0.646596 0.610905 0.581411 0.206979
H48   H     H_    0.580130 0.620170 0.545416 0.204989
N7    N     N_2   0.080709 0.504915 0.145898 -0.536713
H49   H     H_    0.103697 0.574603 0.180829 0.244144
C79   C     C_3   0.055867 0.333257 0.167360 -0.545071
H50   H     H_    0.036825 0.369018 0.209556 0.198075
H51   H     H_    0.085094 0.217428 0.179127 0.188808
H52   H     H_    0.025700 0.279379 0.131190 0.210305
N8    N     N_2   0.901579 0.313480 0.879910 -0.549058
H53   H     H_    0.885112 0.317911 0.834512 0.253087
C80   C     C_3   0.894561 0.129295 0.909921 -0.464985
H54   H     H_    0.905337 0.009366 0.879500 0.177761
H55   H     H_    0.853331 0.111046 0.918611 0.207024
H56   H     H_    0.919797 0.120177 0.954614 0.205025
O21   O     O_3   0.659090 0.334961 0.446310 -0.622493
H57   H     H_    0.647177 0.269759 0.406574 0.317834
O22   O     O_3   0.330494 0.789818 0.569659 -0.614886
H58   H     H_    0.292786 0.768505 0.558825 0.290933
O23   O     O_3   0.841011 0.835464 0.053616 -0.622515
H59   H     H_    0.852990 0.770520 0.093374 0.317841
O24   O     O_3   0.169459 0.288483 0.930433 -0.614879
H60   H     H_    0.207166 0.267188 0.941270 0.290935

loop_
_geom_bond_atom_site_label_1
_geom_bond_atom_site_label_2
_ccdc_geom_bond_type
O17   V3    S    
C75   H36   S    
C59   H19   S    
O22   H58   S    
C52   C56   A    
O1    C5    A    
C80   H54   S    
C47   C67   A    
O19   V1    S    
C9    C21   A    
O21   H57   S    
O3    C7    A    
C77   H42   S    
C10   C18   A    
C60   H20   S    
C64   C68   A    
C15   O23   S    
C11   C23   A    
C47   C51   A    
N5    H41   S    
C25   C33   A    
C73   H26   S    
C5    C12   S    
O23   H59   S    
O7    C3    A    
C6    C11   S    
C35   C40   A    
N7    H49   S    
C62   C66   A    
C36   C39   A    
C75   H34   S    
C40   C44   A    
O9    V1    S    
N8    C80   S    
C14   C18   A    
C51   H15   S    
C76   H39   S    
C62   H22   S    
O4    C8    A    
C55   C59   A    
C73   H27   S    
C22   N5    S    
C54   C58   A    
C23   N8    S    
O1    V3    S    
O13   V1    S    
C42   N2    S    
C20   H3    S    
O2    V4    S    
C71   C72   T    
O3    V1    S    
C50   C54   A    
C49   C53   A    
C1    O15   A    
C15   C31   A    
C48   C68   A    
C2    O16   A    
C16   C32   A    
C51   C55   A    
O2    C6    A    
N6    H45   S    
C79   H51   S    
C10   C22   A    
C21   C25   A    
C78   H47   S    
C11   C19   A    
C1    C55   S    
C16   C20   A    
C48   H12   S    
C74   H32   S    
C13   C29   A    
C46   C50   A    
C34   C37   A    
O11   C7    A    
O15   V3    S    
C35   C36   A    
O12   C8    A    
C4    C54   S    
C80   H55   S    
C46   C66   A    
C59   C63   A    
O10   V2    S    
C45   C65   A    
N5    C77   S    
O5    V1    S    
O17   V1    S    
C39   C43   A    
C60   C64   A    
O7    V3    S    
C38   C42   A    
O19   V3    S    
C26   C34   A    
C52   H16   S    
C14   O22   S    
C77   H44   S    
C50   H14   S    
C76   H40   S    
C49   H13   S    
O18   V4    S    
C73   H28   S    
C15   C19   A    
C37   H5    S    
C2    C56   S    
C58   H18   S    
C18   H1    S    
C68   C72   S    
C21   N6    S    
O8    V4    S    
N7    C79   S    
N2    C74   S    
O5    C1    A    
C37   C41   A    
C46   H10   S    
C31   C43   A    
C79   H50   S    
C14   C30   A    
O20   V4    S    
O8    C4    A    
C7    C10   S    
C40   H8    S    
C79   H52   S    
O9    C5    A    
C26   C30   A    
C78   H48   S    
C63   C67   A    
N1    H25   S    
C66   C70   S    
C65   C69   S    
O6    V2    S    
O18   V2    S    
C80   H56   S    
C41   N1    S    
N3    H33   S    
C12   C20   A    
C27   C35   A    
C33   C38   A    
N2    H29   S    
C53   C57   A    
C29   C41   A    
C74   H30   S    
O16   V4    S    
C61   C65   A    
C75   H35   S    
C19   H4    S    
C61   H21   S    
C3    O13   A    
C43   N3    S    
C63   H23   S    
O6    C2    A    
C16   O24   S    
C23   C27   A    
N4    H37   S    
O11   V3    S    
C30   C42   A    
O12   V4    S    
C77   H43   S    
C24   N7    S    
C22   C26   A    
C67   C71   S    
C8    C9    S    
C58   C62   A    
C9    C17   A    
O10   C6    A    
O20   V2    S    
C57   C61   A    
C48   C52   A    
O24   H60   S    
C32   C44   A    
C69   C70   T    
C13   O21   S    
N4    C76   S    
C3    C53   S    
C33   C34   A    
C39   H7    S    
C25   C29   A    
C56   C60   A    
C12   C24   A    
C27   C31   A    
N6    C78   S    
C13   C17   A    
O4    V2    S    
N1    C73   S    
N8    H53   S    
O14   V2    S    
C45   C49   A    
C47   H11   S    
C64   H24   S    
C24   C28   A    
C28   C36   A    
C45   H9    S    
C4    O14   A    
N3    C75   S    
C38   H6    S    
C44   N4    S    
C78   H46   S    
C76   H38   S    
C57   H17   S    
C28   C32   A    
C17   H2    S    
C74   H31   S    
