data_mof_unit_43711.cif
_audit_creation_date              2012-12-10T18:55:56-0500
_audit_creation_method            fapswitch 2.2
_symmetry_space_group_name_H-M    P1
_symmetry_Int_Tables_number       1
_space_group_crystal_system       triclinic
_cell_length_a                    10.743739
_cell_length_b                    9.831327
_cell_length_c                    14.992002
_cell_angle_alpha                 88.733737
_cell_angle_beta                  89.331636
_cell_angle_gamma                 89.93422
_cell_volume                      1583.03833164

loop_
_atom_site_label
_atom_site_type_symbol
_atom_type_description
_atom_site_fract_x
_atom_site_fract_y
_atom_site_fract_z
_atom_type_partial_charge
C1    C     C_R   0.259985 0.500774 0.498836 0.821469
C2    C     C_R   0.739476 0.500357 0.497390 0.799516
C3    C     C_R   0.500746 0.501019 0.328119 0.795786
C4    C     C_R   0.501555 0.498125 0.672508 0.811760
C5    C     C_R   0.571409 0.069961 0.558814 -0.038670
C6    C     C_R   0.428882 0.930146 0.441054 -0.032678
C7    C     C_R   0.428649 0.074061 0.441178 -0.006909
C8    C     C_R   0.571438 0.925999 0.558789 -0.027109
C9    C     C_R   0.062437 0.415038 0.558409 -0.029606
C10   C     C_R   0.935512 0.587306 0.435479 -0.020748
C11   C     C_R   0.933025 0.418696 0.560997 -0.046794
C12   C     C_R   0.064354 0.597355 0.442290 -0.035172
C13   C     C_R   0.399816 0.542341 0.093122 -0.104252
C14   C     C_R   0.438839 0.421779 0.914524 -0.099504
C15   C     C_R   0.595094 0.598562 0.901030 -0.101958
C16   C     C_R   0.622522 0.499814 0.094828 -0.094645
C17   C     C_R   0.393190 0.526405 0.185232 -0.037269
C18   C     C_R   0.437654 0.406441 0.822761 -0.033674
C19   C     C_R   0.597460 0.586392 0.808743 -0.014899
C20   C     C_R   0.619191 0.484836 0.187291 -0.045056
C21   C     C_R   0.504328 0.503250 0.232321 -0.181458
C22   C     C_R   0.513546 0.494587 0.768891 -0.203316
C23   C     C_R   0.513486 0.527904 0.048550 0.009970
C24   C     C_R   0.514263 0.518830 0.952719 0.009990
C25   C     C_R   0.871590 0.501854 0.497600 -0.203370
C26   C     C_R   0.126815 0.503402 0.498844 -0.225516
N1    N     N_R   0.500000 0.857200 0.500000 -0.101593
N2    N     N_R   0.500000 0.142800 0.500000 -0.100609
O1    O     O_R   0.316770 0.614620 0.499990 -0.624748
O2    O     O_R   0.683230 0.385380 0.500010 -0.603635
O3    O     O_R   0.683230 0.614620 0.500010 -0.640450
O4    O     O_R   0.316770 0.385380 0.499990 -0.593461
O5    O     O_R   0.499990 0.614660 0.369060 -0.623680
O6    O     O_R   0.500010 0.385340 0.630940 -0.644145
O7    O     O_R   0.500010 0.614660 0.630940 -0.603087
O8    O     O_R   0.499990 0.385340 0.369060 -0.618121
Zn1   Zn    Zn3+2 0.500000 0.653120 0.500000 0.963263
Zn2   Zn    Zn3+2 0.500000 0.346880 0.500000 0.976257
H1    H     H_    0.628480 0.122969 0.605782 0.162454
H2    H     H_    0.372462 0.877381 0.393700 0.140806
H3    H     H_    0.371570 0.130301 0.394183 0.149678
H4    H     H_    0.628684 0.869839 0.605667 0.156106
H5    H     H_    0.315678 0.558706 0.055051 0.194270
H6    H     H_    0.381913 0.356340 0.957524 0.191598
H7    H     H_    0.656863 0.668925 0.933264 0.192011
H8    H     H_    0.708466 0.482968 0.058049 0.192335
C27   C     C_2   0.269422 0.522479 0.230288 0.430428
H9    H     H_    0.260243 0.483471 0.298238 0.026925
O9    O     O_2   0.175727 0.560272 0.191543 -0.489376
C28   C     C_2   0.356156 0.298025 0.787190 0.397624
H10   H     H_    0.365013 0.263133 0.719785 0.125949
O10   O     O_2   0.276540 0.243320 0.834451 -0.520226
C29   C     C_2   0.692187 0.665197 0.755913 0.413934
H11   H     H_    0.714857 0.638637 0.687856 0.062020
O11   O     O_2   0.747820 0.760034 0.788397 -0.533054
C30   C     C_2   0.734019 0.442965 0.235103 0.468071
H12   H     H_    0.732235 0.423805 0.306534 0.041289
O12   O     O_2   0.832454 0.427603 0.194964 -0.492275
C31   C     C_2   0.131169 0.336162 0.627070 0.564576
H13   H     H_    0.175231 0.389890 0.680415 0.005940
O13   O     O_2   0.141485 0.212848 0.622336 -0.477823
C32   C     C_2   0.869294 0.658929 0.360266 0.468007
H14   H     H_    0.772661 0.688508 0.365405 0.077531
O14   O     O_2   0.921709 0.681184 0.288701 -0.473075
C33   C     C_2   0.860826 0.344417 0.632945 0.451283
H15   H     H_    0.776458 0.388960 0.660058 0.028648
O15   O     O_2   0.892009 0.231939 0.660606 -0.493696
C34   C     C_2   0.131927 0.710103 0.394050 0.581769
H16   H     H_    0.222258 0.693833 0.363682 0.032472
O16   O     O_2   0.088243 0.824845 0.390773 -0.528076

loop_
_geom_bond_atom_site_label_1
_geom_bond_atom_site_label_2
_ccdc_geom_bond_type
C5    C8    A    
C28   O10   D    
C23   C24   S    
C6    C7    A    
O4    Zn2   S    
C16   C23   A    
C5    N2    A    
C4    C22   S    
C14   C18   A    
C29   O11   D    
C6    N1    A    
C13   C17   A    
C16   C20   A    
C19   C29   S    
C32   H14   S    
C1    O1    A    
C28   H10   S    
C4    O7    A    
C31   H13   S    
C27   O9    D    
O6    Zn2   S    
C29   H11   S    
C30   H12   S    
C15   C19   A    
C9    C11   A    
C18   C28   S    
C10   C32   S    
C10   C12   A    
C3    O8    A    
N1    Zn1   S    
C10   C25   A    
O8    Zn2   S    
C15   C24   A    
O7    Zn1   S    
C13   C23   A    
C8    H4    S    
C9    C26   A    
C2    C25   S    
C4    O6    A    
C20   C30   S    
C5    H1    S    
O3    Zn1   S    
C12   C26   A    
C1    C26   S    
O1    Zn1   S    
C6    H2    S    
C31   O13   D    
C3    C21   S    
C2    O2    A    
C3    O5    A    
C14   C24   A    
C27   H9    S    
C11   C33   S    
C13   H5    S    
C19   C22   A    
C20   C21   A    
O2    Zn2   S    
C14   H6    S    
C33   H15   S    
C16   H8    S    
C8    N1    A    
C34   O16   D    
C11   C25   A    
C34   H16   S    
C32   O14   D    
C33   O15   D    
N2    Zn2   S    
C18   C22   A    
C12   C34   S    
C1    O4    A    
O5    Zn1   S    
C7    N2    A    
C17   C27   S    
C7    H3    S    
C30   O12   D    
C2    O3    A    
C9    C31   S    
C15   H7    S    
C17   C21   A    
