data_mof_unit_58933.cif
_audit_creation_date              2012-12-11T14:29:33-0500
_audit_creation_method            fapswitch 2.2
_symmetry_space_group_name_H-M    P1
_symmetry_Int_Tables_number       1
_space_group_crystal_system       triclinic
_cell_length_a                    6.935437
_cell_length_b                    14.749983
_cell_length_c                    16.265207
_cell_angle_alpha                 90.539032
_cell_angle_beta                  90.062297
_cell_angle_gamma                 90.245747
_cell_volume                      1663.80128379

loop_
_atom_site_label
_atom_site_type_symbol
_atom_type_description
_atom_site_fract_x
_atom_site_fract_y
_atom_site_fract_z
_atom_type_partial_charge
O1    O     O_R   0.494400 0.416610 0.413880 -0.538817
O2    O     O_R   0.823920 0.406790 0.585520 -0.544930
O3    O     O_R   0.994250 0.583390 0.586120 -0.539735
C1    C     C_R   0.653962 0.382805 0.611454 0.711636
O4    O     O_R   0.824110 0.405730 0.414490 -0.540907
O5    O     O_R   0.994440 0.582310 0.413870 -0.552542
C2    C     C_R   0.654238 0.383317 0.386742 0.770991
O6    O     O_R   0.494210 0.417690 0.586130 -0.520735
O7    O     O_3   0.660810 0.557940 0.500000 -0.379439
V1    V     V_3+5 0.935650 0.489250 0.500000 1.454084
O8    O     O_R   0.324160 0.593210 0.414480 -0.545601
C3    C     C_R   0.156206 0.612994 0.384881 0.666794
O9    O     O_R   0.323970 0.594270 0.585510 -0.540839
C4    C     C_R   0.155361 0.616259 0.613877 0.691394
V2    V     V_3+5 0.435660 0.510750 0.500000 1.453976
O10   O     O_3   0.160630 0.442060 0.500000 -0.353861
H1    H     H_    0.838871 0.893777 0.519324 0.129594
C5    C     C_R   0.309776 0.578641 0.775746 -0.144788
C6    C     C_R   0.383504 0.557823 0.852955 -0.124118
C7    C     C_R   0.370217 0.620181 0.917195 -0.118496
C8    C     C_R   0.283261 0.703897 0.904730 -0.131925
C9    C     C_R   0.209210 0.727650 0.826712 0.068893
C10   C     C_R   0.222625 0.663574 0.760752 0.067328
C11   C     C_R   0.119072 0.812700 0.814377 -0.179566
C12   C     C_R   0.042190 0.833433 0.735859 0.065962
C13   C     C_R   0.055526 0.769340 0.669901 0.069988
C14   C     C_R   0.145616 0.684263 0.682244 -0.184915
C15   C     C_R   0.955277 0.918425 0.720859 -0.133885
C16   C     C_R   0.881703 0.939301 0.643639 -0.090203
C17   C     C_R   0.894805 0.876908 0.579408 -0.110115
C18   C     C_R   0.981497 0.793119 0.591886 -0.137629
H2    H     H_    0.320749 0.526937 0.728446 0.117979
H3    H     H_    0.449900 0.492577 0.863132 0.116383
H4    H     H_    0.426212 0.603338 0.977275 0.116994
H5    H     H_    0.273273 0.749105 0.957261 0.105436
H6    H     H_    0.944394 0.970132 0.768165 0.113504
H7    H     H_    0.815535 0.004607 0.633458 0.148285
H8    H     H_    0.991333 0.747878 0.539368 0.105815
C19   C     C_2   0.993021 0.714781 0.286440 -0.115204
C20   C     C_2   0.154805 0.671405 0.310910 0.051721
H9    H     H_    0.860572 0.704647 0.320792 0.098293
C21   C     C_2   0.977489 0.773485 0.212377 -0.108351
C22   C     C_2   0.124319 0.823795 0.183276 -0.253021
H10   H     H_    0.836415 0.778542 0.183777 0.128831
H11   H     H_    0.262081 0.824794 0.214641 0.173462
C23   C     C_2   0.773266 0.206346 0.778892 -0.091755
C24   C     C_2   0.616129 0.186730 0.823895 -0.271166
H12   H     H_    0.906274 0.169560 0.789307 0.148143
H13   H     H_    0.487417 0.227675 0.818081 0.172664
C25   C     C_2   0.780092 0.282911 0.720044 -0.173285
C26   C     C_2   0.635758 0.305517 0.668244 0.113873
H14   H     H_    0.914306 0.321071 0.718095 0.137713
C27   C     C_2   0.779175 0.196962 0.226370 0.292093
C28   C     C_2   0.621367 0.181277 0.178229 -0.335043
H15   H     H_    0.493608 0.222447 0.186002 0.127751
C29   C     C_2   0.789745 0.270827 0.289259 -0.154038
C30   C     C_2   0.636296 0.313257 0.321726 -0.346539
H16   H     H_    0.932454 0.288241 0.312223 0.173938
H17   H     H_    0.491390 0.294861 0.302719 0.151837
O11   O     O_R   0.770210 0.079270 0.910680 -0.547612
O12   O     O_R   0.440150 0.091160 0.082270 -0.530869
O13   O     O_R   0.269970 0.914530 0.082860 -0.542856
C31   C     C_R   0.609927 0.111795 0.111827 0.794136
O14   O     O_R   0.440480 0.090100 0.911240 -0.542637
O15   O     O_R   0.270310 0.913460 0.910610 -0.539366
C32   C     C_R   0.609609 0.113154 0.884578 0.723465
O16   O     O_R   0.769870 0.080340 0.082930 -0.511663
O17   O     O_3   0.603660 0.938980 0.996790 -0.380169
V3    V     V_3+5 0.328750 0.007610 0.996740 1.480590
O18   O     O_R   0.940600 0.902510 0.911180 -0.545265
C33   C     C_R   0.109231 0.880645 0.882773 0.681070
O19   O     O_R   0.940270 0.903570 0.082200 -0.536958
C34   C     C_R   0.109030 0.883698 0.111469 0.757918
V4    V     V_3+5 0.828770 0.986010 0.996670 1.472907
O20   O     O_3   0.103730 0.054750 0.996710 -0.358144
N1    N     N_3   0.326930 0.675103 0.261974 -0.672708
H18   H     H_    0.438452 0.701457 0.298443 0.226791
H19   H     H_    0.363649 0.608881 0.244900 0.223897
Br1   Br    Br    0.405997 0.232199 0.654478 -0.574961
Br2   Br    Br    0.010886 0.125279 0.219978 -0.561470

loop_
_geom_bond_atom_site_label_1
_geom_bond_atom_site_label_2
_ccdc_geom_bond_type
C22   C34   S    
C6    C7    A    
C1    O6    A    
C24   H13   S    
C27   C28   D    
C12   C15   A    
C13   C14   A    
C15   C16   A    
N1    H19   S    
O5    C3    A    
C17   C18   A    
C30   H17   S    
C28   C31   S    
O17   V4    S    
V2    O10   S    
C29   C30   D    
C5    C6    A    
O12   C31   A    
C28   H15   S    
O8    V2    S    
O17   V3    S    
O18   V4    S    
C25   H14   S    
O13   C34   A    
O18   C33   A    
O1    V2    S    
C10   C14   A    
C4    C14   S    
O7    V1    S    
C24   C32   S    
C7    H4    S    
O11   C32   A    
C13   C18   A    
O9    C4    A    
H1    C17   S    
C21   H10   S    
C19   C21   S    
C23   H12   S    
C31   O16   A    
V4    O20   S    
C1    C26   S    
C5    C10   A    
C27   Br2   S    
C11   C12   A    
O19   V4    S    
C6    H3    S    
C19   C20   D    
O4    C2    A    
C12   C13   A    
O15   C33   A    
C20   N1    S    
O13   V3    S    
O14   C32   A    
C3    C20   S    
O2    C1    A    
C16   C17   A    
C25   C26   D    
O16   V4    S    
O14   V3    S    
N1    H18   S    
C22   H11   S    
C15   H6    S    
O3    C4    A    
O6    V2    S    
O9    V2    S    
C9    C11   A    
C5    H2    S    
C21   C22   D    
O2    V1    S    
C27   C29   S    
O12   V3    S    
C23   C24   D    
O1    C2    A    
O19   C34   A    
O5    V1    S    
O8    C3    A    
C8    H5    S    
C23   C25   S    
C18   H8    S    
O7    V2    S    
O4    V1    S    
O3    V1    S    
V1    O10   S    
O15   V3    S    
O11   V4    S    
C29   H16   S    
V3    O20   S    
C26   Br1   S    
C7    C8    A    
C19   H9    S    
C16   H7    S    
C9    C10   A    
C8    C9    A    
C2    C30   S    
C11   C33   S    
