data_mof_unit_65888.cif
_audit_creation_date              2013-03-05T16:45:04-0500
_audit_creation_method            fapswitch 2.2
_symmetry_space_group_name_H-M    P1
_symmetry_Int_Tables_number       1
_space_group_crystal_system       triclinic
_cell_length_a                    19.177775
_cell_length_b                    19.168197
_cell_length_c                    19.473774
_cell_angle_alpha                 90.214059
_cell_angle_beta                  94.837923
_cell_angle_gamma                 85.284979
_cell_volume                      7108.94436025

loop_
_atom_site_label
_atom_site_type_symbol
_atom_site_description
_atom_site_fract_x
_atom_site_fract_y
_atom_site_fract_z
_atom_type_partial_charge
Zn1   Zn    Zn3+2 0.558280 0.441710 0.441700 1.068085
Zn2   Zn    Zn3+2 0.558950 0.553420 0.562770 0.989584
Zn3   Zn    Zn3+2 0.446190 0.441460 0.553820 1.001870
Zn4   Zn    Zn3+2 0.436580 0.563410 0.441710 0.975040
O1    O     O_3   0.500000 0.500000 0.500000 -0.500767
O2    O     O_R   0.451210 0.659450 0.463610 -0.646314
O3    O     O_R   0.545190 0.344140 0.454780 -0.580096
O4    O     O_R   0.656710 0.532590 0.548340 -0.619779
O5    O     O_R   0.346890 0.463830 0.533270 -0.639830
O6    O     O_R   0.546320 0.532340 0.658770 -0.646136
O7    O     O_R   0.450550 0.549430 0.344370 -0.648869
O8    O     O_R   0.467400 0.453980 0.652500 -0.646624
O9    O     O_R   0.535730 0.464240 0.344360 -0.632290
O10   O     O_R   0.656240 0.454400 0.463600 -0.616245
O11   O     O_R   0.340160 0.549180 0.454800 -0.645133
O12   O     O_R   0.536860 0.652450 0.548350 -0.643841
O13   O     O_R   0.466740 0.343960 0.533260 -0.645630
C1    C     C_R   0.492575 0.689198 0.507692 0.795269
C2    C     C_R   0.506532 0.311074 0.491951 0.897102
C3    C     C_R   0.689806 0.491908 0.507486 0.874695
C4    C     C_R   0.310076 0.508338 0.493126 0.830004
C5    C     C_R   0.508479 0.491879 0.688463 0.800902
C6    C     C_R   0.491032 0.507534 0.311489 0.818893
C7    C     C_R   0.482511 0.504333 0.236132 -0.060804
C8    C     C_R   0.515336 0.447524 0.202264 -0.135801
C9    C     C_R   0.506128 0.441680 0.130962 0.118170
C10   C     C_R   0.463936 0.494126 0.092577 0.140038
C11   C     C_R   0.429555 0.549783 0.126376 -0.175851
C12   C     C_R   0.438878 0.555034 0.197864 -0.201076
C13   C     C_R   0.561809 0.528361 0.874498 -0.170427
C14   C     C_R   0.561074 0.526934 0.803057 -0.182129
C15   C     C_R   0.461939 0.455579 0.797014 -0.195976
C16   C     C_R   0.462400 0.457441 0.868463 -0.146416
C17   C     C_R   0.511790 0.494796 0.907508 0.199214
C18   C     C_2   0.457165 0.492943 0.017278 -0.249572
C19   C     C_2   0.514105 0.497568 0.982900 -0.240659
C20   C     C_R   0.510802 0.490942 0.763787 -0.009146
H1    H     H_    0.547526 0.406756 0.231198 0.201033
H2    H     H_    0.599696 0.554199 0.778624 0.170205
H3    H     H_    0.422999 0.427034 0.767839 0.171693
H4    H     H_    0.564038 0.505795 0.011371 0.159860
H5    H     H_    0.396690 0.589906 0.097232 0.152533
H6    H     H_    0.600846 0.556551 0.904004 0.138695
H7    H     H_    0.412297 0.598768 0.223095 0.169394
H8    H     H_    0.405148 0.492641 0.990609 0.167330
H9    H     H_    0.424737 0.428963 0.892914 0.140157
C21   C     C_R   0.507938 0.234687 0.487883 -0.139658
C22   C     C_R   0.512598 0.196914 0.549660 -0.281772
C23   C     C_R   0.515528 0.123708 0.549770 0.141410
C24   C     C_R   0.510965 0.087703 0.485757 0.246685
C25   C     C_R   0.508487 0.125744 0.424345 -0.278163
C26   C     C_R   0.506166 0.198941 0.424256 0.298556
C27   C     C_R   0.466062 0.880599 0.461235 -0.204218
C28   C     C_R   0.466118 0.808063 0.455983 -0.221961
C29   C     C_R   0.487737 0.911622 0.524306 0.308761
N1    N     N_2   0.508802 0.013892 0.479708 -0.176866
N2    N     N_2   0.488934 0.985054 0.531010 -0.145663
C30   C     C_R   0.488890 0.765658 0.513234 -0.017776
H10   H     H_    0.449883 0.785066 0.406920 0.168268
H11   H     H_    0.448963 0.912587 0.416270 0.165582
H12   H     H_    0.505553 0.097892 0.375792 0.194001
C31   C     C_R   0.509262 0.796562 0.576424 -0.239052
C32   C     C_R   0.507607 0.869492 0.582611 0.099614
H13   H     H_    0.525949 0.763898 0.621062 0.161294
H14   H     H_    0.515681 0.224767 0.598244 0.170257
C33   C     C_R   0.233227 0.515329 0.494529 -0.062701
C34   C     C_R   0.201580 0.479070 0.544459 -0.276433
C35   C     C_R   0.129049 0.488293 0.549622 0.314744
C36   C     C_R   0.087170 0.532521 0.501479 0.215322
C37   C     C_R   0.119010 0.569510 0.452631 -0.231190
C38   C     C_R   0.191435 0.561001 0.448964 -0.197227
C39   C     C_R   0.872456 0.551506 0.509137 -0.189142
C40   C     C_R   0.799648 0.553146 0.512129 0.040197
C41   C     C_R   0.912895 0.487514 0.502419 0.267479
N3    N     N_2   0.013147 0.540260 0.500513 -0.163929
N4    N     N_2   0.987002 0.482804 0.500415 -0.120899
C42   C     C_R   0.766714 0.489779 0.509223 -0.142186
H15   H     H_    0.897145 0.600358 0.511520 0.162571
H16   H     H_    0.087262 0.604162 0.416441 0.166418
H17   H     H_    0.214654 0.590126 0.410449 0.178835
C43   C     C_R   0.807495 0.425189 0.504064 0.250380
C44   C     C_R   0.879988 0.425240 0.499935 -0.230289
H18   H     H_    0.911650 0.376075 0.496388 0.201174
H19   H     H_    0.233658 0.445477 0.581357 0.208648
N5    N     N_R   0.498697 0.235705 0.359408 0.220854
O14   O     O_R   0.526677 0.207727 0.306147 -0.365649
O15   O     O_R   0.456046 0.291957 0.350611 -0.403181
N6    N     N_3   0.525051 0.086405 0.614273 -0.422379
H20   H     H_    0.575718 0.061250 0.618043 0.207995
H21   H     H_    0.522792 0.121015 0.655812 0.185414
N7    N     N_3   0.528410 0.901362 0.647218 -0.440002
H22   H     H_    0.544733 0.863042 0.684535 0.184557
H23   H     H_    0.483912 0.929207 0.664154 0.199296
N8    N     N_3   0.758663 0.619121 0.516264 -0.407211
H24   H     H_    0.729201 0.627550 0.468929 0.169408
H25   H     H_    0.791202 0.660245 0.522705 0.191088
N9    N     N_R   0.776772 0.359209 0.505274 0.228820
O16   O     O_R   0.803214 0.305872 0.471766 -0.357041
O17   O     O_R   0.729099 0.349323 0.547201 -0.391748
N10   N     N_R   0.099350 0.455171 0.605287 0.215575
O18   O     O_R   0.048798 0.487874 0.636311 -0.355962
O19   O     O_R   0.128566 0.396213 0.630955 -0.370190
N11   N     N_3   0.538034 0.380881 0.099218 -0.433633
H26   H     H_    0.576042 0.396078 0.068282 0.193013
H27   H     H_    0.499378 0.357529 0.068132 0.209550

loop_
_geom_bond_atom_site_label_1
_geom_bond_atom_site_label_2
_geom_bond_distance
_ccdc_geom_bond_type
C30   C31   1.403305 A    
C4    C33   1.471402 S    
C18   C19   1.337217 D    
C25   H12   1.083673 S    
N9    O16   1.301447 A    
N5    O14   1.301424 A    
O6    C5    1.276387 A    
C9    C10   1.412074 A    
O4    C3    1.281826 A    
C41   N4    1.420469 S    
C3    C42   1.469652 S    
Zn1   O1    1.945716 S    
C11   C12   1.392871 A    
C43   C44   1.399411 A    
C13   C14   1.390299 A    
C9    N11   1.433854 S    
C2    C21   1.464214 S    
O8    C5    1.279094 A    
N1    N2    1.245712 D    
O9    C6    1.275812 A    
C11   H5    1.083558 S    
C7    C12   1.402356 A    
C31   H13   1.083649 S    
Zn3   O8    1.948495 S    
C1    C30   1.465513 S    
C33   C38   1.402364 A    
C35   C36   1.417650 A    
C29   C32   1.403498 A    
C39   H15   1.082619 S    
C6    C7    1.464408 S    
Zn3   O13   1.925706 S    
C37   C38   1.392936 A    
C22   H14   1.084257 S    
Zn2   O12   1.926995 S    
N5    O15   1.301454 A    
C33   C34   1.403850 A    
C34   H19   1.083126 S    
C16   H9    1.082209 S    
C23   N6    1.438399 S    
C19   H4    1.088068 S    
C36   C37   1.398076 A    
C40   N8    1.438772 S    
C41   C44   1.394181 A    
C38   H17   1.082983 S    
N9    O17   1.301529 A    
C27   H11   1.082934 S    
C24   C25   1.398361 A    
C28   H10   1.083209 S    
C27   C29   1.408530 A    
O2    C1    1.283444 A    
C13   C17   1.398545 A    
C34   C35   1.399726 A    
O10   C3    1.280770 A    
C7    C8    1.403223 A    
Zn4   O2    1.925728 S    
N7    H22   1.045678 S    
C39   C40   1.400193 A    
C10   C18   1.461393 S    
C8    C9    1.390128 A    
C27   C28   1.393693 A    
C5    C20   1.463895 S    
C24   N1    1.422997 S    
C14   C20   1.404029 A    
N3    N4    1.246979 D    
C35   N10   1.439192 S    
C31   C32   1.400655 A    
Zn3   O5    1.925893 S    
C8    H1    1.083757 S    
N7    H23   1.045537 S    
C21   C22   1.399025 A    
C42   C43   1.416943 A    
N10   O19   1.301462 A    
C16   C17   1.404970 A    
N11   H27   1.045573 S    
C15   C20   1.402230 A    
Zn4   O7    1.951118 S    
N8    H25   1.045660 S    
C39   C41   1.408064 A    
C22   C23   1.399735 A    
N6    H21   1.045712 S    
C44   H18   1.083576 S    
O3    C2    1.283171 A    
C29   N2    1.415000 S    
C12   H7    1.083038 S    
C13   H6    1.083618 S    
Zn2   O1    1.941301 S    
Zn1   O9    1.950353 S    
Zn2   O6    1.953204 S    
C10   C11   1.399437 A    
C28   C30   1.400254 A    
C26   N5    1.439249 S    
C37   H16   1.083145 S    
Zn1   O3    1.928013 S    
Zn2   O4    1.928288 S    
Zn4   O1    1.944099 S    
Zn3   O1    1.950415 S    
C21   C26   1.412882 A    
C15   C16   1.391008 A    
Zn4   O11   1.929135 S    
C25   C26   1.400104 A    
O5    C4    1.284636 A    
C43   N9    1.439528 S    
O7    C6    1.278737 A    
N10   O18   1.301495 A    
O13   C2    1.283552 A    
C14   H2    1.083088 S    
C36   N3    1.413675 S    
C17   C19   1.465981 S    
C15   H3    1.083114 S    
N8    H24   1.045601 S    
O11   C4    1.286106 A    
N6    H20   1.045600 S    
O12   C1    1.279348 A    
C23   C24   1.422325 A    
C32   N7    1.436980 S    
N11   H26   1.043733 S    
C40   C42   1.413167 A    
Zn1   O10   1.926032 S    
C18   H8    1.085547 S    
