data_mof_unit_23365.cif
_audit_creation_date              2012-12-11T15:41:22-0500
_audit_creation_method            fapswitch 2.2
_symmetry_space_group_name_H-M    P1
_symmetry_Int_Tables_number       1
_space_group_crystal_system       triclinic
_cell_length_a                    19.084759
_cell_length_b                    10.955292
_cell_length_c                    18.813213
_cell_angle_alpha                 90.021948
_cell_angle_beta                  90.123813
_cell_angle_gamma                 89.968221
_cell_volume                      3933.43970923

loop_
_atom_site_label
_atom_site_type_symbol
_atom_type_description
_atom_site_fract_x
_atom_site_fract_y
_atom_site_fract_z
_atom_type_partial_charge
C1    C     C_R   0.724368 0.962241 0.856214 0.547744
C2    C     C_R   0.303723 0.470388 0.038488 0.017350
C3    C     C_R   0.762513 0.855644 0.356180 0.544676
C4    C     C_2   0.498187 0.169446 0.921328 -0.124002
C5    C     C_2   0.501857 0.169348 0.078695 -0.124224
C6    C     C_2   0.998178 0.669453 0.921322 -0.123974
C7    C     C_2   0.001844 0.669341 0.078689 -0.124332
C8    C     C_2   0.494286 0.068624 0.038686 -0.164811
C9    C     C_2   0.505804 0.068672 0.961271 -0.164619
C10   C     C_2   0.994249 0.568625 0.038677 -0.164878
C11   C     C_2   0.005763 0.568667 0.961260 -0.164613
C12   C     C_R   0.765091 0.443503 0.068097 0.021559
C13   C     C_R   0.196106 0.970055 0.961615 0.017449
C14   C     C_R   0.234887 0.443597 0.931912 0.021977
C15   C     C_R   0.265087 0.943487 0.068103 0.021932
C16   C     C_R   0.734901 0.943543 0.931900 0.021840
C17   C     C_R   0.803757 0.970271 0.038468 0.017372
C18   C     C_R   0.817055 0.408947 0.952162 -0.151863
C19   C     C_R   0.182926 0.408616 0.047785 -0.152005
C20   C     C_R   0.317046 0.908973 0.952164 -0.152001
C21   C     C_R   0.682943 0.908590 0.047773 -0.152029
C22   C     C_R   0.823301 0.414346 0.025623 -0.149102
C23   C     C_R   0.176711 0.414112 0.974325 -0.148971
C24   C     C_R   0.323299 0.914385 0.025624 -0.148967
C25   C     C_R   0.275627 0.962193 0.143787 0.547497
C26   C     C_R   0.676728 0.914063 0.974316 -0.148985
C27   C     C_3   0.630437 0.443425 0.048556 -0.286908
C28   C     C_3   0.369552 0.444328 0.951547 -0.286690
C29   C     C_3   0.130445 0.943240 0.048581 -0.286952
C30   C     C_3   0.869534 0.943903 0.951515 -0.286700
C31   C     C_3   0.622096 0.427405 0.968911 -0.260473
C32   C     C_3   0.377879 0.428154 0.031184 -0.260642
C33   C     C_3   0.122100 0.927217 0.968938 -0.260517
C34   C     C_3   0.877858 0.927761 0.031148 -0.260657
C35   C     C_R   0.751164 0.424585 0.920046 0.015766
C36   C     C_R   0.224362 0.462260 0.856220 0.547151
C37   C     C_R   0.248766 0.424490 0.079962 0.015499
C38   C     C_R   0.251152 0.924563 0.920054 0.015644
C39   C     C_R   0.748781 0.924463 0.079950 0.015416
C40   C     C_R   0.483533 0.170247 0.431478 0.021030
C41   C     C_R   0.491535 0.170583 0.579116 0.019348
C42   C     C_R   0.979560 0.669598 0.432749 0.018129
C43   C     C_R   0.989767 0.670888 0.580103 0.017837
C44   C     C_R   0.475576 0.278062 0.469643 0.044043
C45   C     C_R   0.478919 0.279303 0.541979 0.027876
C46   C     C_R   0.973627 0.777991 0.470637 0.042978
C47   C     C_R   0.775630 0.462201 0.143783 0.548175
C48   C     C_R   0.977588 0.779716 0.542874 0.030887
C49   C     C_R   0.485699 0.059184 0.542783 -0.171776
C50   C     C_R   0.483694 0.059029 0.468550 -0.166800
C51   C     C_R   0.980475 0.559311 0.544518 -0.167040
C52   C     C_R   0.976301 0.558597 0.470270 -0.161195
C53   C     C_R   0.529724 0.177636 0.850715 0.545173
C54   C     C_R   0.470291 0.177581 0.149295 0.545815
C55   C     C_R   0.029720 0.677636 0.850712 0.545256
C56   C     C_R   0.970289 0.677580 0.149294 0.546288
C57   C     C_3   0.513424 0.395981 0.460954 -0.280062
C58   C     C_R   0.703801 0.482878 0.034496 0.030225
C59   C     C_3   0.517493 0.399256 0.540907 -0.269183
C60   C     C_3   0.011844 0.895319 0.461152 -0.278360
C61   C     C_3   0.016363 0.899547 0.541132 -0.267912
C62   C     C_R   0.762899 0.440881 0.430169 0.015090
C63   C     C_R   0.248357 0.402200 0.579889 0.016913
C64   C     C_R   0.249533 0.912510 0.421819 0.013734
C65   C     C_R   0.749658 0.900729 0.580444 0.014549
C66   C     C_R   0.818364 0.392188 0.469072 0.042014
C67   C     C_R   0.199107 0.333971 0.541327 0.023349
C68   C     C_R   0.284916 0.817131 0.455653 0.018101
C69   C     C_R   0.296060 0.483239 0.965600 0.030408
C70   C     C_R   0.701783 0.828675 0.542443 0.029568
C71   C     C_R   0.815304 0.382106 0.541570 0.028993
C72   C     C_R   0.203713 0.324330 0.468911 0.032098
C73   C     C_R   0.283449 0.807483 0.528430 0.045381
C74   C     C_R   0.706088 0.818978 0.469902 0.040327
C75   C     C_R   0.705265 0.489795 0.542105 -0.163274
C76   C     C_R   0.313624 0.430724 0.470591 -0.151512
C77   C     C_R   0.201724 0.973786 0.536688 -0.173443
C78   C     C_R   0.813565 0.932664 0.470490 -0.159395
C79   C     C_R   0.708539 0.499199 0.467718 -0.160503
C80   C     C_R   0.203784 0.982803 0.034512 0.030316
C81   C     C_R   0.309557 0.439614 0.544952 -0.155543
C82   C     C_R   0.203270 0.984922 0.462534 -0.164897
C83   C     C_R   0.809949 0.941508 0.544891 -0.165757
C84   C     C_3   0.855352 0.273484 0.459711 -0.280101
C85   C     C_3   0.120753 0.342754 0.537689 -0.268024
C86   C     C_3   0.359914 0.777029 0.452732 -0.270542
C87   C     C_3   0.623316 0.832854 0.539172 -0.269828
C88   C     C_3   0.852154 0.261272 0.539608 -0.270899
C89   C     C_3   0.126499 0.331315 0.457879 -0.281027
C90   C     C_3   0.358610 0.771198 0.532995 -0.266775
C91   C     C_R   0.796097 0.983107 0.965573 0.030425
C92   C     C_3   0.628748 0.821960 0.459381 -0.279619
C93   C     C_R   0.755572 0.419821 0.578687 0.016063
C94   C     C_R   0.257167 0.381603 0.431501 0.018944
C95   C     C_R   0.245801 0.889332 0.570542 0.021236
C96   C     C_R   0.757943 0.879602 0.431979 0.015474
C97   C     C_R   0.738249 0.364848 0.852330 0.546712
C98   C     C_R   0.261742 0.364785 0.147666 0.547430
C99   C     C_R   0.238246 0.864841 0.852333 0.546942
C100  C     C_R   0.761744 0.864781 0.147664 0.547263
C101  C     C_R   0.728190 0.953383 0.648173 0.544890
C102  C     C_R   0.696126 0.470133 0.961600 0.017499
C103  C     C_R   0.272026 0.955588 0.352506 0.552136
C104  C     C_R   0.227977 0.453656 0.648087 0.547511
C105  C     C_R   0.774099 0.460587 0.354718 0.545987
C106  C     C_R   0.528382 0.176631 0.645884 0.547895
C107  C     C_R   0.467906 0.176351 0.356823 0.545397
C108  C     C_R   0.028092 0.676630 0.646095 0.547137
C109  C     C_R   0.966569 0.676329 0.357563 0.545893
C110  C     C_R   0.740021 0.363566 0.646943 0.544167
C111  C     C_R   0.262316 0.356286 0.355944 0.546445
C112  C     C_R   0.238863 0.859808 0.645324 0.544135
Cr1   Cr    Cr6+3 0.769260 0.163750 0.750730 1.010410
Cr2   Cr    Cr6+3 0.385810 0.322400 0.252290 1.010296
Cr3   Cr    Cr6+3 0.114190 0.822400 0.747710 1.007710
Cr4   Cr    Cr6+3 0.885810 0.822400 0.252290 1.010205
Cr5   Cr    Cr6+3 0.230740 0.163750 0.249270 1.012896
Cr6   Cr    Cr6+3 0.269260 0.663750 0.750730 1.013445
Cr7   Cr    Cr6+3 0.730740 0.663750 0.249270 1.013144
Cr8   Cr    Cr6+3 0.612640 0.009910 0.748780 1.006049
Cr9   Cr    Cr6+3 0.387360 0.009910 0.251220 1.007047
Cr10  Cr    Cr6+3 0.112640 0.509910 0.748780 1.006152
Cr11  Cr    Cr6+3 0.887360 0.509910 0.251220 1.009528
Cr12  Cr    Cr6+3 0.614190 0.322400 0.747710 1.006727
H1    H     H_    0.478752 0.983222 0.063009 0.138810
H2    H     H_    0.359544 0.464785 0.443776 0.127029
H3    H     H_    0.168084 0.033374 0.567411 0.122401
H4    H     H_    0.858070 0.971108 0.443144 0.130362
H5    H     H_    0.667795 0.548093 0.439688 0.129329
H6    H     H_    0.351570 0.482290 0.574342 0.116780
H7    H     H_    0.173050 0.057213 0.438116 0.139578
H8    H     H_    0.850953 0.989042 0.573418 0.120493
H9    H     H_    0.909537 0.284580 0.439319 0.133704
H10   H     H_    0.101667 0.433815 0.554386 0.169434
H11   H     H_    0.396067 0.847580 0.432731 0.162109
H12   H     H_    0.521395 0.983284 0.936894 0.139018
H13   H     H_    0.602785 0.922747 0.555900 0.168544
H14   H     H_    0.822972 0.204801 0.431082 0.137100
H15   H     H_    0.094420 0.263499 0.563067 0.127362
H16   H     H_    0.365813 0.686211 0.427186 0.127076
H17   H     H_    0.598596 0.752200 0.564717 0.128549
H18   H     H_    0.817492 0.185928 0.556694 0.166777
H19   H     H_    0.104178 0.244751 0.437023 0.132502
H20   H     H_    0.366141 0.678278 0.554250 0.137682
H21   H     H_    0.607512 0.734683 0.438508 0.133914
H22   H     H_    0.904491 0.264425 0.565608 0.126978
H23   H     H_    0.978701 0.483233 0.063000 0.138797
H24   H     H_    0.110204 0.415156 0.428893 0.139138
H25   H     H_    0.391321 0.842215 0.558940 0.135022
H26   H     H_    0.611067 0.905075 0.430559 0.136435
H27   H     H_    0.521090 0.253255 0.055357 0.101427
H28   H     H_    0.478921 0.253358 0.944716 0.101307
H29   H     H_    0.021087 0.753241 0.055351 0.101434
H30   H     H_    0.978942 0.753380 0.944716 0.101361
H31   H     H_    0.861994 0.378679 0.921760 0.137781
H32   H     H_    0.138022 0.378121 0.078121 0.137824
H33   H     H_    0.361988 0.878742 0.921756 0.137666
H34   H     H_    0.021324 0.483266 0.936877 0.139044
H35   H     H_    0.638038 0.878107 0.078110 0.137759
H36   H     H_    0.873278 0.391397 0.049083 0.133266
H37   H     H_    0.126787 0.390987 0.950822 0.133476
H38   H     H_    0.373284 0.891489 0.049079 0.133347
H39   H     H_    0.626806 0.890923 0.950815 0.133422
H40   H     H_    0.628172 0.356428 0.078850 0.132745
H41   H     H_    0.372101 0.357431 0.921135 0.132686
H42   H     H_    0.128227 0.856235 0.078872 0.132771
H43   H     H_    0.871959 0.856966 0.921130 0.132817
H44   H     H_    0.615422 0.330384 0.953116 0.157768
H45   H     H_    0.978720 0.968866 0.438368 0.134695
H46   H     H_    0.384806 0.331132 0.046858 0.157597
H47   H     H_    0.115473 0.830188 0.953139 0.157683
H48   H     H_    0.884669 0.830725 0.046844 0.157531
H49   H     H_    0.583950 0.492199 0.944940 0.140196
H50   H     H_    0.415831 0.493132 0.055263 0.140085
H51   H     H_    0.083918 0.991954 0.944975 0.140230
H52   H     H_    0.915900 0.992603 0.055204 0.140132
H53   H     H_    0.490214 0.973491 0.570890 0.116162
H54   H     H_    0.485398 0.973359 0.440302 0.118201
H55   H     H_    0.983694 0.473467 0.572815 0.122774
H56   H     H_    0.071207 0.892852 0.559961 0.174777
H57   H     H_    0.973395 0.472313 0.442495 0.132094
H58   H     H_    0.565296 0.384551 0.434944 0.135893
H59   H     H_    0.486517 0.474747 0.564802 0.122662
H60   H     H_    0.063485 0.882808 0.434875 0.141518
H61   H     H_    0.985489 0.975366 0.564811 0.123938
H62   H     H_    0.097900 0.018482 0.070505 0.140927
H63   H     H_    0.901939 0.019332 0.929701 0.141031
H64   H     H_    0.597926 0.518720 0.070470 0.140903
H65   H     H_    0.401855 0.519921 0.929766 0.140949
H66   H     H_    0.480156 0.469462 0.438295 0.132774
H67   H     H_    0.572264 0.391830 0.559847 0.170882
H68   H     H_    0.661064 0.528858 0.569919 0.120467
O1    O     O_R   0.784290 0.290360 0.830540 -0.522579
O2    O     O_R   0.456020 0.282110 0.333230 -0.519401
O3    O     O_R   0.043980 0.782110 0.666770 -0.525232
O4    O     O_R   0.956020 0.782110 0.333230 -0.519124
O5    O     O_R   0.679070 0.374030 0.674430 -0.509574
O6    O     O_R   0.320930 0.374030 0.325570 -0.507971
O7    O     O_R   0.179070 0.874030 0.674430 -0.509567
O8    O     O_R   0.820930 0.874030 0.325570 -0.508194
O9    O     O_3   0.665360 0.165350 0.749070 -0.245722
O10   O     O_3   0.334640 0.165350 0.250930 -0.248844
O11   O     O_3   0.165360 0.665350 0.749070 -0.246916
O12   O     O_R   0.215710 0.290360 0.169460 -0.522527
O13   O     O_3   0.834640 0.665350 0.250930 -0.250885
O14   O     O_R   0.762610 0.041070 0.825230 -0.495202
O15   O     O_R   0.237390 0.041070 0.174770 -0.495742
O16   O     O_R   0.262610 0.541070 0.825230 -0.496146
O17   O     O_R   0.737390 0.541070 0.174770 -0.494966
O18   O     O_R   0.667390 0.924160 0.829970 -0.527482
O19   O     O_R   0.332610 0.924160 0.170030 -0.527758
O20   O     O_R   0.167390 0.424160 0.829970 -0.527712
O21   O     O_R   0.832610 0.424160 0.170030 -0.527494
O22   O     O_R   0.553980 0.081420 0.821780 -0.498161
O23   O     O_R   0.284290 0.790360 0.830540 -0.522941
O24   O     O_R   0.446020 0.081420 0.178220 -0.497777
O25   O     O_R   0.053980 0.581420 0.821780 -0.498088
O26   O     O_R   0.946020 0.581420 0.178220 -0.497601
O27   O     O_R   0.543210 0.283170 0.826740 -0.524222
O28   O     O_R   0.456790 0.283170 0.173260 -0.524175
O29   O     O_R   0.043210 0.783170 0.826740 -0.524216
O30   O     O_R   0.956790 0.783170 0.173260 -0.523826
O31   O     O_R   0.678350 0.375000 0.822720 -0.500319
O32   O     O_R   0.321650 0.375000 0.177280 -0.500019
O33   O     O_R   0.178350 0.875000 0.822720 -0.500012
O34   O     O_R   0.715710 0.790360 0.169460 -0.522566
O35   O     O_R   0.821650 0.875000 0.177280 -0.499997
O36   O     O_R   0.785060 0.289300 0.670580 -0.522978
O37   O     O_R   0.214940 0.289300 0.329420 -0.519639
O38   O     O_R   0.285060 0.789300 0.670580 -0.518322
O39   O     O_R   0.714940 0.789300 0.329420 -0.519173
O40   O     O_R   0.763330 0.040090 0.676940 -0.508843
O41   O     O_R   0.236670 0.040090 0.323060 -0.508612
O42   O     O_R   0.263330 0.540090 0.676940 -0.504032
O43   O     O_R   0.736670 0.540090 0.323060 -0.507576
O44   O     O_R   0.668160 0.923110 0.670000 -0.521057
O45   O     O_R   0.554690 0.080440 0.673480 -0.511018
O46   O     O_R   0.331840 0.923110 0.330000 -0.522063
O47   O     O_R   0.168160 0.423110 0.670000 -0.521945
O48   O     O_R   0.831840 0.423110 0.330000 -0.516863
O49   O     O_R   0.445310 0.080440 0.326520 -0.509345
O50   O     O_R   0.054690 0.580440 0.673480 -0.511395
O51   O     O_R   0.945310 0.580440 0.326520 -0.509255
O52   O     O_R   0.543980 0.282110 0.666770 -0.525440

loop_
_geom_bond_atom_site_label_1
_geom_bond_atom_site_label_2
_ccdc_geom_bond_type
C53   O27   A    
C7    C10   D    
C56   O30   A    
C21   C26   A    
C60   H60   S    
C53   O22   A    
Cr8   O9    S    
Cr10  O25   S    
C29   C33   S    
C4    C53   S    
C64   C103  S    
C21   H35   S    
C94   C111  S    
C59   H67   S    
Cr6   O11   S    
C17   C91   A    
C65   C101  S    
C6    C55   S    
C35   C102  A    
C78   H4    S    
C28   H65   S    
C56   O26   A    
C48   C61   S    
Cr10  O50   S    
C62   C105  S    
Cr9   O49   S    
C30   C34   S    
C99   O23   A    
C63   C81   A    
C60   H45   S    
C64   C68   A    
C98   O12   A    
C50   H54   S    
C42   C109  S    
C73   C90   S    
Cr3   O33   S    
C89   H24   S    
C35   C97   S    
C95   C112  S    
C90   H25   S    
C111  O6    A    
C36   O16   A    
Cr4   O8    S    
C40   C50   A    
C65   C83   A    
C109  O51   A    
C74   C92   S    
C65   C70   A    
C79   H5    S    
C12   C22   A    
C26   H39   S    
C112  O38   A    
C29   H62   S    
Cr11  O13   S    
C109  O4    A    
C2    C32   S    
C67   C72   A    
C17   C39   A    
C97   O1    A    
C25   O19   A    
Cr6   O42   S    
C37   C98   S    
C32   H46   S    
C19   C37   A    
C76   C94   A    
C104  O47   A    
C78   C83   A    
C20   C24   A    
C78   C96   A    
C8    C9    S    
C106  O45   A    
C98   O32   A    
C70   C74   A    
C8    H1    S    
Cr2   O10   S    
Cr6   O23   S    
C58   C102  A    
Cr1   O9    S    
C43   C108  S    
Cr12  O52   S    
Cr5   O12   S    
C18   C35   A    
C85   H15   S    
C112  O7    A    
Cr4   O13   S    
C77   H3    S    
Cr7   O39   S    
C85   H10   S    
C55   O29   A    
C12   C58   A    
C61   H56   S    
C104  O42   A    
C92   H21   S    
Cr12  O27   S    
C84   H14   S    
C103  O41   A    
C87   C92   S    
C99   O33   A    
C110  O5    A    
Cr8   O18   S    
C19   H32   S    
C105  O43   A    
C7    C56   S    
C87   H13   S    
C12   C47   S    
C51   H55   S    
C70   C87   S    
C41   C49   A    
C57   H58   S    
C14   C23   A    
C11   H34   S    
C92   H26   S    
C49   H53   S    
C16   C26   A    
C4    H28   S    
C10   H23   S    
C46   C48   A    
C84   H9    S    
C67   C85   S    
Cr7   O17   S    
C41   C106  S    
C62   C66   A    
Cr4   O35   S    
C27   C31   S    
C51   C52   A    
C31   C102  S    
C74   C96   A    
C5    C54   S    
C28   C32   S    
C52   H57   S    
C55   O25   A    
C86   C90   S    
C3    O39   A    
C6    C11   D    
C85   C89   S    
C76   H2    S    
C38   C99   S    
Cr1   O36   S    
C68   C73   A    
C89   H19   S    
Cr3   O7    S    
Cr12  O5    S    
C77   C95   A    
C97   O31   A    
Cr3   O11   S    
C60   C61   S    
C66   C84   S    
C29   H42   S    
C76   C81   A    
C100  O35   A    
Cr6   O16   S    
C66   C71   A    
Cr9   O24   S    
C63   C67   A    
C13   C33   S    
C106  O52   A    
C27   H40   S    
C20   C38   A    
C54   O24   A    
C15   C80   A    
C21   C39   A    
Cr12  O31   S    
Cr5   O41   S    
C44   C57   S    
C63   C104  S    
C101  O44   A    
C61   H61   S    
C3    O8    A    
C1    C16   S    
C32   H50   S    
C87   H17   S    
C108  O3    A    
C100  O34   A    
C1    O14   A    
C64   C82   A    
C13   C38   A    
C3    C96   S    
C28   H41   S    
C36   O20   A    
C40   C107  S    
Cr7   O13   S    
C68   C86   S    
Cr7   O43   S    
C15   C24   A    
Cr11  O26   S    
C40   C44   A    
Cr10  O47   S    
C20   H33   S    
Cr11  O21   S    
C42   C46   A    
C111  O37   A    
C14   C69   A    
Cr10  O20   S    
Cr10  O11   S    
C75   C79   A    
C17   C34   S    
C73   C95   A    
Cr5   O10   S    
C2    C69   A    
C34   H48   S    
C44   C45   A    
C19   C23   A    
Cr1   O40   S    
Cr11  O48   S    
C43   C48   A    
C88   H18   S    
Cr3   O3    S    
C45   C59   S    
C41   C45   A    
C15   C25   S    
Cr2   O2    S    
C7    H29   S    
C46   C60   S    
C1    O18   A    
C18   C22   A    
Cr1   O1    S    
Cr3   O29   S    
C24   H38   S    
C84   C88   S    
Cr2   O28   S    
C30   C91   S    
Cr5   O15   S    
C27   C58   S    
C57   C59   S    
Cr9   O10   S    
C5    C8    D    
C54   O28   A    
C71   C93   A    
C28   C69   S    
C86   H16   S    
C93   C110  S    
C5    H27   S    
Cr12  O9    S    
Cr8   O45   S    
C30   H63   S    
C47   O17   A    
C75   H68   S    
C82   H7    S    
C72   C94   A    
C83   H8    S    
C110  O36   A    
Cr1   O14   S    
C14   C36   S    
C72   C89   S    
C6    H30   S    
C2    C37   A    
C43   C51   A    
C81   H6    S    
C29   C80   S    
C22   H36   S    
C77   C82   A    
Cr6   O38   S    
C75   C93   A    
C103  O46   A    
Cr11  O51   S    
C47   O21   A    
Cr5   O37   S    
C105  O48   A    
C101  O40   A    
C27   H64   S    
Cr9   O19   S    
Cr4   O30   S    
C33   H51   S    
C90   H20   S    
C62   C79   A    
C13   C80   A    
C34   H52   S    
C10   C11   S    
C30   H43   S    
C71   C88   S    
Cr4   O4    S    
C9    H12   S    
C86   H11   S    
C57   H66   S    
C31   H44   S    
C39   C100  S    
C16   C91   A    
C31   H49   S    
C49   C50   A    
Cr2   O6    S    
C108  O50   A    
C88   H22   S    
C59   H59   S    
C107  O49   A    
Cr2   O32   S    
C4    C9    D    
C25   O15   A    
Cr8   O22   S    
C107  O2    A    
Cr8   O44   S    
C18   H31   S    
Cr9   O46   S    
Cr7   O34   S    
C42   C52   A    
C23   H37   S    
C33   H47   S    
