data_mof_unit_20092.cif
_audit_creation_date              2012-10-26T18:47:37-0400
_audit_creation_method            fapswitch 2.2
_symmetry_space_group_name_H-M    P1
_symmetry_Int_Tables_number       1
_space_group_crystal_system       triclinic
_cell_length_a                    10.823081
_cell_length_b                    13.003524
_cell_length_c                    11.672754
_cell_angle_alpha                 99.651207
_cell_angle_beta                  93.790707
_cell_angle_gamma                 90.917173
_cell_volume                      1615.39487937

loop_
_atom_site_label
_atom_site_type_symbol
_atom_type_description
_atom_site_fract_x
_atom_site_fract_y
_atom_site_fract_z
_atom_type_partial_charge
C1    C     C_R   0.499440 0.299130 0.478778 0.549768
C2    C     C_R   0.486360 0.983839 0.653863 -0.163625
C3    C     C_R   0.512327 0.124233 0.357095 -0.143104
C4    C     C_R   0.487703 0.875768 0.642912 -0.143084
C5    C     C_R   0.494905 0.138947 0.565723 -0.139224
C6    C     C_R   0.505108 0.861054 0.434280 -0.139194
C7    C     C_R   0.495405 0.030933 0.555345 0.035575
C8    C     C_R   0.504616 0.969068 0.444659 0.035594
C9    C     C_R   0.392973 0.393691 0.021178 -0.181334
C10   C     C_R   0.607029 0.606308 0.978822 -0.181333
C11   C     C_R   0.402157 0.404790 0.143480 0.038233
C12   C     C_R   0.500564 0.700870 0.521223 0.549761
C13   C     C_R   0.597847 0.595208 0.856520 0.038240
C14   C     C_R   0.544584 0.547294 0.157438 0.044054
C15   C     C_R   0.455416 0.452706 0.842562 0.044051
C16   C     C_R   0.262557 0.499803 0.500129 0.554724
C17   C     C_R   0.737442 0.500193 0.499871 0.554724
C18   C     C_R   0.538443 0.538972 0.034477 0.007844
C19   C     C_R   0.461558 0.461028 0.965523 0.007845
C20   C     C_R   0.185629 0.181710 0.258827 -0.126260
C21   C     C_R   0.814393 0.818382 0.741117 -0.126226
C22   C     C_R   0.140943 0.279965 0.301251 -0.092848
C23   C     C_R   0.871275 0.499551 0.499812 0.002341
C24   C     C_R   0.859044 0.720094 0.698715 -0.092865
C25   C     C_R   0.124548 0.308865 0.420453 0.043582
C26   C     C_R   0.875440 0.691159 0.579504 0.043612
C27   C     C_R   0.156014 0.239699 0.497159 -0.092586
C28   C     C_R   0.843974 0.760312 0.502763 -0.092556
C29   C     C_R   0.198829 0.140914 0.454138 -0.117018
C30   C     C_R   0.801200 0.859132 0.545763 -0.116997
C31   C     C_R   0.212734 0.111674 0.334945 -0.098140
C32   C     C_R   0.787329 0.888419 0.664968 -0.098101
C33   C     C_R   0.930528 0.405217 0.462799 -0.034652
C34   C     C_R   0.128723 0.500446 0.500190 0.002331
C35   C     C_R   0.069471 0.594776 0.537227 -0.034656
C36   C     C_3   0.856853 0.301948 0.434366 -0.247562
C37   C     C_3   0.839429 0.256925 0.546113 -0.290991
C38   C     C_3   0.826453 0.138226 0.521515 -0.460106
C39   C     C_3   0.143155 0.698035 0.565734 -0.247499
C40   C     C_3   0.160488 0.743177 0.454044 -0.290936
C41   C     C_3   0.173425 0.861877 0.478783 -0.460089
C42   C     C_R   0.939483 0.593557 0.537890 -0.035381
C43   C     C_R   0.060511 0.406445 0.462096 -0.035381
C44   C     C_R   0.497722 0.814085 0.533218 0.012037
C45   C     C_R   0.502293 0.185915 0.466784 0.012042
C46   C     C_R   0.513668 0.016162 0.346143 -0.163632
Cu1   Cu    Cu3+1 0.509250 0.507730 0.615930 0.921237
Cu2   Cu    Cu3+1 0.490750 0.492270 0.384070 0.921271
H1    H     H_    0.245763 0.035197 0.301519 0.111174
H2    H     H_    0.802681 0.840878 0.833227 0.092011
H3    H     H_    0.115960 0.332437 0.241107 0.101362
H4    H     H_    0.884014 0.667628 0.758885 0.101330
H5    H     H_    0.143832 0.261059 0.589336 0.094651
H6    H     H_    0.856133 0.738920 0.410574 0.094603
H7    H     H_    0.221020 0.087097 0.513255 0.112052
H8    H     H_    0.779028 0.912947 0.486622 0.112030
H9    H     H_    0.512849 0.813814 0.349326 0.114300
H10   H     H_    0.487161 0.186187 0.650675 0.114307
H11   H     H_    0.481177 0.840610 0.720170 0.127818
H12   H     H_    0.754359 0.964934 0.698377 0.111122
H13   H     H_    0.518858 0.159391 0.279839 0.127820
H14   H     H_    0.521138 0.969563 0.260873 0.098157
H15   H     H_    0.478891 0.030439 0.739135 0.098157
H16   H     H_    0.754001 0.112163 0.450615 0.167559
H17   H     H_    0.915659 0.103593 0.495536 0.153949
H18   H     H_    0.800653 0.109900 0.601392 0.140783
H19   H     H_    0.919533 0.278738 0.610757 0.161261
H20   H     H_    0.755549 0.289894 0.586642 0.181290
H21   H     H_    0.765038 0.311291 0.389707 0.153148
H22   H     H_    0.903162 0.245130 0.370402 0.154582
H23   H     H_    0.395941 0.393384 0.788736 0.112191
H24   H     H_    0.084264 0.896476 0.505008 0.154005
H25   H     H_    0.246038 0.887883 0.549558 0.167559
H26   H     H_    0.198982 0.890292 0.398879 0.140778
H27   H     H_    0.244355 0.710261 0.413429 0.181183
H28   H     H_    0.080352 0.721405 0.389421 0.161261
H29   H     H_    0.096887 0.754791 0.629804 0.154531
H30   H     H_    0.235004 0.688656 0.610310 0.153179
H31   H     H_    0.604058 0.606616 0.211264 0.112186
H32   H     H_    0.650303 0.647918 0.814662 0.128099
H33   H     H_    0.349709 0.352077 0.185338 0.128111
H34   H     H_    0.333002 0.332725 0.970677 0.077322
H35   H     H_    0.667001 0.667273 0.029323 0.077323
H36   H     H_    0.197354 0.159244 0.166728 0.092013
N1    N     N_R   0.523180 0.519350 0.790130 -0.230143
N2    N     N_R   0.476820 0.480650 0.209870 -0.230141
O1    O     O_R   0.506570 0.354460 0.582000 -0.519248
O2    O     O_R   0.493430 0.645540 0.418000 -0.519227
O3    O     O_R   0.490940 0.341410 0.386200 -0.508327
O4    O     O_R   0.509060 0.658590 0.613800 -0.508339
O5    O     O_R   0.327460 0.506540 0.597900 -0.508974
O6    O     O_R   0.672540 0.493460 0.402100 -0.508958
O7    O     O_R   0.311830 0.493480 0.402100 -0.501649
O8    O     O_R   0.688170 0.506520 0.597900 -0.501684

loop_
_geom_bond_atom_site_label_1
_geom_bond_atom_site_label_2
_ccdc_geom_bond_type
C24   H4    S    
C1    O1    A    
C27   C29   A    
C14   C18   A    
C2    C4    A    
C2    C7    A    
C25   C43   S    
C7    C8    A    
C11   H33   S    
C15   C19   A    
C16   O7    A    
C17   C23   S    
C23   C42   A    
C5    H10   S    
C46   H14   S    
Cu1   N1    S    
C12   O4    A    
C36   C37   S    
C24   C26   A    
C18   C19   A    
C11   N2    A    
C37   H20   S    
C10   H35   S    
C33   C36   S    
C34   C35   A    
C35   C42   A    
C16   C34   S    
C41   H26   S    
C29   H7    S    
C9    C19   A    
C38   H18   S    
C23   C33   A    
C22   C25   A    
Cu2   O2    S    
C9    H34   S    
C15   N1    A    
C13   H32   S    
C6    C44   A    
C6    H9    S    
C17   O6    A    
C31   H1    S    
C21   H2    S    
C36   H22   S    
C38   H16   S    
C3    H13   S    
C21   C32   A    
Cu2   O7    S    
C12   O2    A    
C33   C43   A    
C39   H30   S    
C14   N2    A    
C39   C40   S    
C5    C7    A    
C28   H6    S    
C6    C8    A    
C4    C44   A    
C5    C45   A    
C3    C45   A    
C40   H28   S    
Cu1   O1    S    
C35   C39   S    
C37   C38   S    
Cu1   Cu2   S    
C38   H17   S    
C14   H31   S    
C9    C11   A    
C41   H24   S    
C40   C41   S    
C20   C22   A    
Cu2   O3    S    
C20   H36   S    
Cu1   O4    S    
Cu2   N2    S    
C32   H12   S    
C39   H29   S    
C36   H21   S    
C26   C42   S    
C2    H15   S    
C1    O3    A    
Cu1   O5    S    
C34   C43   A    
C10   C13   A    
C27   H5    S    
C25   C27   A    
C15   H23   S    
C3    C46   A    
C26   C28   A    
C40   H27   S    
C28   C30   A    
C12   C44   S    
C30   C32   A    
C1    C45   S    
C30   H8    S    
C10   C18   A    
C37   H19   S    
C4    H11   S    
Cu1   O8    S    
C8    C46   A    
C41   H25   S    
C16   O5    A    
C29   C31   A    
Cu2   O6    S    
C21   C24   A    
C13   N1    A    
C17   O8    A    
C22   H3    S    
C20   C31   A    
