data_mof_unit_41243.cif
_audit_creation_date              2013-03-05T15:46:19-0500
_audit_creation_method            fapswitch 2.2
_symmetry_space_group_name_H-M    P1
_symmetry_Int_Tables_number       1
_space_group_crystal_system       triclinic
_cell_length_a                    17.375316
_cell_length_b                    24.613782
_cell_length_c                    14.782754
_cell_angle_alpha                 90.030441
_cell_angle_beta                  126.05183
_cell_angle_gamma                 90.033576
_cell_volume                      5111.37826555

loop_
_atom_site_label
_atom_site_type_symbol
_atom_site_description
_atom_site_fract_x
_atom_site_fract_y
_atom_site_fract_z
_atom_type_partial_charge
C1    C     C_R   0.808025 0.623462 0.908908 0.285386
C2    C     C_R   0.150777 0.347981 0.091483 0.236553
C3    C     C_R   0.150730 0.652097 0.091592 0.233855
C4    C     C_R   0.808024 0.376433 0.908920 0.286547
C5    C     C_R   0.308042 0.123473 0.908886 0.285361
C6    C     C_R   0.650758 0.847972 0.091474 0.235301
C7    C     C_R   0.650503 0.152158 0.091619 0.232728
C8    C     C_R   0.307999 0.876494 0.908945 0.286553
N1    N     N_R   0.892620 0.603790 0.941800 -0.115632
N2    N     N_R   0.107380 0.396210 0.058200 -0.124333
N3    N     N_R   0.107380 0.603790 0.058200 -0.124931
N4    N     N_R   0.892620 0.396210 0.941800 -0.116018
N5    N     N_R   0.392620 0.103790 0.941800 -0.115760
N6    N     N_R   0.607380 0.896210 0.058200 -0.124227
N7    N     N_R   0.607380 0.103790 0.058200 -0.124974
N8    N     N_R   0.392620 0.896210 0.941800 -0.115936
C9    C     C_R   0.904329 0.376317 0.094870 0.244324
C10   C     C_R   0.053080 0.651489 0.906381 0.400169
C11   C     C_R   0.053086 0.348518 0.906255 0.400132
C12   C     C_R   0.904261 0.623633 0.094841 0.244608
C13   C     C_R   0.404342 0.876330 0.094896 0.243852
C14   C     C_R   0.552950 0.151532 0.906404 0.400772
C15   C     C_R   0.553189 0.848546 0.906225 0.400029
C16   C     C_R   0.404305 0.123737 0.094828 0.245059
N9    N     N_R   0.952210 0.397600 0.057910 -0.108267
N10   N     N_R   0.047790 0.602400 0.942090 -0.135333
N11   N     N_R   0.047790 0.397600 0.942090 -0.135455
N12   N     N_R   0.952210 0.602400 0.057910 -0.108350
N13   N     N_R   0.452210 0.897600 0.057910 -0.108193
N14   N     N_R   0.547790 0.102400 0.942090 -0.135252
N15   N     N_R   0.547790 0.897600 0.942090 -0.135535
N16   N     N_R   0.452210 0.102400 0.057910 -0.108392
C17   C     C_R   0.061997 0.544918 0.311339 0.725962
C18   C     C_R   0.021284 0.454905 0.751841 0.698985
C19   C     C_R   0.021281 0.545106 0.751831 0.698617
C20   C     C_R   0.062039 0.455133 0.311305 0.724990
C21   C     C_R   0.561857 0.044885 0.311336 0.724904
C22   C     C_R   0.521155 0.954890 0.751705 0.698785
C23   C     C_R   0.521368 0.045090 0.751915 0.698977
C24   C     C_R   0.562082 0.955099 0.311278 0.725359
N17   N     N_R   0.026300 0.529110 0.206760 -0.197411
N18   N     N_R   0.973700 0.470890 0.793240 -0.169587
N19   N     N_R   0.973700 0.529110 0.793240 -0.169402
N20   N     N_R   0.026300 0.470890 0.206760 -0.197220
N21   N     N_R   0.526300 0.029110 0.206760 -0.197262
N22   N     N_R   0.473700 0.970890 0.793240 -0.169722
N23   N     N_R   0.473700 0.029110 0.793240 -0.169414
N24   N     N_R   0.526300 0.970890 0.206760 -0.197339
C25   C     C_R   0.742649 0.454983 0.694596 -0.034079
C26   C     C_R   0.268326 0.545183 0.244672 -0.039905
C27   C     C_R   0.268454 0.455279 0.243748 -0.058925
C28   C     C_R   0.742768 0.544457 0.693703 -0.047039
C29   C     C_R   0.242581 0.954995 0.694611 -0.034159
C30   C     C_R   0.768298 0.045165 0.244441 -0.040105
C31   C     C_R   0.768409 0.955275 0.243552 -0.058150
C32   C     C_R   0.242734 0.044460 0.693720 -0.046728
H1    H     H_    0.731616 0.414200 0.662591 0.184551
H2    H     H_    0.291981 0.586712 0.258693 0.144400
H3    H     H_    0.292755 0.413883 0.257516 0.153141
H4    H     H_    0.730802 0.585143 0.661034 0.193590
H5    H     H_    0.231523 0.914225 0.662538 0.184789
H6    H     H_    0.791973 0.086696 0.258360 0.144234
H7    H     H_    0.792690 0.913874 0.257252 0.152428
H8    H     H_    0.230808 0.085130 0.661003 0.193473
N25   N     N_R   0.818530 0.472270 0.792960 -0.071302
N26   N     N_R   0.181470 0.527730 0.207040 -0.047599
N27   N     N_R   0.181470 0.472270 0.207040 -0.046526
N28   N     N_R   0.818530 0.527730 0.792960 -0.070671
N29   N     N_R   0.318530 0.972270 0.792960 -0.071224
N30   N     N_R   0.681470 0.027730 0.207040 -0.047493
N31   N     N_R   0.681470 0.972270 0.207040 -0.046358
N32   N     N_R   0.318530 0.027730 0.792960 -0.070571
C33   C     C_R   0.813089 0.636195 0.003215 -0.261732
C34   C     C_R   0.118260 0.317705 0.997788 -0.303713
C35   C     C_R   0.118166 0.682361 0.997991 -0.302272
C36   C     C_R   0.813126 0.363740 0.003247 -0.261661
C37   C     C_R   0.313134 0.136283 0.003174 -0.261843
C38   C     C_R   0.618358 0.817734 0.997753 -0.303374
C39   C     C_R   0.617853 0.182463 0.998022 -0.301384
C40   C     C_R   0.313127 0.863776 0.003282 -0.261341
C41   C     C_R   0.085405 0.500039 0.380361 -0.182472
C42   C     C_R   0.056758 0.500014 0.730219 -0.173150
C43   C     C_R   0.585370 0.999975 0.380351 -0.182618
C44   C     C_R   0.556730 0.999984 0.730188 -0.173199
C45   C     C_R   0.694154 0.499511 0.632514 -0.032693
C46   C     C_R   0.323645 0.500436 0.267205 -0.055996
C47   C     C_R   0.194033 0.999528 0.632554 -0.032740
C48   C     C_R   0.823586 0.000413 0.266797 -0.056896
Ni1   Ni    Ni4+2 0.934150 0.565840 0.869060 0.285840
Ni2   Ni    Ni4+2 0.065850 0.434160 0.130940 0.316980
Ni3   Ni    Ni4+2 0.065850 0.565840 0.130940 0.317133
Ni4   Ni    Ni4+2 0.934150 0.434160 0.869060 0.285765
Ni5   Ni    Ni4+2 0.434150 0.065840 0.869060 0.285806
Ni6   Ni    Ni4+2 0.565850 0.934160 0.130940 0.317191
Ni7   Ni    Ni4+2 0.565850 0.065840 0.130940 0.317236
Ni8   Ni    Ni4+2 0.434150 0.934160 0.869060 0.285769
C49   C     C_3   0.536980 0.449142 0.478484 -0.108975
C50   C     C_3   0.490635 0.550791 0.396694 -0.123816
C51   C     C_3   0.503472 0.465907 0.359671 -0.146118
C52   C     C_3   0.523477 0.533777 0.514643 -0.106968
C53   C     C_3   0.036215 0.949410 0.479889 -0.109336
C54   C     C_3   0.991126 0.050515 0.395014 -0.125170
C55   C     C_3   0.003070 0.964970 0.360667 -0.146161
C56   C     C_3   0.023661 0.034698 0.513441 -0.107464
C57   C     C_3   0.458469 0.483808 0.467479 -0.104950
C58   C     C_3   0.570817 0.516197 0.408911 -0.120554
C59   C     C_3   0.958057 0.984963 0.467666 -0.104119
C60   C     C_3   0.070990 0.015024 0.408473 -0.119922
H9    H     H_    0.411127 0.470590 0.490789 0.176221
H10   H     H_    0.619888 0.529335 0.388215 0.155086
H11   H     H_    0.910451 0.972705 0.491189 0.175798
H12   H     H_    0.120290 0.027210 0.387517 0.154443
H13   H     H_    0.556767 0.407388 0.513338 0.187272
H14   H     H_    0.470160 0.592414 0.361260 0.161945
H15   H     H_    0.492534 0.438383 0.293509 0.151229
H16   H     H_    0.532828 0.561423 0.579844 0.189057
H17   H     H_    0.055481 0.907891 0.516030 0.187937
H18   H     H_    0.971054 0.091888 0.358226 0.160908
H19   H     H_    0.991908 0.936678 0.295416 0.151177
H20   H     H_    0.033237 0.063113 0.577728 0.190026
C61   C     C_3   0.425883 0.500654 0.349925 0.129705
C62   C     C_3   0.601735 0.499232 0.525541 0.121937
C63   C     C_3   0.925813 0.000609 0.349675 0.130294
C64   C     C_3   0.101577 0.999260 0.525547 0.121876
C65   C     C_R   0.684161 0.326750 0.008039 -0.065360
C66   C     C_R   0.238731 0.722602 0.988677 -0.083228
C67   C     C_R   0.238542 0.277444 0.987980 -0.082579
C68   C     C_R   0.683624 0.673339 0.006837 -0.065219
C69   C     C_R   0.185233 0.826642 0.009969 -0.064838
C70   C     C_R   0.739618 0.222541 0.990691 -0.084707
C71   C     C_R   0.740594 0.777514 0.991534 -0.083038
C72   C     C_R   0.185427 0.173437 0.010159 -0.065322
H21   H     H_    0.663099 0.367217 0.014129 0.135046
H22   H     H_    0.259807 0.682331 0.981267 0.147310
H23   H     H_    0.259501 0.317703 0.980266 0.147107
H24   H     H_    0.661948 0.632888 0.012095 0.134955
H25   H     H_    0.164931 0.867047 0.017596 0.134985
H26   H     H_    0.761417 0.182210 0.984756 0.146200
H27   H     H_    0.762986 0.817827 0.986401 0.144748
H28   H     H_    0.165254 0.133047 0.018119 0.134890
C73   C     C_R   0.135425 0.781619 0.006341 -0.016054
C74   C     C_R   0.789340 0.266968 0.995096 -0.057137
C75   C     C_R   0.790200 0.733020 0.996087 -0.057849
C76   C     C_R   0.135601 0.218443 0.006420 -0.015990
C77   C     C_R   0.634308 0.281755 0.004437 -0.014844
C78   C     C_R   0.288461 0.767045 0.993197 -0.057632
C79   C     C_R   0.288294 0.233015 0.992605 -0.057973
C80   C     C_R   0.633876 0.718397 0.003066 -0.016163
H29   H     H_    0.076730 0.786581 0.012545 0.139182
H30   H     H_    0.849286 0.261282 0.991326 0.144691
H31   H     H_    0.850612 0.738647 0.993160 0.143945
H32   H     H_    0.077059 0.213475 0.012916 0.139504
H33   H     H_    0.574802 0.286813 0.009112 0.139361
H34   H     H_    0.347689 0.761435 0.988054 0.145026
H35   H     H_    0.347388 0.238630 0.987201 0.144779
H36   H     H_    0.573869 0.713393 0.006839 0.139502
C81   C     C_R   0.162956 0.730097 0.995579 0.208662
C82   C     C_R   0.761403 0.318749 0.003595 0.201415
C83   C     C_R   0.761540 0.681254 0.003613 0.202351
C84   C     C_R   0.162943 0.269957 0.995239 0.208896
C85   C     C_R   0.662824 0.230142 0.995666 0.208889
C86   C     C_R   0.261456 0.818746 0.003576 0.201209
C87   C     C_R   0.261493 0.181325 0.003441 0.202021
C88   C     C_R   0.663142 0.769997 0.995318 0.210282
C89   C     C_R   0.131860 0.451552 0.649454 0.639776
C90   C     C_R   0.138434 0.548835 0.560284 0.638771
C91   C     C_R   0.138292 0.451258 0.560099 0.637651
C92   C     C_R   0.131984 0.548530 0.649632 0.639195
C93   C     C_R   0.631612 0.951435 0.649315 0.640066
C94   C     C_R   0.638882 0.048655 0.560544 0.639117
C95   C     C_R   0.637874 0.951082 0.559848 0.637582
C96   C     C_R   0.632188 0.048413 0.649725 0.639382
C97   C     C_R   0.126095 0.500047 0.502417 -0.462973
C98   C     C_R   0.109958 0.500033 0.679773 -0.469937
C99   C     C_R   0.626095 0.999894 0.502415 -0.463135
C100  C     C_R   0.609917 0.999956 0.679728 -0.470345
N33   N     N_R   0.738298 0.645439 0.800573 0.227343
O1    O     O_R   0.764343 0.679249 0.755799 -0.301746
O2    O     O_R   0.648558 0.641967 0.759453 -0.369934
N34   N     N_R   0.197928 0.326511 0.202441 0.247994
O3    O     O_R   0.247262 0.281919 0.231475 -0.325215
O4    O     O_R   0.190832 0.351035 0.275046 -0.268486
N35   N     N_R   0.197542 0.673712 0.202466 0.247058
O5    O     O_R   0.189626 0.649458 0.274628 -0.266656
O6    O     O_R   0.247353 0.718192 0.231831 -0.326014
N36   N     N_R   0.738476 0.354116 0.800742 0.226108
O7    O     O_R   0.648639 0.357789 0.759049 -0.364479
O8    O     O_R   0.764664 0.319995 0.756573 -0.305259
N37   N     N_R   0.238249 0.145361 0.800481 0.226876
O9    O     O_R   0.264226 0.179091 0.755515 -0.303269
O10   O     O_R   0.148538 0.141946 0.759521 -0.369593
N38   N     N_R   0.697508 0.826394 0.202305 0.248645
O11   O     O_R   0.744824 0.781076 0.230554 -0.324312
O12   O     O_R   0.691069 0.851213 0.275160 -0.268528
N39   N     N_R   0.696891 0.173793 0.202429 0.247955
O13   O     O_R   0.689798 0.149075 0.274836 -0.267356
O14   O     O_R   0.744534 0.219062 0.231090 -0.324958
N40   N     N_R   0.238334 0.854253 0.800727 0.225852
O15   O     O_R   0.148532 0.857996 0.759160 -0.364761
O16   O     O_R   0.264360 0.820087 0.756452 -0.306248
N41   N     N_R   0.948899 0.350713 0.201265 0.273815
O17   O     O_R   0.907382 0.351821 0.251181 -0.320377
O18   O     O_R   0.016825 0.315878 0.234104 -0.244933
N42   N     N_R   0.978077 0.674287 0.800495 0.296524
O19   O     O_R   0.899529 0.647370 0.733387 -0.309521
O20   O     O_R   0.986617 0.722517 0.771352 -0.278848
N43   N     N_R   0.978054 0.325635 0.800336 0.296806
O21   O     O_R   0.986575 0.277422 0.771069 -0.278144
O22   O     O_R   0.899455 0.352430 0.733384 -0.309809
N44   N     N_R   0.948733 0.649151 0.201393 0.273935
O23   O     O_R   0.016412 0.684259 0.234355 -0.244756
O24   O     O_R   0.907145 0.647768 0.251215 -0.320866
N45   N     N_R   0.448943 0.850696 0.201271 0.273902
O25   O     O_R   0.407477 0.851781 0.251247 -0.320395
O26   O     O_R   0.516916 0.815898 0.234092 -0.243648
N46   N     N_R   0.477959 0.174266 0.800433 0.296319
O27   O     O_R   0.399523 0.147268 0.733258 -0.309836
O28   O     O_R   0.486436 0.222491 0.771220 -0.279320
N47   N     N_R   0.478274 0.825675 0.800243 0.296438
O29   O     O_R   0.487448 0.777802 0.770300 -0.277731
O30   O     O_R   0.399382 0.852270 0.733595 -0.309837
N48   N     N_R   0.448845 0.149434 0.201218 0.274545
O31   O     O_R   0.516569 0.184475 0.233935 -0.243883
O32   O     O_R   0.407374 0.148217 0.251184 -0.320830
F1    F     F_    0.103797 0.593833 0.348543 -0.526091
F2    F     F_    0.022730 0.403500 0.722118 -0.585504
F3    F     F_    0.022739 0.596489 0.722096 -0.585689
F4    F     F_    0.104051 0.406320 0.348432 -0.526888
F5    F     F_    0.603148 0.093916 0.348550 -0.525914
F6    F     F_    0.522099 0.903529 0.721419 -0.584774
F7    F     F_    0.523173 0.096497 0.722547 -0.585743
F8    F     F_    0.604327 0.906341 0.348364 -0.526859
F9    F     F_    0.151459 0.404928 0.707943 -0.547860
F10   F     F_    0.158415 0.596969 0.534573 -0.498548
F11   F     F_    0.158074 0.403118 0.534183 -0.499010
F12   F     F_    0.151702 0.595157 0.708306 -0.547886
F13   F     F_    0.651082 0.904805 0.707752 -0.547211
F14   F     F_    0.659746 0.096651 0.535375 -0.498593
F15   F     F_    0.656964 0.902835 0.533521 -0.498505
F16   F     F_    0.652025 0.095030 0.708462 -0.547295

loop_
_geom_bond_atom_site_label_1
_geom_bond_atom_site_label_2
_geom_bond_distance
_ccdc_geom_bond_type
N2    N11   1.388393 A    
C90   F10   1.350536 S    
C50   C61   1.532523 S    
C90   C92   1.389742 A    
C72   C76   1.387293 A    
C10   C35   1.373157 A    
C43   C99   1.501276 S    
N25   Ni4   1.877371 S    
C93   C95   1.389398 A    
N41   O17   1.300821 A    
N5    N16   1.388393 A    
C8    N40   1.429393 S    
C34   C84   1.421577 S    
C18   N18   1.344850 A    
C59   C63   1.534708 S    
N6    N15   1.388393 A    
N29   Ni8   1.877371 S    
C55   C63   1.530559 S    
C3    N35   1.435422 S    
C66   C78   1.370620 A    
C73   H29   1.083345 S    
C22   F6    1.344215 S    
N31   Ni6   1.875595 S    
N45   O25   1.300819 A    
N20   Ni2   1.857971 S    
C92   C98   1.403803 A    
N38   O12   1.298794 A    
C78   C86   1.395825 A    
C36   C82   1.427681 S    
C52   C57   1.531397 S    
N19   Ni1   1.857970 S    
C25   N25   1.332620 A    
C19   F3    1.344275 S    
C55   H19   1.109915 S    
C23   N23   1.345101 A    
C28   C45   1.361651 A    
C18   F2    1.344246 S    
N46   O28   1.300906 A    
C23   C44   1.394996 A    
N14   Ni5   1.833545 S    
C14   N46   1.436725 S    
N35   O6    1.300880 A    
C51   H15   1.109979 S    
C38   C88   1.421755 S    
C50   H14   1.110051 S    
C6    N6    1.336050 A    
C76   C84   1.397388 A    
N15   Ni8   1.835243 S    
C9    N41   1.427805 S    
C25   H1    1.077382 S    
N43   O22   1.300157 A    
C30   C48   1.368699 A    
C69   C73   1.387112 A    
C4    N36   1.429363 S    
C31   C48   1.371900 A    
N37   O10   1.300874 A    
C53   H17   1.110100 S    
C28   H4    1.077900 S    
C17   C41   1.392826 A    
C1    N33   1.429383 S    
C93   C100  1.403562 A    
C2    N2    1.335988 A    
C37   C87   1.428146 S    
C42   C98   1.490625 S    
C49   H13   1.110119 S    
C32   N32   1.335436 A    
C31   H7    1.075924 S    
C69   C86   1.395836 A    
C9    C36   1.383553 A    
C32   H8    1.077843 S    
C54   C60   1.550784 S    
C55   C60   1.557476 S    
C12   N44   1.427725 S    
C24   F8    1.344522 S    
C79   H35   1.084506 S    
C5    N5    1.338119 A    
C89   C98   1.403693 A    
C28   N28   1.335346 A    
C51   C61   1.530536 S    
C49   C57   1.534826 S    
C35   C81   1.420966 S    
C7    N7    1.336205 A    
N26   N27   1.365083 A    
C94   F14   1.350631 S    
C29   N29   1.332824 A    
C8    N8    1.338500 A    
C93   F13   1.354828 S    
C5    C37   1.379980 A    
N36   O8    1.299345 A    
C11   N43   1.436683 S    
N41   O18   1.300407 A    
C24   C43   1.392258 A    
C54   H18   1.110025 S    
C89   C91   1.389636 A    
C29   H5    1.077400 S    
C39   C85   1.421283 S    
C48   C63   1.447276 S    
C47   C64   1.446348 S    
C27   C46   1.371918 A    
C11   N11   1.343648 A    
C49   C51   1.546470 S    
C19   C42   1.395017 A    
N34   O4    1.298742 A    
C27   H3    1.075864 S    
C94   C99   1.414968 A    
N45   O26   1.300407 A    
C15   N47   1.436549 S    
N8    Ni8   1.860935 S    
C53   C64   1.531702 S    
C4    C36   1.380164 A    
N43   O21   1.300927 A    
C80   C88   1.397397 A    
C25   C45   1.358469 A    
C89   F9    1.354798 S    
N11   Ni4   1.835243 S    
C1    N1    1.338368 A    
N46   O27   1.300140 A    
N1    Ni1   1.860786 S    
N47   O29   1.300970 A    
C71   C75   1.371026 A    
C71   H27   1.084491 S    
C65   C82   1.395862 A    
C68   C80   1.387340 A    
C32   C47   1.361630 A    
C12   N12   1.341972 A    
N3    N10   1.388318 A    
N33   O2    1.300870 A    
N8    N13   1.388318 A    
C95   C99   1.415293 A    
N27   Ni2   1.875595 S    
C60   H12   1.109882 S    
N5    Ni5   1.860786 S    
C6    C38   1.367754 A    
N10   Ni1   1.833545 S    
C26   H2    1.075060 S    
N29   N32   1.365083 A    
C91   F11   1.350508 S    
N35   O5    1.298670 A    
C16   N16   1.342158 A    
C23   F7    1.344282 S    
C49   C62   1.531701 S    
N47   O30   1.300130 A    
C30   N30   1.335331 A    
C20   C41   1.392525 A    
C66   H22   1.084495 S    
N25   N28   1.365083 A    
C10   N10   1.343382 A    
C58   C62   1.531789 S    
C46   C61   1.447128 S    
N28   Ni1   1.875596 S    
N23   Ni5   1.857970 S    
C57   C61   1.534694 S    
C45   C62   1.445831 S    
C29   C47   1.358642 A    
C27   N27   1.337631 A    
C54   C56   1.540173 S    
C26   N26   1.335048 A    
C40   C86   1.427583 S    
N40   O15   1.300933 A    
N24   Ni6   1.857971 S    
N32   Ni5   1.875596 S    
C96   F16   1.354800 S    
C70   C85   1.391611 A    
C73   C81   1.397288 A    
N17   Ni3   1.858159 S    
N22   Ni8   1.858158 S    
N42   O20   1.300931 A    
N44   O23   1.300375 A    
N44   O24   1.300819 A    
C78   H34   1.084499 S    
N17   N20   1.433012 A    
C13   N45   1.427832 S    
C20   N20   1.340076 A    
C74   C82   1.395756 A    
C4    N4    1.338567 A    
N18   N19   1.433012 A    
C21   N21   1.340610 A    
C54   C63   1.532392 S    
N21   Ni7   1.858159 S    
N30   N31   1.365083 A    
C19   N19   1.344902 A    
N34   O3    1.300849 A    
N7    N14   1.388318 A    
C7    C39   1.367598 A    
C58   H10   1.109950 S    
N21   N24   1.433012 A    
C65   H21   1.083173 S    
C77   H33   1.083312 S    
C24   N24   1.339816 A    
C51   C58   1.557588 S    
C57   H9    1.111152 S    
N22   N23   1.433012 A    
N48   O32   1.300822 A    
C90   C97   1.415107 A    
C18   C42   1.395106 A    
C14   N14   1.343515 A    
N18   Ni4   1.858158 S    
C22   C44   1.395073 A    
C91   C97   1.415216 A    
C68   C83   1.395956 A    
C59   H11   1.111097 S    
N4    Ni4   1.860935 S    
C11   C34   1.373691 A    
N9    Ni2   1.833547 S    
C67   H23   1.084497 S    
C9    N9    1.341592 A    
C2    C34   1.367580 A    
C13   N13   1.341575 A    
C14   C39   1.373261 A    
N40   O16   1.299348 A    
C75   C83   1.395870 A    
N26   Ni3   1.877370 S    
C56   C64   1.530384 S    
C16   N48   1.427680 S    
C72   H28   1.083195 S    
C30   H6    1.075252 S    
C33   C83   1.428153 S    
C50   C52   1.539844 S    
C50   C58   1.550493 S    
C53   C55   1.546220 S    
C92   F12   1.354819 S    
N4    N9    1.388318 A    
C77   C85   1.397282 A    
C1    C33   1.380095 A    
C52   H16   1.110538 S    
C66   C81   1.391505 A    
C68   H24   1.083201 S    
N30   Ni7   1.877370 S    
C3    C35   1.367366 A    
C72   C87   1.395921 A    
C17   N17   1.340359 A    
C76   H32   1.083359 S    
C79   C87   1.395909 A    
N38   O11   1.300739 A    
N7    Ni7   1.860935 S    
C74   H30   1.084470 S    
N13   Ni6   1.833547 S    
C94   C96   1.389980 A    
C71   C88   1.391661 A    
C67   C84   1.391595 A    
C13   C40   1.383498 A    
C75   H31   1.084522 S    
C95   F15   1.350443 S    
C2    N34   1.435491 S    
C41   C97   1.501304 S    
C12   C33   1.383913 A    
C60   C64   1.531867 S    
N12   Ni3   1.835245 S    
C52   C62   1.530222 S    
C15   C38   1.373623 A    
C17   F1    1.344499 S    
N37   O9    1.299291 A    
C70   C74   1.370778 A    
C22   N22   1.344623 A    
C3    N3    1.336222 A    
C26   C46   1.368465 A    
C5    N37   1.429417 S    
N39   O13   1.298816 A    
N6    Ni6   1.860786 S    
N3    Ni3   1.860935 S    
C16   C37   1.383933 A    
N16   Ni7   1.835245 S    
C69   H25   1.083186 S    
N42   O19   1.300138 A    
N2    Ni2   1.860786 S    
C20   F4    1.344530 S    
N33   O1    1.299278 A    
C21   F5    1.344455 S    
C6    N38   1.435686 S    
C53   C59   1.534732 S    
C8    C40   1.380210 A    
C21   C43   1.393140 A    
C10   N42   1.436707 S    
C80   H36   1.083368 S    
C56   H20   1.110421 S    
N36   O7    1.300928 A    
C44   C100  1.490576 S    
C7    N39   1.435644 S    
N48   O31   1.300374 A    
C65   C77   1.387157 A    
C56   C59   1.531474 S    
C31   N31   1.337728 A    
C96   C100  1.403957 A    
N1    N12   1.388393 A    
C67   C79   1.370925 A    
N39   O14   1.300743 A    
C15   N15   1.343758 A    
C70   H26   1.084467 S    
