data_mof_unit_49117.cif
_audit_creation_date              2012-12-10T19:08:06-0500
_audit_creation_method            fapswitch 2.2
_symmetry_space_group_name_H-M    P1
_symmetry_Int_Tables_number       1
_space_group_crystal_system       triclinic
_cell_length_a                    9.065156
_cell_length_b                    10.811571
_cell_length_c                    9.582303
_cell_angle_alpha                 89.54319
_cell_angle_beta                  90.310604
_cell_angle_gamma                 90.31464
_cell_volume                      939.090300787

loop_
_atom_site_label
_atom_site_type_symbol
_atom_type_description
_atom_site_fract_x
_atom_site_fract_y
_atom_site_fract_z
_atom_type_partial_charge
C1    C     C_R   0.498154 0.262577 0.500180 0.796809
C2    C     C_R   0.569541 0.937085 0.392363 -0.216475
C3    C     C_R   0.494093 0.870606 0.496429 -0.083157
C4    C     C_R   0.403448 0.934766 0.587555 0.068707
C5    C     C_3   0.382659 0.926261 0.741807 -0.455562
C6    C     C_3   0.377469 0.067591 0.740939 -0.047795
C7    C     C_R   0.537671 0.604161 0.073258 0.224027
C8    C     C_R   0.446340 0.402195 0.074785 -0.071491
C9    C     C_R   0.445835 0.402518 0.926381 -0.091087
C10   C     C_R   0.542699 0.602985 0.926708 0.242062
C11   C     C_3   0.687781 0.672712 0.928058 -0.114469
C12   C     C_R   0.220806 0.499871 0.499761 0.844203
C13   C     C_3   0.676442 0.676557 0.086535 -0.493321
C14   C     C_R   0.499888 0.737424 0.499498 0.793816
C15   C     C_R   0.779180 0.499925 0.500232 0.841200
C16   C     C_1   0.065587 0.499844 0.499693 -0.189794
C17   C     C_1   0.934393 0.499852 0.500298 -0.206846
C18   C     C_R   0.401043 0.062041 0.586929 0.122265
C19   C     C_R   0.492431 0.129340 0.497170 -0.114793
C20   C     C_R   0.568478 0.066061 0.392411 -0.212814
Cu1   Cu    Cu3+1 0.499990 0.499980 0.640670 0.936389
Cu2   Cu    Cu3+1 0.500010 0.500020 0.359330 0.942423
H1    H     H_    0.633364 0.115921 0.315524 0.157667
H2    H     H_    0.679569 0.766223 0.879815 0.154932
H3    H     H_    0.763539 0.625320 0.144766 0.226096
H4    H     H_    0.655795 0.771210 0.124950 0.161542
H5    H     H_    0.636271 0.890011 0.316663 0.145113
H6    H     H_    0.277049 0.879701 0.769724 0.201607
H7    H     H_    0.481284 0.889244 0.796705 0.168754
H8    H     H_    0.470967 0.111593 0.797866 0.165673
H9    H     H_    0.404849 0.321828 0.130047 0.145143
H10   H     H_    0.404308 0.322719 0.872114 0.148508
N1    N     N_R   0.500920 0.500930 0.147930 -0.180704
N2    N     N_R   0.500930 0.500890 0.852020 -0.182797
O1    O     O_R   0.500000 0.319640 0.618810 -0.590618
O2    O     O_R   0.500020 0.319680 0.381230 -0.589706
O3    O     O_R   0.288380 0.499980 0.618770 -0.578751
O4    O     O_R   0.288400 0.500020 0.381190 -0.573115
O5    O     O_R   0.499980 0.680320 0.618770 -0.584787
O6    O     O_R   0.500000 0.680360 0.381190 -0.582064
O7    O     O_R   0.711600 0.499980 0.618810 -0.575568
O8    O     O_R   0.711620 0.500020 0.381230 -0.578348
C21   C     C_3   0.225762 0.119807 0.776963 -0.858085
H11   H     H_    0.208384 0.113142 0.891366 0.233333
H12   H     H_    0.219505 0.218394 0.744367 0.237859
H13   H     H_    0.135846 0.068447 0.722892 0.243458
C22   C     C_3   0.824527 0.601664 0.881041 -0.724581
H14   H     H_    0.852247 0.628790 0.772668 0.236791
H15   H     H_    0.921680 0.628028 0.945646 0.211959
H16   H     H_    0.808069 0.499981 0.889674 0.246394

loop_
_geom_bond_atom_site_label_1
_geom_bond_atom_site_label_2
_ccdc_geom_bond_type
C7    C10   A    
C21   H11   S    
C2    H5    S    
Cu1   O1    S    
C5    H6    S    
C7    N1    A    
C1    O1    A    
C11   C22   S    
C19   C20   A    
Cu1   O5    S    
C20   H1    S    
C6    C21   S    
Cu2   O6    S    
C2    C3    A    
C4    C18   A    
C10   N2    A    
Cu1   Cu2   S    
C21   H12   S    
C11   C13   S    
C13   H3    S    
Cu2   O8    S    
C3    C14   S    
Cu1   O7    S    
C5    C6    S    
C15   O8    A    
C6    H8    S    
C22   H16   S    
C5    H7    S    
C8    N1    A    
C12   O4    A    
C9    N2    A    
C6    C18   S    
C21   H13   S    
C13   H4    S    
C1    C19   S    
C16   C17   T    
C10   C11   S    
C2    C20   A    
C3    C4    A    
Cu2   O4    S    
C12   C16   S    
C11   H2    S    
C7    C13   S    
Cu1   O3    S    
C15   O7    A    
C22   H15   S    
C18   C19   A    
C12   O3    A    
C15   C17   S    
Cu2   N1    S    
C8    C9    A    
Cu1   N2    S    
C9    H10   S    
C14   O5    A    
C8    H9    S    
C14   O6    A    
Cu2   O2    S    
C22   H14   S    
C1    O2    A    
C4    C5    S    
