data_mof_unit_15420.cif
_audit_creation_date              2012-12-10T17:51:34-0500
_audit_creation_method            fapswitch 2.2
_symmetry_space_group_name_H-M    P1
_symmetry_Int_Tables_number       1
_space_group_crystal_system       triclinic
_cell_length_a                    9.952033
_cell_length_b                    10.649083
_cell_length_c                    16.562133
_cell_angle_alpha                 91.173078
_cell_angle_beta                  82.841892
_cell_angle_gamma                 90.877843
_cell_volume                      1741.06566745

loop_
_atom_site_label
_atom_site_type_symbol
_atom_type_description
_atom_site_fract_x
_atom_site_fract_y
_atom_site_fract_z
_atom_type_partial_charge
C1    C     C_R   0.501274 0.738809 0.495882 0.863779
C2    C     C_R   0.539278 0.523733 0.259674 -0.042146
C3    C     C_R   0.382326 0.865810 0.367771 -0.290353
C4    C     C_R   0.479157 0.499096 0.653460 0.979129
C5    C     C_R   0.325192 0.929284 0.307461 0.492182
C6    C     C_R   0.334223 0.061388 0.305729 0.009299
C7    C     C_R   0.394705 0.126727 0.365956 -0.227525
C8    C     C_R   0.444671 0.063374 0.429953 0.034688
C9    C     C_R   0.441748 0.931951 0.429535 0.005919
C10   C     C_R   0.503368 0.870732 0.489781 -0.081253
C11   C     C_R   0.570968 0.935330 0.546085 -0.113799
C12   C     C_R   0.420725 0.448826 0.801076 0.469270
C13   C     C_R   0.575219 0.063227 0.547221 0.069554
C14   C     C_R   0.504634 0.127517 0.492322 -0.126042
C15   C     C_R   0.847677 0.674948 0.600443 -0.207658
C16   C     C_R   0.500386 0.260476 0.498464 0.890217
C17   C     C_R   0.917989 0.762915 0.645140 -0.018579
C18   C     C_R   0.056935 0.745108 0.648345 0.297553
C19   C     C_R   0.109618 0.627398 0.624129 0.355779
C20   C     C_R   0.061217 0.573285 0.555522 -0.053985
C21   C     C_R   0.919370 0.581868 0.551043 0.116561
C22   C     C_R   0.936849 0.423911 0.448730 0.110251
C23   C     C_R   0.444712 0.517599 0.133202 -0.149617
C24   C     C_R   0.081621 0.426025 0.447442 0.167785
C25   C     C_R   0.521511 0.501624 0.346448 0.827219
C26   C     C_R   0.464420 0.533555 0.738732 -0.177873
C27   C     C_R   0.491721 0.659823 0.757092 -0.147774
C28   C     C_R   0.474641 0.704330 0.836965 0.184252
C29   C     C_R   0.429149 0.620811 0.899133 0.038178
C30   C     C_R   0.402301 0.494478 0.881112 -0.186060
C31   C     C_R   0.441669 0.478837 0.212553 -0.146575
C32   C     C_R   0.644402 0.603098 0.225876 -0.227500
C33   C     C_R   0.647614 0.643921 0.145798 0.136761
C34   C     C_R   0.544210 0.603804 0.100247 0.225165
C35   C     C_2   0.428714 0.655587 0.984289 -0.186806
C36   C     C_2   0.544730 0.643241 0.016011 -0.212327
H1    H     H_    0.526350 0.724192 0.708790 0.154518
H2    H     H_    0.368531 0.480043 0.097717 0.135085
H3    H     H_    0.332064 0.654029 0.022858 0.207271
H4    H     H_    0.707409 0.814937 0.104249 0.213674
H5    H     H_    0.823991 0.744108 0.151747 0.215618
H6    H     H_    0.183550 0.648204 0.217818 0.376387
H7    H     H_    0.330747 0.098614 0.186408 0.250303
H8    H     H_    0.180669 0.119146 0.246452 0.232502
H9    H     H_    0.740407 0.165113 0.570744 0.220262
H10   H     H_    0.598608 0.194858 0.636096 0.258472
H11   H     H_    0.911008 0.363560 0.334909 0.170778
H12   H     H_    0.620006 0.885368 0.590032 0.143566
H13   H     H_    0.896664 0.249707 0.405986 0.170368
H14   H     H_    0.744774 0.856407 0.688476 0.173304
H15   H     H_    0.859886 0.851519 0.752208 0.254505
H16   H     H_    0.147536 0.007995 0.614820 0.350064
H17   H     H_    0.092634 0.321456 0.718535 0.417752
H18   H     H_    0.148661 0.368117 0.332758 0.166962
H19   H     H_    0.134081 0.253293 0.402987 0.175884
H20   H     H_    0.346090 0.160715 0.687477 0.409824
H21   H     H_    0.581731 0.837834 0.890925 0.196018
H22   H     H_    0.417973 0.873910 0.885408 0.258768
H23   H     H_    0.382303 0.764489 0.364746 0.210533
H24   H     H_    0.404873 0.227497 0.360659 0.178742
H25   H     H_    0.740519 0.683107 0.604442 0.202086
H26   H     H_    0.361269 0.416070 0.237756 0.157679
H27   H     H_    0.719625 0.638178 0.262989 0.161522
H28   H     H_    0.640713 0.642779 0.976563 0.188005
H29   H     H_    0.372114 0.430287 0.930270 0.178334
N1    N     N_R   0.857140 0.501200 0.500750 -0.097296
N2    N     N_R   0.142740 0.501280 0.500770 -0.091820
N3    N     N_3   0.752372 0.728419 0.111370 -0.438615
N4    N     N_3   0.285450 0.131990 0.242929 -0.463336
N5    N     N_3   0.654669 0.124537 0.603506 -0.400504
N6    N     N_3   0.872868 0.342484 0.394825 -0.395247
N7    N     N_3   0.848711 0.863880 0.690957 -0.351766
N8    N     N_3   0.164403 0.346407 0.392061 -0.404587
N9    N     N_3   0.504518 0.833632 0.853537 -0.393381
O1    O     O_R   0.385310 0.683220 0.500000 -0.617641
O2    O     O_2   0.339252 0.846001 0.153646 -0.322445
O3    O     O_3   0.227495 0.690248 0.261754 -0.575785
O4    O     O_2   0.125542 0.840664 0.788250 -0.197178
O5    O     O_2   0.303186 0.833138 0.671984 -0.345950
O6    O     O_3   0.116569 0.001678 0.673830 -0.503090
O7    O     O_2   0.173029 0.567894 0.771702 -0.262860
O8    O     O_2   0.943702 0.520039 0.743043 -0.309858
O9    O     O_3   0.133910 0.377102 0.674771 -0.487687
O10   O     O_2   0.520715 0.218556 0.799995 -0.297154
O11   O     O_2   0.277851 0.240317 0.842557 -0.247517
O12   O     O_R   0.614640 0.683250 0.500010 -0.652491
O13   O     O_3   0.364050 0.252439 0.688605 -0.567408
O14   O     O_R   0.371780 0.500010 0.615800 -0.519603
O15   O     O_R   0.601110 0.500030 0.615800 -0.640260
O16   O     O_R   0.385360 0.316750 0.499990 -0.568477
O17   O     O_R   0.614690 0.316780 0.500000 -0.617433
O18   O     O_R   0.398890 0.499970 0.384200 -0.594172
O19   O     O_R   0.628220 0.499990 0.384200 -0.600890
O20   O     O_2   0.113476 0.894174 0.223213 -0.320271
S1    S     S_3+6 0.249095 0.840677 0.233363 -0.016020
S2    S     S_3+6 0.155182 0.854922 0.697692 0.069076
S3    S     S_3+6 0.090114 0.523109 0.706979 0.074889
S4    S     S_3+6 0.395326 0.285878 0.784067 0.041012
Zn1   Zn    Zn3+2 0.346870 0.499980 0.499990 1.043103
Zn2   Zn    Zn3+2 0.653130 0.500020 0.500010 0.966208

loop_
_geom_bond_atom_site_label_1
_geom_bond_atom_site_label_2
_ccdc_geom_bond_type
C6    N4    S    
C16   O16   A    
C21   N1    A    
C18   S2    S    
C7    H24   S    
C20   N2    A    
C35   C36   D    
C28   N9    S    
C19   S3    S    
C7    C8    A    
C25   O19   A    
C26   C27   A    
C22   C24   A    
C28   C29   A    
O2    S1    D    
C5    C6    A    
C24   N8    S    
C13   N5    S    
C2    C32   A    
C18   C19   A    
N1    Zn2   S    
H14   N7    S    
C22   N1    A    
O11   S4    D    
C24   N2    A    
C19   C20   A    
O4    S2    D    
C8    C9    A    
O17   Zn2   S    
O6    S2    S    
O12   Zn2   S    
C9    C10   A    
C12   S4    S    
N2    Zn1   S    
O13   S4    S    
H7    N4    S    
C13   C14   A    
C31   H26   S    
C11   H12   S    
O14   Zn1   S    
C5    S1    S    
C33   C34   A    
H5    N3    S    
C22   N6    S    
O15   Zn2   S    
H4    N3    S    
C1    O1    A    
H20   O13   S    
O3    S1    S    
C12   C26   A    
C2    C31   A    
C23   C31   A    
H21   N9    S    
C35   H3    S    
C29   C30   A    
C3    C9    A    
H18   N8    S    
C23   C34   A    
O1    Zn1   S    
C17   C18   A    
C15   H25   S    
H8    N4    S    
O19   Zn2   S    
H11   N6    S    
C17   N7    S    
O9    S3    S    
O8    S3    D    
C14   C16   S    
H15   N7    S    
O16   Zn1   S    
H22   N9    S    
C4    O15   A    
C1    O12   A    
C15   C17   A    
C25   O18   A    
C8    C14   A    
C12   C30   A    
H9    N5    S    
C1    C10   S    
C32   H27   S    
C3    C5    A    
C4    C26   S    
C6    C7    A    
C4    O14   A    
C23   H2    S    
C29   C35   S    
H17   O9    S    
O10   S4    D    
C32   C33   A    
O5    S2    D    
H16   O6    S    
C11   C13   A    
O7    S3    D    
C27   H1    S    
C2    C25   S    
C34   C36   S    
O20   S1    D    
H10   N5    S    
C30   H29   S    
C10   C11   A    
H19   N8    S    
C16   O17   A    
C15   C21   A    
C20   C21   A    
O18   Zn1   S    
H6    O3    S    
H13   N6    S    
C27   C28   A    
C36   H28   S    
C33   N3    S    
C3    H23   S    
