data_mof_unit_44977.cif
_audit_creation_date              2012-12-10T16:53:52-0500
_audit_creation_method            fapswitch 2.2
_symmetry_space_group_name_H-M    P1
_symmetry_Int_Tables_number       1
_space_group_crystal_system       triclinic
_cell_length_a                    7.754074
_cell_length_b                    8.570375
_cell_length_c                    10.652529
_cell_angle_alpha                 91.257128
_cell_angle_beta                  85.176745
_cell_angle_gamma                 93.70143
_cell_volume                      703.841849599

loop_
_atom_site_label
_atom_site_type_symbol
_atom_type_description
_atom_site_fract_x
_atom_site_fract_y
_atom_site_fract_z
_atom_type_partial_charge
C1    C     C_R   0.545879 0.794840 0.496300 0.946599
C2    C     C_3   0.375882 0.624226 0.935803 -0.481027
C3    C     C_3   0.354349 0.614033 0.080482 -0.094477
C4    C     C_3   0.458214 0.342775 0.932848 -0.443989
C5    C     C_3   0.696920 0.561401 0.915305 0.049045
C6    C     C_3   0.509304 0.506330 0.878768 0.049474
C7    C     C_3   0.857060 0.603383 0.118675 -0.851633
C8    C     C_3   0.330435 0.777704 0.141473 -0.896595
C9    C     C_3   0.839569 0.443190 0.878995 -0.799547
C10   C     C_3   0.508487 0.522739 0.122592 0.068424
C11   C     C_3   0.474556 0.348727 0.075672 -0.019096
C12   C     C_3   0.683040 0.605968 0.057316 0.023216
C13   C     C_2   0.570098 0.958234 0.493470 -0.357584
C14   C     C_2   0.429841 0.041686 0.503925 -0.378166
C15   C     C_R   0.502211 0.500738 0.742420 0.857755
C16   C     C_R   0.454103 0.205152 0.502848 1.000350
C17   C     C_R   0.503470 0.517875 0.259094 0.906045
H1    H     H_    0.245643 0.599724 0.901003 0.194930
H2    H     H_    0.347700 0.302025 0.121454 0.133557
H3    H     H_    0.738360 0.670214 0.862292 0.118832
H4    H     H_    0.665524 0.733354 0.060121 0.157078
H5    H     H_    0.854726 0.677438 0.205699 0.255763
H6    H     H_    0.889268 0.483726 0.141543 0.279587
H7    H     H_    0.963535 0.656117 0.053977 0.226003
H8    H     H_    0.306723 0.772073 0.245300 0.269485
H9    H     H_    0.442793 0.860932 0.118456 0.265068
H10   H     H_    0.215588 0.827848 0.106080 0.253172
H11   H     H_    0.860241 0.365683 0.956572 0.268140
H12   H     H_    0.539941 0.252926 0.886318 0.200871
H13   H     H_    0.812140 0.362286 0.800070 0.252447
H14   H     H_    0.964828 0.508595 0.852117 0.212182
H15   H     H_    0.702533 0.009344 0.483301 0.186091
H16   H     H_    0.297402 0.990561 0.513798 0.176897
H17   H     H_    0.014488 0.383095 0.404132 0.200828
H18   H     H_    0.985478 0.616970 0.595794 0.189418
H19   H     H_    0.421579 0.744494 0.905388 0.188021
H20   H     H_    0.231000 0.543966 0.106630 0.192081
H21   H     H_    0.321836 0.307537 0.914043 0.166541
I1    I     I_    0.647458 0.179146 0.132136 -0.501462
N1    N     N_2   0.950330 0.457950 0.465890 -0.173858
N2    N     N_2   0.049670 0.542050 0.534110 -0.180517
O1    O     O_R   0.389250 0.738570 0.508370 -0.620222
O2    O     O_R   0.678390 0.711620 0.486510 -0.637049
O3    O     O_R   0.355430 0.513500 0.696140 -0.628125
O4    O     O_R   0.644580 0.486550 0.674270 -0.634757
O5    O     O_R   0.321610 0.288380 0.513490 -0.627828
O6    O     O_R   0.610750 0.261430 0.491630 -0.597736
O7    O     O_R   0.355420 0.513450 0.325730 -0.643829
O8    O     O_R   0.644570 0.486500 0.303860 -0.589357
Zn1   Zn    Zn3+2 0.306940 0.517990 0.514600 0.926855
Zn2   Zn    Zn3+2 0.693060 0.482010 0.485400 0.942104

loop_
_geom_bond_atom_site_label_1
_geom_bond_atom_site_label_2
_ccdc_geom_bond_type
N2    Zn1   S    
O6    Zn2   S    
C5    C9    S    
C2    H1    S    
N1    Zn2   S    
C8    H9    S    
O5    Zn1   S    
C13   H15   S    
C4    H12   S    
C17   O7    A    
C11   H2    S    
C14   H16   S    
O7    Zn1   S    
C2    C3    S    
C5    H3    S    
C13   C14   D    
C4    C11   S    
C11   I1    S    
C8    H8    S    
O2    Zn2   S    
C2    C6    S    
C10   C12   S    
C9    H13   S    
O1    Zn1   S    
C7    H6    S    
C16   O6    A    
N1    N2    D    
C4    H21   S    
C15   O3    A    
C5    C6    S    
H18   N2    S    
C14   C16   S    
C7    C12   S    
C1    C13   S    
C10   C11   S    
C9    H14   S    
C10   C17   S    
C17   O8    A    
C7    H7    S    
C7    H5    S    
C1    O1    A    
C2    H19   S    
C3    H20   S    
C5    C12   S    
C4    C6    S    
C3    C8    S    
C16   O5    A    
C3    C10   S    
C8    H10   S    
O4    Zn2   S    
H17   N1    S    
O3    Zn1   S    
C6    C15   S    
C12   H4    S    
C1    O2    A    
C9    H11   S    
O8    Zn2   S    
C15   O4    A    
