data_mof_unit_10767.cif
_audit_creation_date              2013-03-05T16:47:54-0500
_audit_creation_method            fapswitch 2.2
_symmetry_space_group_name_H-M    P1
_symmetry_Int_Tables_number       1
_space_group_crystal_system       triclinic
_cell_length_a                    8.111408
_cell_length_b                    8.936146
_cell_length_c                    16.634248
_cell_angle_alpha                 90.033982
_cell_angle_beta                  83.448706
_cell_angle_gamma                 90.001268
_cell_volume                      1197.8554249

loop_
_atom_site_label
_atom_site_type_symbol
_atom_site_description
_atom_site_fract_x
_atom_site_fract_y
_atom_site_fract_z
_atom_type_partial_charge
O1    O     O_R   0.363150 0.714660 0.500000 -0.610997
O2    O     O_R   0.636850 0.285340 0.500000 -0.612379
O3    O     O_R   0.636850 0.714660 0.500000 -0.611108
O4    O     O_R   0.363150 0.285340 0.500000 -0.612665
H1    H     H_    0.328965 0.154923 0.853663 0.168154
H2    H     H_    0.806347 0.258498 0.126235 0.190611
C1    C     C_R   0.499994 0.782016 0.500028 0.938873
C2    C     C_R   0.499983 0.217990 0.500067 0.931622
O5    O     O_R   0.346950 0.500000 0.615800 -0.609361
O6    O     O_R   0.653050 0.500000 0.384200 -0.619317
O7    O     O_R   0.620700 0.500000 0.615800 -0.601360
O8    O     O_R   0.379300 0.500000 0.384200 -0.611390
C3    C     C_R   0.474579 0.498107 0.653879 0.847612
C4    C     C_R   0.525660 0.496392 0.345901 0.861945
Zn1   Zn    Zn3+2 0.317220 0.500000 0.500010 1.005129
Zn2   Zn    Zn3+2 0.682780 0.500000 0.499990 1.003804
H3    H     H_    0.355834 0.496233 0.091434 0.160676
H4    H     H_    0.568260 0.563363 0.918098 0.154431
N1    N     N_1   0.926360 0.500000 0.499990 -0.024894
N2    N     N_1   0.073640 0.500000 0.500010 -0.024128
C5    C     C_R   0.453717 0.456373 0.738110 -0.024408
C6    C     C_R   0.549196 0.462578 0.259962 -0.047007
C7    C     C_R   0.521440 0.544339 0.795123 -0.166729
C8    C     C_R   0.429713 0.504301 0.210187 -0.161791
C9    C     C_R   0.517294 0.493007 0.873977 -0.092288
C10   C     C_R   0.447066 0.459217 0.129832 -0.104583
C11   C     C_R   0.453413 0.349777 0.895048 0.112887
C12   C     C_R   0.580755 0.367036 0.099401 0.113624
C13   C     C_R   0.380327 0.264460 0.838200 -0.034565
C14   C     C_R   0.701565 0.327617 0.149032 -0.049460
C15   C     C_R   0.379210 0.318408 0.759926 -0.176955
C16   C     C_R   0.686547 0.376054 0.228837 -0.196839
C17   C     C_2   0.462763 0.291526 0.977197 0.121698
C18   C     C_2   0.599983 0.321674 0.013785 0.126501
C19   C     C_1   0.499982 0.934827 0.500078 -0.183082
C20   C     C_1   0.499974 0.065196 0.500094 -0.182743
H5    H     H_    0.578519 0.651200 0.778404 0.145060
H6    H     H_    0.323685 0.571561 0.233389 0.161224
H7    H     H_    0.779322 0.341396 0.266977 0.166526
H8    H     H_    0.327738 0.249446 0.715305 0.144780
N3    N     N_R   0.759738 0.340244 0.966788 0.208726
O9    O     O_R   0.866586 0.436012 0.989067 -0.345915
O10   O     O_R   0.800238 0.258912 0.902620 -0.353466
N4    N     N_R   0.316528 0.227195 0.021786 0.194985
O11   O     O_R   0.170500 0.250619 0.998971 -0.324238
O12   O     O_R   0.329922 0.137424 0.082306 -0.377202

loop_
_geom_bond_atom_site_label_1
_geom_bond_atom_site_label_2
_geom_bond_distance
_ccdc_geom_bond_type
C8    H6    1.083454 S    
N3    O9    1.301444 A    
O1    Zn1   1.954065 S    
C11   C13   1.397841 A    
O2    Zn2   1.954066 S    
O7    Zn2   1.934756 S    
C10   C12   1.408898 A    
C19   C20   1.164995 T    
O8    Zn1   1.934756 S    
O4    C2    1.262706 A    
C4    C6    1.452072 S    
O4    Zn1   1.954082 S    
C12   C14   1.396737 A    
C17   C18   1.355076 D    
O5    Zn1   1.968228 S    
C3    C5    1.441317 S    
C13   C15   1.389679 A    
O6    Zn2   1.968229 S    
C11   C17   1.472578 S    
C14   C16   1.388115 A    
N3    O10   1.301744 A    
C5    C15   1.402632 A    
C18   N3    1.444598 S    
C6    C16   1.405371 A    
Zn2   N1    1.975777 S    
H3    C10   1.083104 S    
H2    C14   1.083456 S    
O8    C4    1.282075 A    
O3    C1    1.262736 A    
C7    C9    1.386605 A    
C5    C7    1.391775 A    
O6    C4    1.274691 A    
Zn1   N2    1.975777 S    
H4    C9    1.083289 S    
C6    C8    1.395468 A    
C9    C11   1.410183 A    
C12   C18   1.471572 S    
H1    C13   1.083362 S    
O7    C3    1.278672 A    
N4    O11   1.301360 A    
C2    C20   1.365388 S    
C16   H7    1.083477 S    
O5    C3    1.273929 A    
N4    O12   1.301817 A    
O1    C1    1.262725 A    
C15   H8    1.084046 S    
C7    H5    1.083740 S    
C17   N4    1.444761 S    
C1    C19   1.365543 S    
O2    C2    1.262708 A    
O3    Zn2   1.954081 S    
N1    N2    1.194686 T    
C8    C10   1.387512 A    
