data_mof_unit_53043.cif
_audit_creation_date              2013-03-05T16:42:34-0500
_audit_creation_method            fapswitch 2.2
_symmetry_space_group_name_H-M    P1
_symmetry_Int_Tables_number       1
_space_group_crystal_system       triclinic
_cell_length_a                    11.546482
_cell_length_b                    10.687469
_cell_length_c                    9.872899
_cell_angle_alpha                 90.19599
_cell_angle_beta                  89.993182
_cell_angle_gamma                 90.027753
_cell_volume                      1218.33480257

loop_
_atom_site_label
_atom_site_type_symbol
_atom_site_description
_atom_site_fract_x
_atom_site_fract_y
_atom_site_fract_z
_atom_type_partial_charge
O1    O     O_R   0.500010 0.316790 0.614690 -0.617791
O2    O     O_R   0.500000 0.316760 0.385350 -0.620273
C1    C     C_R   0.497533 0.260077 0.500024 0.875246
O3    O     O_R   0.334450 0.500030 0.614670 -0.608244
O4    O     O_R   0.334440 0.500000 0.385330 -0.611872
C2    C     C_R   0.281901 0.499708 0.500031 0.890647
Zn1   Zn    Zn3+2 0.500010 0.500020 0.653130 0.974539
Zn2   Zn    Zn3+2 0.499990 0.499980 0.346870 0.952966
O5    O     O_R   0.500000 0.683240 0.614650 -0.615523
O6    O     O_R   0.499990 0.683210 0.385310 -0.625075
O7    O     O_R   0.665560 0.500000 0.614670 -0.590629
O8    O     O_R   0.665550 0.499970 0.385330 -0.619339
C3    C     C_R   0.497424 0.739892 0.500296 0.869448
C4    C     C_R   0.718098 0.499777 0.500012 0.914250
C5    C     C_1   0.161474 0.499080 0.500156 -0.164774
C6    C     C_1   0.059324 0.498728 0.500263 0.029557
C7    C     C_1   0.940688 0.498767 0.500231 0.027835
C8    C     C_1   0.838534 0.499159 0.500100 -0.159040
C9    C     C_R   0.502907 0.063918 0.622203 0.022434
C10   C     C_R   0.483831 0.128414 0.501876 -0.117022
C11   C     C_R   0.445707 0.064193 0.386206 -0.210090
H1    H     H_    0.422087 0.112975 0.294580 0.161805
C12   C     C_R   0.445547 0.934725 0.386240 -0.217835
H2    H     H_    0.422543 0.885091 0.294224 0.172428
C13   C     C_R   0.482693 0.871357 0.502453 -0.086158
C14   C     C_R   0.501021 0.936408 0.622780 0.127538
C15   C     C_3   0.598149 0.927362 0.722593 -0.558795
C16   C     C_3   0.600640 0.069725 0.722382 -0.192162
H3    H     H_    0.568758 0.887727 0.820735 0.209882
H4    H     H_    0.676346 0.881445 0.679083 0.190767
H5    H     H_    0.574094 0.111530 0.820893 0.177003
C17   C     C_R   0.406769 0.455281 0.070947 0.229197
N1    N     N_R   0.499240 0.499140 0.142800 -0.114649
C18   C     C_R   0.587129 0.554835 0.072122 -0.123256
H6    H     H_    0.658499 0.597229 0.126394 0.158361
C19   C     C_R   0.587152 0.554818 0.928219 -0.109878
H7    H     H_    0.658522 0.597217 0.874231 0.159711
N2    N     N_R   0.499240 0.499180 0.857150 -0.127412
C20   C     C_R   0.406578 0.455746 0.928368 0.242843
C21   C     C_3   0.358650 0.326198 0.921615 -0.292608
C22   C     C_3   0.359057 0.325602 0.075996 -0.528700
H8    H     H_    0.420171 0.258132 0.876077 0.141568
H9    H     H_    0.271878 0.322794 0.123806 0.226968
H10   H     H_    0.422337 0.258121 0.118398 0.193266
C23   C     C_2   0.710817 0.123161 0.665066 0.466385
H11   H     H_    0.744832 0.088942 0.569321 0.053889
O9    O     O_2   0.762289 0.205908 0.725657 -0.551962
C24   C     C_2   0.239878 0.321129 0.858888 0.495059
H12   H     H_    0.220929 0.249984 0.783446 0.051788
O10   O     O_2   0.164438 0.395505 0.891516 -0.552295

loop_
_geom_bond_atom_site_label_1
_geom_bond_atom_site_label_2
_geom_bond_distance
_ccdc_geom_bond_type
O4    Zn2   1.948823 S    
C17   C22   1.492151 S    
C21   C22   1.524235 S    
O2    C1    1.286180 A    
C15   H3    1.111782 S    
C4    C8    1.390628 S    
C9    C10   1.393107 A    
Zn2   O8    1.949028 S    
C17   N1    1.363966 A    
C24   O10   1.221987 D    
C7    C8    1.179532 T    
C2    C5    1.390516 S    
C1    C10   1.416120 S    
O1    Zn1   1.993426 S    
C11   H1    1.080711 S    
C15   H4    1.113313 S    
Zn1   O7    1.948823 S    
C9    C16   1.501768 S    
C22   H9    1.112170 S    
C3    C13   1.415454 S    
C14   C15   1.496395 S    
N2    C20   1.362418 A    
O3    Zn1   1.949027 S    
C19   N2    1.368583 A    
C19   H7    1.081540 S    
C22   H10   1.109904 S    
Zn1   N2    2.014338 S    
O8    C4    1.284645 A    
N1    C18   1.368635 A    
C18   C19   1.420732 A    
Zn2   N1    2.014771 S    
C11   C12   1.383694 A    
O4    C2    1.284637 A    
Zn2   O6    1.993426 S    
O7    C4    1.284231 A    
C16   C23   1.505351 S    
C17   C20   1.407698 A    
C6    C7    1.369829 S    
C12   H2    1.083454 S    
C5    C6    1.179486 T    
C15   C16   1.521766 S    
C12   C13   1.401701 A    
C10   C11   1.401241 A    
O3    C2    1.284253 A    
C18   H6    1.081468 S    
C23   O9    1.220296 D    
C20   C21   1.492071 S    
Zn1   O5    1.995948 S    
C9    C14   1.362948 A    
C21   C24   1.505686 S    
C24   H12   1.084802 S    
O5    C3    1.283284 A    
C13   C14   1.390569 A    
C23   H11   1.085924 S    
C16   H5    1.112034 S    
O2    Zn2   1.995946 S    
C21   H8    1.110899 S    
O1    C1    1.282620 A    
O6    C3    1.285281 A    
