data_mof_unit_31280.cif
_audit_creation_date              2012-12-11T17:10:38-0500
_audit_creation_method            fapswitch 2.2
_symmetry_space_group_name_H-M    P1
_symmetry_Int_Tables_number       1
_space_group_crystal_system       triclinic
_cell_length_a                    14.888909
_cell_length_b                    15.034116
_cell_length_c                    15.140548
_cell_angle_alpha                 110.154092
_cell_angle_beta                  109.894529
_cell_angle_gamma                 108.411923
_cell_volume                      2606.88368237

loop_
_atom_site_label
_atom_site_type_symbol
_atom_type_description
_atom_site_fract_x
_atom_site_fract_y
_atom_site_fract_z
_atom_type_partial_charge
C1    C     C_R   0.186529 0.282639 0.255417 -0.162409
C2    C     C_R   0.455798 0.455040 0.777538 0.060429
C3    C     C_R   0.569408 0.202607 0.501541 0.096639
C4    C     C_R   0.200937 0.574188 0.497470 0.068186
C5    C     C_R   0.468243 0.721248 0.408288 -0.113621
C6    C     C_R   0.813962 0.566238 0.595209 -0.121421
C7    C     C_R   0.508970 0.418112 0.202665 0.159292
C8    C     C_R   0.703295 0.797692 0.802206 0.156320
C9    C     C_R   0.800397 0.711667 0.804986 -0.187451
C10   C     C_R   0.418982 0.512498 0.205716 -0.170683
C11   C     C_R   0.563401 0.813774 0.591264 -0.050126
C12   C     C_R   0.527074 0.434573 0.746230 -0.094055
C13   C     C_R   0.727009 0.476455 0.413957 -0.132169
C14   C     C_R   0.542077 0.822537 0.499415 0.050007
C15   C     C_R   0.829851 0.552982 0.507786 0.055655
C16   C     C_R   0.461302 0.463886 0.150163 0.018839
C17   C     C_R   0.798959 0.804175 0.864886 0.013133
C18   C     C_R   0.076723 0.578743 0.176847 -0.195048
C19   C     C_R   0.081948 0.613315 0.277595 -0.167375
C20   C     C_R   0.012906 0.540871 0.294233 0.120036
C21   C     C_R   0.934290 0.434768 0.207033 -0.229565
C22   C     C_R   0.928771 0.400494 0.106054 -0.171096
C23   C     C_R   0.511518 0.205089 0.411721 -0.089703
C24   C     C_R   0.001190 0.471947 0.091542 0.279192
C25   C     C_R   0.932512 0.572847 0.411294 -0.220493
C26   C     C_R   0.935392 0.600577 0.511082 0.049563
C27   C     C_R   0.039499 0.660283 0.607698 0.025215
C28   C     C_R   0.131685 0.671267 0.598966 -0.159749
C29   C     C_R   0.121054 0.613108 0.498066 0.068049
C30   C     C_R   0.023670 0.576263 0.402872 0.039637
C31   C     C_R   0.068274 0.803591 0.774909 -0.173420
C32   C     C_R   0.082907 0.843230 0.879625 -0.068675
C33   C     C_R   0.089039 0.781783 0.930473 -0.102456
C34   C     C_R   0.292676 0.599759 0.588847 -0.094132
C35   C     C_R   0.080323 0.680530 0.877047 -0.165682
C36   C     C_R   0.063605 0.638331 0.770972 0.128258
C37   C     C_R   0.057273 0.700916 0.719308 0.046482
C38   C     C_R   0.531463 0.442767 0.937616 0.156602
C39   C     C_R   0.441793 0.434446 0.858353 0.052785
C40   C     C_R   0.349111 0.421847 0.868692 -0.185135
C41   C     C_R   0.352557 0.429488 0.964475 -0.176844
C42   C     C_R   0.449430 0.451243 0.048408 0.028489
C43   C     C_R   0.535534 0.452702 0.031489 0.129319
C44   C     C_3   0.654662 0.534871 0.100777 -0.476648
C45   C     C_R   0.596104 0.292223 0.591807 -0.052792
C46   C     C_3   0.651045 0.524226 0.996382 -0.485730
C47   C     C_R   0.464861 0.920770 0.435297 -0.001002
C48   C     C_R   0.557424 0.919473 0.496629 0.071750
C49   C     C_R   0.661249 0.010088 0.549227 -0.232725
C50   C     C_R   0.668886 0.105021 0.548076 0.223695
C51   C     C_R   0.571750 0.107194 0.495994 0.002727
C52   C     C_R   0.471608 0.011735 0.433409 0.005864
C53   C     C_3   0.358304 0.983202 0.415940 0.057278
C54   C     C_3   0.352755 0.881962 0.421911 0.011390
C55   C     C_R   0.982572 0.090244 0.080818 0.115143
C56   C     C_R   0.201654 0.507384 0.408381 -0.141270
C57   C     C_R   0.063469 0.084565 0.155352 0.053290
C58   C     C_R   0.040663 0.983845 0.150074 -0.146335
C59   C     C_R   0.949131 0.888130 0.056726 -0.208552
C60   C     C_R   0.879872 0.895662 0.972866 0.056184
C61   C     C_R   0.892782 0.997428 0.991195 0.205051
C62   C     C_3   0.891738 0.044442 0.918564 -0.478351
C63   C     C_3   0.991558 0.147309 0.017657 -0.467245
C64   C     C_R   0.437598 0.530060 0.751790 -0.115806
C65   C     C_R   0.272394 0.184892 0.245799 0.178984
C66   C     C_R   0.171637 0.179730 0.224725 0.038019
H1    H     H_    0.124412 0.306678 0.246682 0.122588
H2    H     H_    0.870403 0.619745 0.680227 0.125182
H3    H     H_    0.855960 0.683940 0.836071 0.127207
H4    H     H_    0.362708 0.540666 0.177560 0.118533
H5    H     H_    0.613925 0.879437 0.674754 0.139285
H6    H     H_    0.709737 0.447005 0.332010 0.108020
H7    H     H_    0.131914 0.634532 0.165367 0.135643
H8    H     H_    0.140155 0.695896 0.343098 0.161036
H9    H     H_    0.561818 0.383993 0.759113 0.118500
H10   H     H_    0.879430 0.378083 0.218100 0.137015
H11   H     H_    0.869365 0.318112 0.039728 0.152415
H12   H     H_    0.857519 0.541151 0.337581 0.119924
H13   H     H_    0.209559 0.714422 0.673355 0.133364
H14   H     H_    0.063487 0.851932 0.736252 0.141448
H15   H     H_    0.088681 0.921336 0.921089 0.149218
H16   H     H_    0.098737 0.811554 0.010898 0.152738
H17   H     H_    0.083782 0.633696 0.917489 0.155925
H18   H     H_    0.277739 0.412005 0.806399 0.149892
H19   H     H_    0.499981 0.158233 0.332898 0.138239
H20   H     H_    0.282532 0.422776 0.974553 0.157235
H21   H     H_    0.670524 0.616053 0.157162 0.206248
H22   H     H_    0.705497 0.503906 0.138988 0.188081
H23   H     H_    0.665799 0.599648 0.992293 0.208654
H24   H     H_    0.699378 0.486705 0.974423 0.201559
H25   H     H_    0.734597 0.007694 0.592030 0.160772
H26   H     H_    0.301318 0.960810 0.332315 0.123144
H27   H     H_    0.327287 0.661114 0.672175 0.115668
H28   H     H_    0.292204 0.805791 0.342485 0.074682
H29   H     H_    0.098142 0.978141 0.211835 0.170199
H30   H     H_    0.937155 0.809704 0.046897 0.139601
H31   H     H_    0.909099 0.003191 0.854975 0.194101
H32   H     H_    0.818670 0.054813 0.888235 0.222758
H33   H     H_    0.066984 0.165932 0.011561 0.211355
H34   H     H_    0.976059 0.216808 0.044338 0.204805
H35   H     H_    0.650340 0.319535 0.675781 0.123279
H36   H     H_    0.151918 0.481216 0.324388 0.123911
H37   H     H_    0.390431 0.567849 0.770099 0.112823
H38   H     H_    0.429395 0.702086 0.324720 0.102403
N1    N     N_R   0.291070 0.347930 0.293870 -0.051462
N2    N     N_R   0.708930 0.502750 0.556810 -0.041780
N3    N     N_R   0.502760 0.445970 0.293860 -0.057567
N4    N     N_R   0.652110 0.708890 0.706130 -0.063157
N5    N     N_R   0.708930 0.652070 0.706130 -0.053348
N6    N     N_R   0.445950 0.502780 0.293850 -0.051146
N7    N     N_R   0.502760 0.708900 0.556790 -0.035368
N8    N     N_R   0.652110 0.445950 0.443190 -0.052079
N9    N     N_R   0.554050 0.497220 0.706150 -0.049129
N10   N     N_R   0.497240 0.291100 0.443210 -0.041206
N11   N     N_R   0.347890 0.554050 0.556810 -0.039222
N12   N     N_R   0.554050 0.347900 0.556830 -0.046451
N13   N     N_R   0.291070 0.497250 0.443190 -0.041929
N14   N     N_R   0.497240 0.554030 0.706140 -0.034023
N15   N     N_R   0.347890 0.291110 0.293870 -0.068526
N16   N     N_R   0.445950 0.652100 0.443170 -0.041414
Ni1   Ni    Ni4+2 0.369690 0.500010 0.369700 0.219800
Ni2   Ni    Ni4+2 0.630310 0.499990 0.630300 0.221779
Ni3   Ni    Ni4+2 0.500000 0.369720 0.369720 0.212045
Ni4   Ni    Ni4+2 0.500000 0.630280 0.630280 0.258622
C67   C     C_3   0.526438 0.324971 0.145489 -0.481733
C68   C     C_3   0.501814 0.238003 0.176496 -0.281417
C69   C     C_3   0.516804 0.145555 0.112656 -0.796797
H39   H     H_    0.460056 0.105862 0.023809 0.271842
H40   H     H_    0.602640 0.177079 0.129575 0.251971
H41   H     H_    0.498803 0.083722 0.137619 0.264068
H42   H     H_    0.555653 0.271951 0.264095 0.209545
H43   H     H_    0.415803 0.206131 0.156505 0.238655
H44   H     H_    0.469533 0.282842 0.056275 0.211720
H45   H     H_    0.610247 0.356599 0.157533 0.181902
I1    I     I_    0.616584 0.865034 0.863020 -0.469210
I2    I     I_    0.999096 0.418471 0.942537 -0.493910
C70   C     C_3   0.040342 0.522726 0.710582 -0.392999
C71   C     C_3   0.145132 0.516973 0.725858 -0.268619
C72   C     C_3   0.119276 0.411957 0.632999 -0.843761
H46   H     H_    0.067434 0.340395 0.633227 0.291162
H47   H     H_    0.075890 0.405651 0.553275 0.262012
H48   H     H_    0.196244 0.411422 0.642434 0.236774
H49   H     H_    0.203217 0.586814 0.728643 0.190753
H50   H     H_    0.186446 0.521250 0.804863 0.205657
H51   H     H_    0.000143 0.474259 0.740523 0.233735
H52   H     H_    0.980282 0.483907 0.622805 0.208823
I3    I     I_    0.825436 0.238708 0.621674 -0.450303
I4    I     I_    0.346014 0.100299 0.536316 -0.360571
I5    I     I_    0.347061 0.872325 0.559487 -0.376193
I6    I     I_    0.285186 0.043705 0.174053 -0.598732

loop_
_geom_bond_atom_site_label_1
_geom_bond_atom_site_label_2
_ccdc_geom_bond_type
C50   I3    S    
C67   H45   S    
C64   H37   S    
C68   C69   S    
C41   C42   A    
C40   H18   S    
C3    C23   A    
C35   C36   A    
C34   H27   S    
N3    Ni3   S    
C57   C66   S    
C58   H29   S    
C2    C12   A    
C31   H14   S    
C46   H23   S    
N2    N8    A    
C53   C54   S    
C52   C53   S    
C32   H15   S    
C21   H10   S    
C26   C27   A    
C62   C63   S    
N12   Ni2   S    
C18   C24   A    
C70   H51   S    
C28   C29   A    
C9    H3    S    
C13   N8    A    
C71   H49   S    
N6    Ni1   S    
C38   C39   A    
C72   H48   S    
C11   H5    S    
N5    Ni2   S    
C64   N14   A    
N4    N5    A    
C18   C19   A    
C56   N13   A    
C65   I6    S    
C28   H13   S    
N13   Ni1   S    
C63   H33   S    
C1    H1    S    
C6    C15   A    
C62   H32   S    
C2    C39   S    
N9    Ni2   S    
C47   C48   A    
C2    C64   A    
N11   N13   A    
C55   C63   S    
N4    Ni4   S    
C44   H21   S    
C36   C70   S    
C4    C29   S    
C24   I2    S    
C6    H2    S    
C5    H38   S    
C59   C60   A    
C21   C22   A    
C4    C56   A    
C8    I1    S    
C49   H25   S    
C8    N4    A    
C44   C46   S    
C1    C66   A    
C54   I5    S    
C9    N5    A    
C4    C34   A    
C38   C46   S    
C5    N16   A    
C11   N7    A    
C51   C52   A    
C70   H52   S    
N8    Ni3   S    
C11   C14   A    
C3    C51   S    
C15   C26   S    
C14   C48   S    
C25   C26   A    
C3    C45   A    
C53   I4    S    
C25   H12   S    
C60   C61   A    
C43   C44   S    
C69   H40   S    
C63   H34   S    
C41   H20   S    
C62   H31   S    
C31   C32   A    
C68   H43   S    
N2    Ni2   S    
C53   H26   S    
C50   C51   A    
C65   N15   A    
N1    Ni1   S    
N14   Ni4   S    
C7    C67   S    
C6    N2    A    
C5    C14   A    
C45   H35   S    
C47   C54   S    
N10   Ni3   S    
C10   H4    S    
C9    C17   A    
C40   C41   A    
C65   C66   A    
C18   H7    S    
C13   C15   A    
C23   H19   S    
C67   C68   S    
N3    N6    A    
C22   C24   A    
C58   C59   A    
C42   C43   A    
C69   H39   S    
C16   C42   S    
C39   C40   A    
N16   Ni1   S    
C12   N9    A    
C33   H16   S    
C67   H44   S    
C25   C30   A    
C36   C37   A    
C35   H17   S    
N11   Ni4   S    
N7    Ni4   S    
C19   H8    S    
C7    C16   A    
C22   H11   S    
N10   N12   A    
C72   H46   S    
C47   C52   A    
C46   H24   S    
C13   H6    S    
N15   Ni3   S    
C70   C71   S    
C8    C17   A    
N1    N15   A    
C32   C33   A    
C19   C20   A    
C55   C57   A    
C34   N11   A    
C69   H41   S    
C56   H36   S    
C38   C43   A    
C71   H50   S    
C20   C30   S    
C23   N10   A    
C72   H47   S    
C45   N12   A    
C57   C58   A    
C68   H42   S    
C27   C37   S    
C48   C49   A    
C55   C61   A    
C33   C35   A    
C10   N6    A    
C7    N3    A    
C61   C62   S    
C54   H28   S    
C71   C72   S    
C17   C60   S    
C29   C30   A    
N9    N14   A    
C31   C37   A    
C20   C21   A    
C49   C50   A    
C59   H30   S    
C12   H9    S    
C27   C28   A    
N7    N16   A    
C10   C16   A    
C44   H22   S    
C1    N1    A    
