data_mof_unit_11160.cif
_audit_creation_date              2012-12-11T17:05:37-0500
_audit_creation_method            fapswitch 2.2
_symmetry_space_group_name_H-M    P1
_symmetry_Int_Tables_number       1
_space_group_crystal_system       triclinic
_cell_length_a                    6.949377
_cell_length_b                    14.530142
_cell_length_c                    16.011504
_cell_angle_alpha                 90.22562
_cell_angle_beta                  89.96878
_cell_angle_gamma                 89.983933
_cell_volume                      1616.7557357

loop_
_atom_site_label
_atom_site_type_symbol
_atom_type_description
_atom_site_fract_x
_atom_site_fract_y
_atom_site_fract_z
_atom_type_partial_charge
O1    O     O_R   0.494380 0.415640 0.412830 -0.538511
O2    O     O_R   0.823960 0.405540 0.586560 -0.540827
O3    O     O_R   0.994270 0.584360 0.587170 -0.546569
C1    C     C_R   0.655194 0.383355 0.615081 0.741321
O4    O     O_R   0.824090 0.404620 0.413450 -0.545096
O5    O     O_R   0.994400 0.583430 0.412820 -0.540963
C2    C     C_R   0.655344 0.382453 0.384473 0.693361
O6    O     O_R   0.494250 0.416570 0.587180 -0.535053
O7    O     O_3   0.660800 0.558670 0.500000 -0.374811
V1    V     V_3+5 0.935650 0.489120 0.500000 1.403554
O8    O     O_R   0.324110 0.594460 0.413440 -0.541381
C3    C     C_R   0.155098 0.616493 0.384674 0.721549
O9    O     O_R   0.323980 0.595380 0.586550 -0.541761
C4    C     C_R   0.155163 0.617583 0.615570 0.716837
V2    V     V_3+5 0.435660 0.510880 0.500000 1.409621
O10   O     O_3   0.160640 0.441330 0.500000 -0.371531
C5    C     C_3   0.044580 0.645084 0.764537 0.515503
H1    H     H_    0.896099 0.623113 0.747713 0.049044
C6    C     C_3   0.032902 0.716459 0.837086 -0.360216
H2    H     H_    0.108755 0.689588 0.893120 0.167978
H3    H     H_    0.879553 0.726738 0.854931 0.100407
H4    H     H_    0.879324 0.752737 0.641074 0.149368
C7    C     C_3   0.027307 0.773453 0.659894 -0.458253
C8    C     C_3   0.348554 0.720657 0.713033 -0.297978
C9    C     C_3   0.144650 0.687385 0.686565 0.025390
H5    H     H_    0.422776 0.752913 0.658914 0.132909
H6    H     H_    0.437943 0.661103 0.733012 0.179326
C10   C     C_3   0.123187 0.809667 0.810871 0.026106
C11   C     C_3   0.014654 0.844687 0.732410 -0.305885
C12   C     C_3   0.336139 0.791159 0.785260 -0.317174
H7    H     H_    0.418395 0.764603 0.839739 0.148863
H8    H     H_    0.405905 0.856512 0.765471 0.146786
H9    H     H_    0.096000 0.805990 0.604597 0.164624
H10   H     H_    0.077220 0.911334 0.711797 0.182648
C13   C     C_R   0.260780 0.744061 0.182911 -0.009796
C14   C     C_R   0.117245 0.811792 0.180560 -0.212152
C15   C     C_R   0.974921 0.809107 0.243587 0.597136
C16   C     C_R   0.985931 0.744471 0.309016 -0.259207
C17   C     C_R   0.142026 0.682764 0.314795 -0.177750
C18   C     C_R   0.273718 0.681795 0.248568 0.089851
C19   C     C_3   0.488151 0.685670 0.249024 -0.371293
C20   C     C_3   0.473866 0.753103 0.176803 -0.328619
H11   H     H_    0.554170 0.618797 0.230974 0.157400
H12   H     H_    0.545881 0.717171 0.307188 0.189079
H13   H     H_    0.530756 0.724954 0.117045 0.159200
H14   H     H_    0.522699 0.823716 0.192631 0.240042
C21   C     C_R   0.502333 0.319927 0.744962 0.122299
C22   C     C_R   0.647834 0.316582 0.684474 -0.183530
C23   C     C_R   0.792237 0.249336 0.694017 -0.254262
C24   C     C_R   0.779851 0.182675 0.757476 0.590647
C25   C     C_R   0.624806 0.183178 0.814672 -0.216446
C26   C     C_R   0.491822 0.255319 0.808770 0.003128
C27   C     C_3   0.277697 0.251767 0.804253 -0.360478
C28   C     C_3   0.289150 0.322305 0.734627 -0.368067
H15   H     H_    0.208464 0.278740 0.861963 0.180711
H16   H     H_    0.225928 0.183413 0.782952 0.236232
H17   H     H_    0.227076 0.390117 0.752234 0.228630
H18   H     H_    0.242202 0.295048 0.672963 0.170609
C29   C     C_R   0.493684 0.316531 0.256807 0.102570
C30   C     C_R   0.647495 0.316647 0.313410 -0.111158
C31   C     C_R   0.798735 0.254249 0.298004 -0.176947
H19   H     H_    0.920904 0.251884 0.339632 0.135334
C32   C     C_R   0.787503 0.189714 0.232192 -0.150112
H20   H     H_    0.901946 0.139872 0.224987 0.142710
C33   C     C_R   0.624404 0.185372 0.179922 -0.110204
C34   C     C_R   0.482137 0.252434 0.191924 0.097583
C35   C     C_3   0.270717 0.241033 0.203255 -0.407822
C36   C     C_3   0.283175 0.311278 0.273596 -0.395861
H21   H     H_    0.233079 0.170801 0.225077 0.174067
H22   H     H_    0.187783 0.265922 0.148464 0.175114
H23   H     H_    0.251895 0.282057 0.336197 0.173631
H24   H     H_    0.208302 0.376975 0.259304 0.168386
O11   O     O_R   0.771490 0.080820 0.910070 -0.507724
O12   O     O_R   0.441590 0.092730 0.083780 -0.544746
O13   O     O_R   0.271350 0.913900 0.084390 -0.546675
C37   C     C_R   0.610588 0.114833 0.112855 0.714842
O14   O     O_R   0.441780 0.091820 0.910670 -0.545443
O15   O     O_R   0.271540 0.912980 0.910040 -0.546268
C38   C     C_R   0.610814 0.113240 0.881450 0.753150
O16   O     O_R   0.771300 0.081740 0.084420 -0.538464
O17   O     O_3   0.604960 0.938700 0.997240 -0.378174
V3    V     V_3+5 0.330090 0.008230 0.997220 1.434045
O18   O     O_R   0.941820 0.901930 0.910640 -0.542008
C39   C     C_R   0.111082 0.879716 0.881635 0.700786
O19   O     O_R   0.941630 0.902840 0.083750 -0.517171
C40   C     C_R   0.110221 0.881264 0.112956 0.750376
V4    V     V_3+5 0.830090 0.986410 0.997190 1.486470
O20   O     O_3   0.105080 0.055990 0.997200 -0.368356
F1    F     F_    0.834832 0.874034 0.246211 -0.716471
H25   H     H_    0.877990 0.746258 0.357793 0.148209
H26   H     H_    0.908837 0.244812 0.649340 0.150793
F2    F     F_    0.143742 0.567678 0.790921 -0.720257
F3    F     F_    0.910657 0.113349 0.758451 -0.722198
H27   H     H_    0.860782 0.857499 0.747918 0.155442

loop_
_geom_bond_atom_site_label_1
_geom_bond_atom_site_label_2
_ccdc_geom_bond_type
O18   V4    S    
V4    O20   S    
C32   C33   A    
C18   C19   S    
C10   C39   S    
C19   C20   S    
C27   H15   S    
C6    H2    S    
C8    H6    S    
C1    O6    A    
O17   V3    S    
C27   C28   S    
C33   C37   S    
O12   C37   A    
C7    C11   S    
C14   C15   A    
C6    H3    S    
C23   H26   S    
O16   V4    S    
C29   C34   A    
O5    C3    A    
C12   H7    S    
V2    O10   S    
C20   H14   S    
C31   C32   A    
C13   C20   S    
O11   V4    S    
O8    V2    S    
O18   C39   A    
C7    H9    S    
O1    V2    S    
O7    V1    S    
O14   C38   A    
C34   C35   S    
C29   C30   A    
O9    C4    A    
C19   H11   S    
C5    F2    S    
O12   V3    S    
C24   C25   A    
C25   C38   S    
O19   V4    S    
C16   C17   A    
C35   C36   S    
C8    C9    S    
C17   C18   A    
O4    C2    A    
C14   C40   S    
O19   C40   A    
C11   H10   S    
C25   C26   A    
C30   C31   A    
C35   H21   S    
C20   H13   S    
O2    C1    A    
C15   C16   A    
C29   C36   S    
O15   V3    S    
O13   C40   A    
C21   C22   A    
C36   H24   S    
C5    H1    S    
O11   C38   A    
C24   F3    S    
C6    C10   S    
O17   V4    S    
O3    C4    A    
C21   C28   S    
C22   C23   A    
C23   C24   A    
O6    V2    S    
O9    V2    S    
C19   H12   S    
O2    V1    S    
C2    C30   S    
C26   C27   S    
C1    C22   S    
C28   H18   S    
C27   H16   S    
C10   C11   S    
O1    C2    A    
C37   O16   A    
C8    H5    S    
O5    V1    S    
O8    C3    A    
O13   V3    S    
C21   C26   A    
C16   H25   S    
C15   F1    S    
C35   H22   S    
C5    C9    S    
C3    C17   S    
C10   C12   S    
C13   C18   A    
O7    V2    S    
O4    V1    S    
O3    V1    S    
V1    O10   S    
C12   H8    S    
C11   H27   S    
O14   V3    S    
C36   H23   S    
V3    O20   S    
C5    C6    S    
C7    C9    S    
C4    C9    S    
C31   H19   S    
C8    C12   S    
C32   H20   S    
O15   C39   A    
C33   C34   A    
H4    C7    S    
C13   C14   A    
C28   H17   S    
