data_mof_unit_10872.cif
_audit_creation_date              2013-03-05T15:40:08-0500
_audit_creation_method            fapswitch 2.2
_symmetry_space_group_name_H-M    P1
_symmetry_Int_Tables_number       1
_space_group_crystal_system       triclinic
_cell_length_a                    27.940237
_cell_length_b                    18.643682
_cell_length_c                    16.812355
_cell_angle_alpha                 90.170888
_cell_angle_beta                  62.860765
_cell_angle_gamma                 90.390772
_cell_volume                      7793.30622819

loop_
_atom_site_label
_atom_site_type_symbol
_atom_site_description
_atom_site_fract_x
_atom_site_fract_y
_atom_site_fract_z
_atom_type_partial_charge
O1    O     O_R   0.255040 0.869590 0.478480 -0.596178
O2    O     O_R   0.744960 0.130410 0.521520 -0.612769
O3    O     O_R   0.744960 0.869590 0.521520 -0.594265
O4    O     O_R   0.255040 0.130410 0.478480 -0.610638
O5    O     O_R   0.755040 0.369590 0.478480 -0.597667
O6    O     O_R   0.244960 0.630410 0.521520 -0.612574
O7    O     O_R   0.244960 0.369590 0.521520 -0.595584
O8    O     O_R   0.755040 0.630410 0.478480 -0.615546
O9    O     O_R   0.182050 0.796550 0.624440 -0.546580
O10   O     O_R   0.817950 0.203450 0.375560 -0.536525
O11   O     O_R   0.817950 0.796550 0.375560 -0.564864
O12   O     O_R   0.182050 0.203450 0.624440 -0.590726
O13   O     O_R   0.682050 0.296550 0.624440 -0.545610
O14   O     O_R   0.317950 0.703450 0.375560 -0.536862
O15   O     O_R   0.317950 0.296550 0.375560 -0.566502
O16   O     O_R   0.682050 0.703450 0.624440 -0.588869
Cu1   Cu    Cu3+1 0.209920 0.785290 0.495070 1.039713
Cu2   Cu    Cu3+1 0.790080 0.214710 0.504930 1.056526
Cu3   Cu    Cu3+1 0.790080 0.785290 0.504930 1.040094
Cu4   Cu    Cu3+1 0.209920 0.214710 0.495070 1.031346
Cu5   Cu    Cu3+1 0.709920 0.285290 0.495070 1.039378
Cu6   Cu    Cu3+1 0.290080 0.714710 0.504930 1.057168
Cu7   Cu    Cu3+1 0.290080 0.285290 0.504930 1.050295
Cu8   Cu    Cu3+1 0.709920 0.714710 0.495070 1.031313
C1    C     C_R   0.293243 0.724993 0.330441 0.856448
C2    C     C_R   0.703622 0.268730 0.671019 0.825894
C3    C     C_R   0.707079 0.724098 0.669209 0.820395
C4    C     C_R   0.296039 0.269392 0.328912 0.894817
C5    C     C_R   0.793227 0.225005 0.330460 0.856636
C6    C     C_R   0.203676 0.768845 0.670990 0.825506
C7    C     C_R   0.207071 0.223792 0.668999 0.816562
C8    C     C_R   0.796615 0.768167 0.328833 0.891097
O17   O     O_R   0.250530 0.763330 0.367210 -0.571756
O18   O     O_R   0.749470 0.236670 0.632790 -0.574038
O19   O     O_R   0.749470 0.763330 0.632790 -0.557356
O20   O     O_R   0.250530 0.236670 0.367210 -0.517593
O21   O     O_R   0.750530 0.263330 0.367210 -0.572408
O22   O     O_R   0.249470 0.736670 0.632790 -0.573675
O23   O     O_R   0.249470 0.263330 0.632790 -0.555140
O24   O     O_R   0.750530 0.736670 0.367210 -0.522030
O25   O     O_R   0.177260 0.690030 0.513710 -0.563542
O26   O     O_R   0.822740 0.309970 0.486290 -0.539342
O27   O     O_R   0.822740 0.690030 0.486290 -0.577282
O28   O     O_R   0.177260 0.309970 0.513710 -0.565555
O29   O     O_R   0.677260 0.190030 0.513710 -0.563496
O30   O     O_R   0.322740 0.809970 0.486290 -0.539204
O31   O     O_R   0.322740 0.190030 0.486290 -0.571907
O32   O     O_R   0.677260 0.809970 0.513710 -0.565742
C9    C     C_R   0.196241 0.631714 0.528323 0.781884
C10   C     C_R   0.804137 0.368016 0.469638 0.831711
C11   C     C_R   0.803241 0.631567 0.472862 0.771369
C12   C     C_R   0.200491 0.369288 0.514298 0.843059
C13   C     C_R   0.696219 0.131710 0.528421 0.782568
C14   C     C_R   0.304206 0.867988 0.469419 0.830995
C15   C     C_R   0.303410 0.131627 0.472226 0.769035
C16   C     C_R   0.700535 0.869282 0.514220 0.847582
H1    H     H_    0.583526 0.771073 0.372638 0.212503
H2    H     H_    0.443854 0.238706 0.529713 0.192367
H3    H     H_    0.505130 0.769704 0.355384 0.217404
H4    H     H_    0.509164 0.234493 0.584469 0.214525
H5    H     H_    0.082377 0.270258 0.375474 0.211371
H6    H     H_    0.946473 0.740257 0.522656 0.189522
H7    H     H_    0.004081 0.269001 0.358068 0.216268
H8    H     H_    0.011653 0.736368 0.577547 0.214712
C17   C     C_R   0.034957 0.624699 0.541185 -0.031642
C18   C     C_R   0.976485 0.375523 0.412717 -0.017129
C19   C     C_R   0.955124 0.629073 0.480941 -0.024934
C20   C     C_R   0.074052 0.379090 0.428826 -0.012991
C21   C     C_R   0.533864 0.123714 0.544555 -0.031898
C22   C     C_R   0.476944 0.875609 0.411717 -0.017006
C23   C     C_R   0.453690 0.128249 0.485207 -0.026661
C24   C     C_R   0.574642 0.879390 0.427601 -0.013106
C25   C     C_R   0.005131 0.687549 0.549523 -0.153054
C26   C     C_R   0.011872 0.317101 0.386008 -0.138154
C27   C     C_R   0.967628 0.690480 0.516234 -0.165141
C28   C     C_R   0.059289 0.318759 0.394037 -0.143942
C29   C     C_R   0.503163 0.186082 0.555095 -0.147729
C30   C     C_R   0.512677 0.817549 0.384093 -0.134035
C31   C     C_R   0.465463 0.189158 0.522249 -0.146933
C32   C     C_R   0.560163 0.819323 0.391968 -0.137996
C33   C     C_R   0.979442 0.563858 0.482569 0.020210
C34   C     C_R   0.038875 0.438114 0.456989 0.027266
C35   C     C_R   0.022321 0.562727 0.505482 0.016848
C36   C     C_R   0.991461 0.437237 0.445361 0.025941
C37   C     C_R   0.478484 0.063139 0.485420 0.031596
C38   C     C_R   0.539075 0.938041 0.456773 0.026994
C39   C     C_R   0.521529 0.061997 0.507954 0.019165
C40   C     C_R   0.491645 0.937117 0.445117 0.026063
C41   C     C_R   0.461741 0.000003 0.458925 -0.047206
C42   C     C_R   0.552588 0.999628 0.491964 -0.052190
C43   C     C_R   0.961907 0.500336 0.458265 -0.040376
C44   C     C_R   0.052775 0.499964 0.491134 -0.050116
C45   C     C_R   0.392989 0.935127 0.433963 -0.022994
C46   C     C_R   0.613072 0.062700 0.539400 -0.031606
C47   C     C_R   0.632079 0.938989 0.483768 -0.023091
C48   C     C_R   0.389189 0.066199 0.449515 -0.023672
C49   C     C_R   0.892686 0.435236 0.434843 -0.024039
C50   C     C_R   0.113248 0.562972 0.538546 -0.031331
C51   C     C_R   0.131871 0.438931 0.484034 -0.022646
C52   C     C_R   0.889116 0.566314 0.449476 -0.024306
C53   C     C_R   0.338096 0.934460 0.448491 -0.069753
C54   C     C_R   0.664557 0.064546 0.539252 -0.063201
C55   C     C_R   0.673948 0.936718 0.510393 -0.064810
C56   C     C_R   0.336579 0.065668 0.454612 -0.069446
C57   C     C_R   0.837851 0.434544 0.449254 -0.072439
C58   C     C_R   0.164577 0.564619 0.538967 -0.062927
C59   C     C_R   0.173827 0.436706 0.510508 -0.064908
C60   C     C_R   0.836349 0.565667 0.455295 -0.072823
C61   C     C_R   0.312060 0.999857 0.455475 -0.284143
C62   C     C_R   0.690757 0.000164 0.534006 -0.272881
C63   C     C_R   0.811740 0.499881 0.456538 -0.293846
C64   C     C_R   0.190663 0.500184 0.534009 -0.273543
H9    H     H_    0.270841 0.999484 0.465872 0.186198
H10   H     H_    0.726365 0.000046 0.544185 0.181206
H11   H     H_    0.770504 0.499493 0.467002 0.186451
H12   H     H_    0.226223 0.500047 0.544322 0.181156
C65   C     C_R   0.414438 0.000253 0.447745 -0.031186
C66   C     C_R   0.598711 0.000091 0.506424 -0.029819
C67   C     C_R   0.914213 0.500409 0.448322 -0.022025
C68   C     C_R   0.098765 0.500277 0.505970 -0.030919
C69   C     C_R   0.624515 0.884250 0.431070 0.278017
C70   C     C_R   0.418010 0.130134 0.447026 0.259449
C71   C     C_R   0.428031 0.874689 0.404211 0.291757
C72   C     C_R   0.576430 0.121283 0.568776 0.285654
C73   C     C_R   0.123940 0.383866 0.432122 0.278388
C74   C     C_R   0.918498 0.630306 0.444592 0.268388
C75   C     C_R   0.927693 0.374798 0.404919 0.289734
C76   C     C_R   0.076920 0.621930 0.566814 0.287877
H13   H     H_    0.242892 0.859655 0.953312 0.157110
H14   H     H_    0.749876 0.106984 0.042802 0.152515
H15   H     H_    0.807995 0.632883 0.028288 0.132191
H16   H     H_    0.177978 0.291607 0.019223 0.156020
H17   H     H_    0.741878 0.358123 0.954352 0.155090
H18   H     H_    0.251327 0.608553 0.041405 0.149922
H19   H     H_    0.347600 0.166953 0.958073 0.148588
H20   H     H_    0.709633 0.824426 0.960589 0.141842
C77   C     C_R   0.215492 0.750450 0.954361 0.182607
C78   C     C_R   0.773077 0.217041 0.048601 0.172705
C79   C     C_R   0.786806 0.744975 0.043824 0.191630
C80   C     C_R   0.234595 0.209852 0.940307 0.182891
C81   C     C_R   0.714444 0.248974 0.955249 0.183522
C82   C     C_R   0.274322 0.718671 0.047408 0.175783
C83   C     C_R   0.289210 0.245389 0.039723 0.181412
C84   C     C_R   0.730295 0.712105 0.946902 0.189261
C85   C     C_R   0.218261 0.679788 0.979738 -0.087460
C86   C     C_R   0.770834 0.287690 0.022926 -0.086023
C87   C     C_R   0.758240 0.798507 0.025020 -0.085078
C88   C     C_R   0.282390 0.174869 0.924568 -0.080481
C89   C     C_R   0.717091 0.178288 0.980700 -0.088006
C90   C     C_R   0.272003 0.789315 0.021775 -0.084695
C91   C     C_R   0.241446 0.280560 0.056250 -0.053437
C92   C     C_R   0.756534 0.657840 0.969368 -0.141864
H21   H     H_    0.196254 0.637428 0.967017 0.137906
H22   H     H_    0.791343 0.330371 0.039291 0.145297
H23   H     H_    0.757802 0.853048 0.047712 0.164554
H24   H     H_    0.297980 0.132425 0.876780 0.139669
H25   H     H_    0.695074 0.135990 0.967884 0.137794
H26   H     H_    0.292476 0.832042 0.038143 0.144644
H27   H     H_    0.225451 0.321843 0.107049 0.165426
H28   H     H_    0.754605 0.602701 0.950774 0.140104
C93   C     C_R   0.248683 0.663713 0.023847 -0.159404
C94   C     C_R   0.742500 0.303341 0.975087 -0.123844
C95   C     C_R   0.730871 0.782402 0.975595 -0.098765
C96   C     C_R   0.310118 0.193418 0.972660 -0.161327
C97   C     C_R   0.747404 0.162133 0.025010 -0.160075
C98   C     C_R   0.243582 0.804889 0.974037 -0.123938
C99   C     C_R   0.214684 0.263568 0.006045 -0.122750
C100  C     C_R   0.785741 0.674529 0.015704 -0.089227
C101  C     C_R   0.142481 0.821716 0.946634 0.247076
C102  C     C_R   0.854032 0.168571 0.054388 0.266895
C103  C     C_R   0.859215 0.817952 0.052128 0.245176
C104  C     C_R   0.149401 0.165155 0.942241 0.249101
C105  C     C_R   0.641584 0.320360 0.947300 0.246549
C106  C     C_R   0.355368 0.670737 0.053491 0.264747
C107  C     C_R   0.362526 0.314689 0.049231 0.259873
C108  C     C_R   0.646680 0.668522 0.944727 0.259403
C109  C     C_R   0.118019 0.850229 0.895976 -0.169672
C110  C     C_R   0.881378 0.147714 0.103669 -0.162154
C111  C     C_R   0.882719 0.848548 0.103379 -0.167284
C112  C     C_R   0.118778 0.148547 0.896598 -0.148757
C113  C     C_R   0.617595 0.349575 0.896290 -0.170457
C114  C     C_R   0.382039 0.648673 0.103332 -0.160535
C115  C     C_R   0.385042 0.345799 0.101572 -0.165008
C116  C     C_R   0.618235 0.648809 0.896677 -0.149952
C117  C     C_R   0.137476 0.829846 0.806698 -0.285147
C118  C     C_R   0.861404 0.168459 0.192833 -0.276914
C119  C     C_R   0.862870 0.829026 0.192963 -0.268972
C120  C     C_R   0.136934 0.171997 0.808920 -0.323066
C121  C     C_R   0.637296 0.329516 0.806842 -0.280281
C122  C     C_R   0.361636 0.668631 0.192834 -0.274566
C123  C     C_R   0.363949 0.327698 0.191926 -0.276745
C124  C     C_R   0.637840 0.669663 0.807711 -0.323260
H29   H     H_    0.122103 0.855836 0.765556 0.222003
H30   H     H_    0.883628 0.155202 0.229339 0.231702
H31   H     H_    0.877741 0.856313 0.234327 0.219372
H32   H     H_    0.111358 0.166094 0.776470 0.216557
H33   H     H_    0.622177 0.355878 0.765573 0.222489
H34   H     H_    0.383502 0.654693 0.229717 0.231712
H35   H     H_    0.379683 0.353597 0.232941 0.221052
H36   H     H_    0.614211 0.658999 0.772688 0.218371
C125  C     C_R   0.177861 0.778470 0.768679 -0.168880
C126  C     C_R   0.812400 0.204093 0.236299 -0.167157
C127  C     C_R   0.822622 0.776985 0.231096 -0.140807
C128  C     C_R   0.189154 0.198385 0.760866 -0.173464
C129  C     C_R   0.677646 0.278072 0.768794 -0.168459
C130  C     C_R   0.312650 0.704333 0.236113 -0.166546
C131  C     C_R   0.321122 0.279394 0.231348 -0.135388
C132  C     C_R   0.688503 0.701333 0.762360 -0.173302
C133  C     C_R   0.195803 0.741181 0.823537 0.396027
C134  C     C_R   0.780968 0.215381 0.190545 0.385356
C135  C     C_R   0.804937 0.738411 0.176280 0.435620
C136  C     C_R   0.224957 0.194795 0.799400 0.416932
C137  C     C_R   0.695366 0.240445 0.823736 0.396603
C138  C     C_R   0.281523 0.715975 0.189909 0.387925
C139  C     C_R   0.300356 0.245377 0.178003 0.433415
C140  C     C_R   0.721985 0.706722 0.805312 0.399412
C141  C     C_R   0.182728 0.769144 0.908791 -0.118265
C142  C     C_R   0.803208 0.200195 0.098712 -0.137894
C143  C     C_R   0.818946 0.764925 0.090164 -0.117106
C144  C     C_R   0.203055 0.188716 0.892944 -0.148002
C145  C     C_R   0.681873 0.267853 0.909396 -0.117051
C146  C     C_R   0.304299 0.701786 0.097737 -0.138334
C147  C     C_R   0.318773 0.267254 0.089090 -0.146127
C148  C     C_R   0.699381 0.695011 0.898034 -0.151741
O33   O     O_R   0.051640 0.926880 0.885090 -0.590351
O34   O     O_R   0.948360 0.073120 0.114910 -0.587527
O35   O     O_R   0.948360 0.926880 0.114910 -0.588732
O36   O     O_R   0.051640 0.073120 0.885090 -0.593302
O37   O     O_R   0.551640 0.426880 0.885090 -0.584299
O38   O     O_R   0.448360 0.573120 0.114910 -0.585832
O39   O     O_R   0.448360 0.426880 0.114910 -0.589323
O40   O     O_R   0.551640 0.573120 0.885090 -0.593843
Cu9   Cu    Cu3+1 0.495240 0.500000 0.924150 1.118389
Cu10  Cu    Cu3+1 0.504760 0.500000 0.075850 1.131113
Cu11  Cu    Cu3+1 0.995240 0.000000 0.924150 1.118118
Cu12  Cu    Cu3+1 0.004760 0.000000 0.075850 1.130542
C149  C     C_R   0.925983 0.903069 0.066718 0.821182
C150  C     C_R   0.072743 0.098572 0.934552 0.822852
C151  C     C_R   0.074261 0.903597 0.932975 0.818646
C152  C     C_R   0.926932 0.097772 0.065949 0.824581
C153  C     C_R   0.427175 0.401617 0.065749 0.824500
C154  C     C_R   0.572647 0.598502 0.934531 0.824454
C155  C     C_R   0.574110 0.403364 0.933099 0.820302
C156  C     C_R   0.427178 0.598088 0.065781 0.827148
O41   O     O_R   0.940620 0.926560 0.986760 -0.521678
O42   O     O_R   0.059380 0.073440 0.013240 -0.520977
O43   O     O_R   0.059380 0.926560 0.013240 -0.521173
O44   O     O_R   0.940620 0.073440 0.986760 -0.522921
O45   O     O_R   0.440620 0.426560 0.986760 -0.525240
O46   O     O_R   0.559380 0.573440 0.013240 -0.523306
O47   O     O_R   0.559380 0.426560 0.013240 -0.522977
O48   O     O_R   0.440620 0.573440 0.986760 -0.528198
N1    N     N_R   0.671557 0.849255 0.363629 0.122122
O49   O     O_R   0.715577 0.886240 0.319971 -0.405236
O50   O     O_R   0.670468 0.782837 0.340933 -0.337040
N2    N     N_R   0.423751 0.186203 0.383710 0.159458
O51   O     O_R   0.412190 0.172730 0.318343 -0.365130
O52   O     O_R   0.447617 0.246673 0.382372 -0.347104
N3    N     N_R   0.419002 0.819429 0.352380 0.124815
O53   O     O_R   0.418226 0.752026 0.372940 -0.353911
O54   O     O_R   0.407206 0.836939 0.288532 -0.363685
N4    N     N_R   0.577150 0.170232 0.634887 0.133310
O55   O     O_R   0.582340 0.145202 0.702705 -0.380319
O56   O     O_R   0.578235 0.239356 0.623681 -0.353192
N5    N     N_R   0.170679 0.348373 0.364856 0.119623
O57   O     O_R   0.214610 0.385146 0.319673 -0.410283
O58   O     O_R   0.169306 0.281531 0.343982 -0.335384
N6    N     N_R   0.923465 0.685626 0.380847 0.157693
O59   O     O_R   0.911003 0.671175 0.316705 -0.376537
O60   O     O_R   0.947593 0.746261 0.377652 -0.346929
N7    N     N_R   0.918883 0.320013 0.352280 0.124188
O61   O     O_R   0.918025 0.252436 0.372157 -0.354721
O62   O     O_R   0.907236 0.338156 0.288458 -0.369972
N8    N     N_R   0.077029 0.670619 0.633647 0.133458
O63   O     O_R   0.081748 0.645297 0.701771 -0.381543
O64   O     O_R   0.078008 0.739794 0.622954 -0.356926
N9    N     N_R   0.127048 0.845302 0.036414 0.140026
O65   O     O_R   0.106842 0.799525 0.101953 -0.333827
O66   O     O_R   0.141858 0.908473 0.050411 -0.329786
N10   N     N_R   0.878198 0.160030 0.959110 0.145421
O67   O     O_R   0.860541 0.111096 0.923529 -0.322815
O68   O     O_R   0.920062 0.198497 0.908194 -0.338575
N11   N     N_R   0.875567 0.839962 0.961557 0.137847
O69   O     O_R   0.897126 0.793580 0.897040 -0.332027
O70   O     O_R   0.860091 0.901620 0.945644 -0.328720
N12   N     N_R   0.127189 0.155567 0.037286 0.140363
O71   O     O_R   0.151464 0.115424 0.070736 -0.325454
O72   O     O_R   0.083493 0.189054 0.090693 -0.333064
N13   N     N_R   0.625603 0.343113 0.037553 0.140567
O73   O     O_R   0.604786 0.296854 0.102462 -0.332973
O74   O     O_R   0.640639 0.405750 0.052701 -0.335379
N14   N     N_R   0.380634 0.664310 0.957857 0.145232
O75   O     O_R   0.362239 0.619027 0.919294 -0.330980
O76   O     O_R   0.424353 0.700472 0.909622 -0.336036
N15   N     N_R   0.383371 0.331025 0.955960 0.142658
O77   O     O_R   0.429057 0.304127 0.898687 -0.322201
O78   O     O_R   0.354955 0.368117 0.927531 -0.330206
N16   N     N_R   0.621922 0.663439 0.040522 0.145800
O79   O     O_R   0.641200 0.620611 0.079633 -0.322434
O80   O     O_R   0.578179 0.698987 0.088610 -0.324021
O81   O     O_3   0.230564 0.683030 0.792555 -0.588311
C157  C     C_3   0.207938 0.625768 0.764167 0.096326
H37   H     H_    0.237437 0.611198 0.694941 0.193405
H38   H     H_    0.169374 0.638779 0.762819 0.138674
C158  C     C_3   0.198460 0.559735 0.823330 -0.380625
H39   H     H_    0.234791 0.549227 0.832388 0.253922
H40   H     H_    0.163756 0.569646 0.889662 0.214446
C159  C     C_3   0.185944 0.493494 0.782219 -0.849489
H41   H     H_    0.149721 0.502743 0.772473 0.267616
H42   H     H_    0.178145 0.446840 0.827480 0.263896
H43   H     H_    0.220533 0.480664 0.716724 0.255197
O82   O     O_3   0.730346 0.246288 0.232266 -0.582986
C160  C     C_3   0.691279 0.195704 0.288023 0.119095
H44   H     H_    0.661806 0.225315 0.347542 0.193830
H45   H     H_    0.707834 0.152312 0.313838 0.097169
C161  C     C_3   0.661564 0.162256 0.239765 -0.378020
H46   H     H_    0.652113 0.204220 0.202303 0.280753
H47   H     H_    0.687612 0.121125 0.192551 0.203576
C162  C     C_3   0.609592 0.125432 0.304813 -0.828253
H48   H     H_    0.618699 0.082732 0.341588 0.249117
H49   H     H_    0.589635 0.100579 0.267506 0.273718
H50   H     H_    0.581704 0.164993 0.352782 0.273730
O83   O     O_3   0.769627 0.680336 0.207831 -0.564596
C163  C     C_3   0.791493 0.623729 0.237610 0.085707
H51   H     H_    0.761862 0.610271 0.307229 0.197960
H52   H     H_    0.830303 0.636938 0.238419 0.122006
C164  C     C_3   0.799901 0.556735 0.180156 -0.397748
H53   H     H_    0.763393 0.546061 0.171403 0.257229
H54   H     H_    0.834685 0.565613 0.113547 0.212790
C165  C     C_3   0.811452 0.491166 0.222862 -0.803819
H55   H     H_    0.847900 0.500543 0.232159 0.271626
H56   H     H_    0.818397 0.443761 0.178876 0.265121
H57   H     H_    0.776754 0.479418 0.288773 0.255512
O84   O     O_3   0.280553 0.196497 0.747903 -0.588284
C166  C     C_3   0.298148 0.135448 0.690442 0.110514
H58   H     H_    0.340177 0.145798 0.639366 0.163360
H59   H     H_    0.274820 0.127070 0.652738 0.116906
C167  C     C_3   0.297392 0.065666 0.739851 -0.424203
H60   H     H_    0.331675 0.066085 0.756171 0.223662
H61   H     H_    0.259082 0.060577 0.802416 0.225825
C168  C     C_3   0.302929 0.999375 0.682992 -0.880370
H62   H     H_    0.270760 0.997737 0.661542 0.252431
H63   H     H_    0.299574 0.950319 0.722553 0.263170
H64   H     H_    0.342826 0.999495 0.623620 0.262929
O85   O     O_3   0.730309 0.182501 0.792541 -0.588263
C169  C     C_3   0.707909 0.125245 0.763744 0.096245
H65   H     H_    0.737429 0.111119 0.694367 0.193448
H66   H     H_    0.669250 0.138068 0.762626 0.139990
C170  C     C_3   0.698825 0.058922 0.822324 -0.382082
H67   H     H_    0.735151 0.048805 0.831538 0.254025
H68   H     H_    0.663957 0.068238 0.888642 0.215014
C171  C     C_3   0.686934 0.992644 0.780473 -0.846493
H69   H     H_    0.650734 0.001499 0.770541 0.267719
H70   H     H_    0.679398 0.945787 0.825352 0.263338
H71   H     H_    0.721719 0.980378 0.714984 0.255711
O86   O     O_3   0.230743 0.746449 0.231520 -0.582651
C172  C     C_3   0.191845 0.695531 0.286910 0.119799
H72   H     H_    0.161701 0.725063 0.345814 0.193227
H73   H     H_    0.208386 0.652879 0.313739 0.096619
C173  C     C_3   0.163235 0.660739 0.237616 -0.381442
H74   H     H_    0.153828 0.702019 0.199322 0.279898
H75   H     H_    0.190007 0.619777 0.191093 0.202928
C174  C     C_3   0.111366 0.623272 0.301860 -0.829358
H76   H     H_    0.120389 0.581339 0.339647 0.249720
H77   H     H_    0.092293 0.597355 0.263794 0.272002
H78   H     H_    0.082764 0.662675 0.348944 0.275097
O87   O     O_3   0.258771 0.195520 0.213275 -0.549668
C175  C     C_3   0.277951 0.128985 0.227648 0.115930
H79   H     H_    0.244148 0.102627 0.285320 0.188621
H80   H     H_    0.311442 0.134392 0.246111 0.111833
C176  C     C_3   0.295353 0.080323 0.145765 -0.399668
H81   H     H_    0.263325 0.078619 0.123920 0.264212
H82   H     H_    0.332713 0.102270 0.090550 0.209181
C177  C     C_3   0.306336 0.004189 0.166138 -0.817986
H83   H     H_    0.338520 0.004609 0.187590 0.267473
H84   H     H_    0.319617 0.970584 0.105169 0.258781
H85   H     H_    0.269253 0.980002 0.219805 0.264748
O88   O     O_3   0.775796 0.726706 0.759417 -0.579809
C178  C     C_3   0.806779 0.669816 0.703496 0.132592
H86   H     H_    0.845471 0.693179 0.653308 0.176559
H87   H     H_    0.787642 0.644219 0.665153 0.101693
C179  C     C_3   0.818825 0.612175 0.756544 -0.412916
H88   H     H_    0.835800 0.637851 0.797902 0.256380
H89   H     H_    0.780925 0.583575 0.800419 0.204279
C180  C     C_3   0.858854 0.557116 0.695369 -0.874548
H90   H     H_    0.845168 0.534249 0.648059 0.251475
H91   H     H_    0.862641 0.512863 0.736146 0.266161
H92   H     H_    0.898899 0.582597 0.657801 0.271156

loop_
_geom_bond_atom_site_label_1
_geom_bond_atom_site_label_2
_geom_bond_distance
_ccdc_geom_bond_type
C172  H72   1.111465 S    
Cu2   Cu5   2.674964 S    
C174  H77   1.110310 S    
C59   C64   1.391819 A    
C23   C70   1.411221 A    
C106  C146  1.401711 A    
C127  C135  1.420333 A    
Cu10  O46   1.956073 S    
O81   C157  1.424837 S    
C102  C110  1.415969 A    
C78   C97   1.402460 A    
O39   C153  1.302111 A    
C38   C40   1.425271 A    
N7    O61   1.301664 A    
Cu6   O22   1.962614 S    
C6    O22   1.291464 A    
N8    O63   1.301482 A    
C125  C133  1.419718 A    
C138  C146  1.405876 A    
Cu4   O28   1.960348 S    
C122  C130  1.395266 A    
C159  H42   1.110465 S    
C163  H51   1.110508 S    
O3    Cu3   1.959799 S    
C36   C43   1.400395 A    
C102  N10   1.435408 S    
C132  C140  1.421736 A    
C159  H43   1.111050 S    
C49   C57   1.437810 A    
C130  C138  1.423650 A    
C83   C91   1.400265 A    
C25   C27   1.396491 A    
O25   C9    1.285291 A    
C77   C98   1.406928 A    
C29   C31   1.396251 A    
C135  O83   1.392270 S    
C165  H55   1.111163 S    
O83   C163  1.424320 S    
Cu12  O42   1.956073 S    
Cu7   O31   1.960348 S    
C38   C42   1.415922 A    
C45   C53   1.438792 A    
C166  H59   1.107236 S    
C136  C144  1.408111 A    
C71   N3    1.440860 S    
C161  H46   1.111755 S    
Cu8   O32   1.960348 S    
C140  C148  1.406618 A    
O36   C150  1.305935 A    
C104  N12   1.437342 S    
C86   H22   1.083306 S    
C13   C54   1.490976 S    
C171  H69   1.111166 S    
O12   Cu4   1.958690 S    
C149  O41   1.290610 A    
C50   C68   1.421922 A    
H2    C31   1.082301 S    
N6    O60   1.300847 A    
C172  C173  1.529931 S    
C34   C36   1.424591 A    
C48   C56   1.432824 A    
O33   C151  1.306166 A    
C108  N16   1.436988 S    
H6    C27   1.082105 S    
N16   O79   1.300847 A    
C1    C130  1.473803 S    
C134  O82   1.388554 S    
C107  C115  1.415439 A    
C121  H33   1.083345 S    
C108  C116  1.413973 A    
C5    C126  1.473285 S    
C73   N5    1.442973 S    
C45   C71   1.429465 A    
C16   C55   1.481035 S    
N3    O54   1.301435 A    
O2    C13   1.313356 A    
C69   N1    1.444479 S    
C9    C58   1.490409 S    
H7    C26   1.077183 S    
C50   C58   1.437497 A    
C60   C63   1.397533 A    
C133  C141  1.407154 A    
C8    C127  1.471665 S    
N14   O76   1.300984 A    
Cu3   O19   1.962060 S    
N12   O72   1.301348 A    
H14   C97   1.083070 S    
C85   C93   1.393595 A    
O10   Cu2   1.958438 S    
C163  C164  1.529062 S    
C91   C99   1.393872 A    
O38   Cu10  1.962839 S    
O39   Cu10  1.950594 S    
C124  H36   1.083637 S    
O38   C156  1.304302 A    
C166  H58   1.109749 S    
C110  C118  1.394445 A    
O5    Cu5   1.947306 S    
C40   C41   1.400492 A    
C46   C54   1.437561 A    
C77   C141  1.480643 S    
C107  C147  1.402516 A    
C114  C122  1.394517 A    
O88   C178  1.422083 S    
C175  C176  1.530538 S    
Cu9   O48   1.966221 S    
C81   C145  1.480650 S    
C180  H91   1.110229 S    
C162  H49   1.110325 S    
C170  H67   1.111721 S    
C14   C53   1.496272 S    
C21   C29   1.411724 A    
C106  C114  1.415142 A    
C82   C93   1.402273 A    
C23   C31   1.401109 A    
C160  H44   1.111462 S    
C34   C44   1.415402 A    
N15   O78   1.301038 A    
C118  C126  1.395254 A    
C26   C28   1.391757 A    
H13   C98   1.082986 S    
C55   C62   1.391797 A    
C52   C74   1.424713 A    
C151  O43   1.290059 A    
O7    C12   1.302313 A    
Cu2   O26   1.950741 S    
N1    O49   1.301858 A    
C30   C32   1.392319 A    
C160  H45   1.116750 S    
C18   C26   1.404383 A    
C171  H71   1.111036 S    
O34   Cu12  1.962839 S    
O82   C160  1.420327 S    
C177  H83   1.111086 S    
C158  H40   1.110280 S    
N2    O52   1.300896 A    
C10   C57   1.495083 S    
H8    C25   1.075687 S    
Cu9   Cu10  2.682234 S    
C62   H10   1.083712 S    
C104  C144  1.409551 A    
C109  C151  1.480115 S    
O28   C12   1.280801 A    
C80   C99   1.404977 A    
O29   C13   1.285695 A    
C81   C94   1.406692 A    
C75   N7    1.441177 S    
N9    O65   1.301049 A    
H1    C32   1.074101 S    
C103  C111  1.416784 A    
C45   C65   1.414993 A    
H3    C30   1.077411 S    
C101  C109  1.419091 A    
C173  H74   1.111739 S    
C33   C35   1.416207 A    
C80   C144  1.483077 S    
Cu5   O29   1.950741 S    
C168  H63   1.110499 S    
H5    C28   1.074137 S    
C157  H38   1.116327 S    
C52   C60   1.432300 A    
C155  O47   1.290286 A    
C88   C96   1.392727 A    
C48   C65   1.415138 A    
C89   C97   1.394077 A    
N10   O67   1.301265 A    
C164  H54   1.109956 S    
O84   C166  1.427650 S    
C178  C179  1.532344 S    
C15   C56   1.490554 S    
C120  C128  1.393089 A    
C177  H85   1.110921 S    
C133  O81   1.392650 S    
C49   C67   1.415013 A    
C138  O86   1.388631 S    
C169  H66   1.116368 S    
Cu4   Cu7   2.659404 S    
C112  C150  1.472453 S    
C174  H76   1.109097 S    
C176  C177  1.526752 S    
N13   O73   1.301032 A    
Cu1   O17   1.962613 S    
C52   C67   1.414561 A    
C123  C131  1.395514 A    
N5    O58   1.298684 A    
C7    C128  1.468401 S    
O9    C6    1.297115 A    
O26   C10   1.289152 A    
C41   C65   1.417344 A    
O11   C8    1.293419 A    
C19   C33   1.403255 A    
C170  C171  1.528002 S    
C167  H61   1.110498 S    
O12   C7    1.290842 A    
C174  H78   1.110099 S    
C43   C67   1.416684 A    
O13   C2    1.297261 A    
C19   C27   1.401583 A    
N7    O62   1.301484 A    
Cu11  O44   1.966221 S    
C64   H12   1.083717 S    
C87   H23   1.083172 S    
C169  C170  1.529146 S    
C137  O85   1.392535 S    
C116  C154  1.467927 S    
C108  C148  1.402187 A    
C118  H30   1.083548 S    
Cu11  O41   1.956073 S    
Cu10  O47   1.966224 S    
C110  C152  1.471501 S    
C20   C28   1.409683 A    
C167  C168  1.525080 S    
C135  C143  1.406535 A    
O1    Cu1   1.947306 S    
H18   C93   1.083012 S    
C20   C34   1.410024 A    
O14   Cu6   1.958438 S    
C44   C68   1.416226 A    
C24   C32   1.409813 A    
C87   C95   1.393006 A    
C46   C66   1.422525 A    
C47   C69   1.426044 A    
C78   C86   1.397982 A    
O7    Cu7   1.959799 S    
O8    Cu8   1.959802 S    
N8    O64   1.301050 A    
O37   Cu9   1.962842 S    
C105  C113  1.419003 A    
C136  O84   1.391429 S    
C163  H52   1.116431 S    
C140  O88   1.389365 S    
N11   O69   1.300986 A    
C115  C153  1.473688 S    
C20   C73   1.422217 A    
C173  C174  1.522325 S    
C103  C143  1.408696 A    
C113  C155  1.480485 S    
C1    O17   1.285762 A    
C101  C141  1.410169 A    
C179  H88   1.110570 S    
C24   C69   1.423283 A    
H16   C99   1.083271 S    
C105  C145  1.410118 A    
H17   C94   1.082975 S    
C175  H80   1.116101 S    
Cu9   O45   1.956073 S    
C178  H86   1.110845 S    
O35   Cu12  1.950594 S    
C86   C94   1.394340 A    
O11   Cu3   1.958690 S    
C165  H56   1.110464 S    
O40   C154  1.303203 A    
C42   C66   1.416154 A    
C77   C85   1.399431 A    
C70   N2    1.449203 S    
C111  C119  1.395313 A    
C53   C61   1.401013 A    
C176  H81   1.111767 S    
O6    Cu6   1.947304 S    
C119  C127  1.395726 A    
C109  C117  1.395661 A    
C161  H47   1.106685 S    
C3    C132  1.470228 S    
C117  C125  1.397246 A    
C175  H79   1.111171 S    
O36   Cu11  1.950595 S    
C112  C120  1.392840 A    
C137  C145  1.407183 A    
C12   C59   1.481731 S    
C121  C129  1.397587 A    
C165  H57   1.110968 S    
C171  H70   1.110531 S    
Cu11  Cu12  2.682234 S    
C116  C124  1.393375 A    
C21   C39   1.416071 A    
C104  C112  1.418010 A    
C50   C76   1.427014 A    
C57   C63   1.400276 A    
C129  C137  1.419962 A    
C172  H73   1.116551 S    
N16   O80   1.301145 A    
C92   C100  1.394527 A    
Cu3   O27   1.960348 S    
O34   C152  1.304957 A    
C154  O46   1.288652 A    
C17   C76   1.422960 A    
C19   C74   1.411427 A    
N15   O77   1.300979 A    
C37   C41   1.407933 A    
C179  C180  1.523919 S    
C115  C123  1.397282 A    
O30   C14   1.289231 A    
C131  C139  1.417576 A    
C153  O45   1.291169 A    
C76   N8    1.443444 S    
N4    O55   1.301453 A    
Cu6   O30   1.950741 S    
C161  C162  1.522506 S    
O4    C15   1.306912 A    
O5    C10   1.311193 A    
C54   C62   1.391706 A    
C2    C129  1.473370 S    
C83   C96   1.397012 A    
C122  H34   1.083517 S    
C180  H90   1.110779 S    
C6    C125  1.472787 S    
C105  N13   1.436084 S    
C90   H26   1.083324 S    
C123  H35   1.083319 S    
C114  C156  1.471340 S    
C166  C167  1.540504 S    
C24   C38   1.410935 A    
C51   C59   1.432060 A    
Cu1   Cu6   2.674964 S    
C21   C72   1.423004 A    
C48   C70   1.423904 A    
C3    O19   1.281399 A    
C82   C90   1.398063 A    
Cu3   Cu8   2.659404 S    
C164  H53   1.111650 S    
C111  C149  1.477032 S    
O10   C5    1.302696 A    
O27   C11   1.280016 A    
O15   C4    1.295245 A    
C56   C61   1.398044 A    
O40   Cu9   1.950595 S    
C91   H27   1.083543 S    
O14   C1    1.302532 A    
C79   C100  1.399260 A    
C177  H84   1.110520 S    
C178  H87   1.112777 S    
C162  H48   1.109046 S    
C33   C43   1.407603 A    
Cu5   O21   1.962613 S    
N6    O59   1.302406 A    
C4    O20   1.283893 A    
C84   C92   1.403079 A    
C158  H39   1.111700 S    
C39   C42   1.405889 A    
C5    O21   1.285305 A    
C152  O44   1.287942 A    
C4    C131  1.472323 S    
C88   H24   1.069131 S    
C89   H25   1.077053 S    
H20   C95   1.083387 S    
C90   C98   1.394625 A    
C92   H28   1.081725 S    
C22   C30   1.404601 A    
C107  N15   1.434625 S    
H19   C96   1.082753 S    
O87   C175  1.418904 S    
C49   C75   1.429046 A    
C22   C40   1.413942 A    
C80   C88   1.402578 A    
C139  O87   1.387675 S    
C173  H75   1.106795 S    
C81   C89   1.399588 A    
C51   C73   1.425731 A    
C58   C64   1.391829 A    
C168  H62   1.110897 S    
C35   C44   1.405706 A    
C157  C158  1.528947 S    
C79   C87   1.405704 A    
N14   O75   1.300803 A    
N10   O68   1.301554 A    
C83   C147  1.468365 S    
N12   O71   1.301473 A    
O37   C155  1.306137 A    
C17   C35   1.415454 A    
O35   C149  1.304077 A    
C17   C25   1.411693 A    
C18   C75   1.427798 A    
Cu8   O24   1.962059 S    
C51   C68   1.414360 A    
C23   C37   1.402578 A    
C22   C71   1.428599 A    
C2    O18   1.291637 A    
C11   C60   1.488803 S    
C47   C55   1.431503 A    
N5    O57   1.301803 A    
C61   H9    1.083156 S    
C180  H92   1.107388 S    
C85   H21   1.076983 S    
O15   Cu7   1.958690 S    
C162  H50   1.110211 S    
C170  H68   1.110228 S    
C106  N14   1.436070 S    
C124  C132  1.392967 A    
Cu12  O43   1.966224 S    
C128  C136  1.420327 A    
C126  C134  1.423749 A    
C103  N11   1.436043 S    
C37   C39   1.416499 A    
C47   C66   1.414180 A    
H4    C29   1.075831 S    
O13   Cu5   1.958438 S    
O33   Cu11  1.962842 S    
C113  C121  1.395918 A    
Cu4   O20   1.962059 S    
N4    O56   1.301143 A    
C176  H82   1.109590 S    
O1    C14   1.311786 A    
C79   C143  1.477736 S    
O3    C16   1.301795 A    
N1    O50   1.298874 A    
C150  O42   1.288322 A    
C72   N4    1.443157 S    
C158  C159  1.527974 S    
N2    O51   1.302416 A    
C74   N6    1.449296 S    
Cu2   O18   1.962614 S    
O8    C11   1.306396 A    
C78   C142  1.472890 S    
O9    Cu1   1.958438 S    
H15   C100  1.077871 S    
N9    O66   1.301626 A    
C101  N9    1.436119 S    
N3    O53   1.301715 A    
C159  H41   1.111167 S    
O31   C15   1.280671 A    
C168  H64   1.106275 S    
O32   C16   1.281004 A    
C157  H37   1.110714 S    
C179  H89   1.109872 S    
C156  O48   1.288690 A    
C119  H31   1.083383 S    
C117  H29   1.083337 S    
O2    Cu2   1.947304 S    
C139  C147  1.401683 A    
C164  C165  1.528428 S    
O4    Cu4   1.959802 S    
C134  C142  1.405178 A    
C84   C95   1.397726 A    
C160  C161  1.529991 S    
C169  H65   1.110661 S    
O16   C3    1.295584 A    
Cu7   O23   1.962060 S    
O86   C172  1.420357 S    
N13   O74   1.301616 A    
C7    O23   1.284583 A    
C8    O24   1.285740 A    
O6    C9    1.313392 A    
Cu1   O25   1.950741 S    
C84   C148  1.471316 S    
C18   C36   1.413969 A    
C120  H32   1.083809 S    
O16   Cu8   1.958690 S    
C167  H60   1.110183 S    
C63   H11   1.083241 S    
O85   C169  1.424715 S    
C82   C146  1.472519 S    
N11   O70   1.301583 A    
C102  C142  1.401022 A    
C46   C72   1.426766 A    
