data_mof_unit_37578.cif
_audit_creation_date              2012-12-10T20:25:38-0500
_audit_creation_method            fapswitch 2.2
_symmetry_space_group_name_H-M    P1
_symmetry_Int_Tables_number       1
_space_group_crystal_system       triclinic
_cell_length_a                    8.581356
_cell_length_b                    10.635749
_cell_length_c                    9.952203
_cell_angle_alpha                 89.72575
_cell_angle_beta                  98.64759
_cell_angle_gamma                 91.122869
_cell_volume                      897.829059761

loop_
_atom_site_label
_atom_site_type_symbol
_atom_type_description
_atom_site_fract_x
_atom_site_fract_y
_atom_site_fract_z
_atom_type_partial_charge
C1    C     C_R   0.502643 0.260819 0.500901 0.921434
C2    C     C_R   0.377758 0.446192 0.913123 0.003380
C3    C     C_3   0.321010 0.313051 0.896544 -0.464067
C4    C     C_R   0.201494 0.499526 0.464280 0.970803
C5    C     C_3   0.323118 0.310681 0.049974 0.815791
C6    C     C_R   0.504349 0.739440 0.500538 0.950584
C7    C     C_R   0.798515 0.500032 0.535730 0.956163
C8    C     C_2   0.036088 0.498801 0.445321 -0.290648
C9    C     C_2   0.963913 0.499685 0.554718 -0.341705
C10   C     C_R   0.415747 0.062117 0.576982 -0.027904
C11   C     C_R   0.517990 0.129460 0.506740 -0.217137
C12   C     C_R   0.640514 0.937217 0.455252 0.363436
C13   C     C_R   0.641618 0.068335 0.455322 0.415063
C14   C     C_R   0.517024 0.871655 0.505099 -0.226061
C15   C     C_R   0.416171 0.934403 0.577023 -0.009497
C16   C     C_3   0.241432 0.922862 0.570583 -0.394910
C17   C     C_3   0.240292 0.065887 0.570538 0.263761
C18   C     C_R   0.377728 0.446017 0.055103 -0.009871
C19   C     C_R   0.614287 0.562540 0.085370 0.439223
C20   C     C_R   0.614264 0.562726 0.943189 0.460660
Cl1   Cl    Cl    0.797743 0.858632 0.398975 -0.528344
Cl2   Cl    Cl    0.141440 0.129662 0.414866 -0.510188
H1    H     H_    0.974229 0.497685 0.341574 0.224104
H2    H     H_    0.537205 0.245366 0.093763 0.324955
H3    H     H_    0.766902 0.220315 0.433617 0.331513
H4    H     H_    0.693370 0.654299 0.245719 0.401037
H5    H     H_    0.200756 0.306109 0.836845 0.209101
H6    H     H_    0.408786 0.250968 0.860348 0.186958
H7    H     H_    0.025820 0.500465 0.658491 0.194112
H8    H     H_    0.182986 0.878445 0.474626 0.256344
H9    H     H_    0.207980 0.880722 0.664858 0.190541
H10   H     H_    0.204256 0.106567 0.663570 0.116168
H11   H     H_    0.695796 0.654260 0.801531 0.374722
H12   H     H_    0.183390 0.307608 0.184897 0.384896
N1    N     N_R   0.498950 0.499140 0.142680 -0.219357
N2    N     N_R   0.498950 0.499180 0.857030 -0.191302
O1    O     O_R   0.500020 0.316790 0.614690 -0.629260
O2    O     O_3   0.171938 0.294454 0.085289 -0.687310
O3    O     O_3   0.431655 0.225939 0.119002 -0.690945
O4    O     O_3   0.761535 0.131716 0.403299 -0.640363
O5    O     O_3   0.733301 0.629164 0.162884 -0.668940
O6    O     O_R   0.500000 0.316760 0.385350 -0.567170
O7    O     O_R   0.271760 0.500010 0.587850 -0.610993
O8    O     O_R   0.271740 0.499970 0.358500 -0.612547
O9    O     O_R   0.500000 0.683240 0.614650 -0.642770
O10   O     O_R   0.499980 0.683210 0.385310 -0.613726
O11   O     O_R   0.728260 0.500030 0.641500 -0.622260
O12   O     O_R   0.728240 0.499990 0.412150 -0.624315
O13   O     O_3   0.733736 0.629210 0.895629 -0.686966
Zn1   Zn    Zn3+2 0.500010 0.500020 0.653130 0.966794
Zn2   Zn    Zn3+2 0.499990 0.499980 0.346870 1.007014

loop_
_geom_bond_atom_site_label_1
_geom_bond_atom_site_label_2
_ccdc_geom_bond_type
O7    Zn1   S    
C20   O13   S    
C6    O9    A    
C9    H7    S    
C2    C18   A    
C6    O10   A    
C18   N1    A    
C17   Cl2   S    
C1    C11   S    
C1    O1    A    
O6    Zn2   S    
C4    C8    S    
C7    O12   A    
H2    O3    S    
C3    H5    S    
C2    C3    S    
C19   N1    A    
C5    O2    S    
C16   H9    S    
O1    Zn1   S    
C11   C13   A    
O9    Zn1   S    
C12   Cl1   S    
O8    Zn2   S    
C3    H6    S    
C4    O7    A    
C12   C14   A    
O11   Zn1   S    
C10   C15   A    
C5    O3    S    
H3    O4    S    
N1    Zn2   S    
C6    C14   S    
C10   C11   A    
C10   C17   S    
H11   O13   S    
C15   C16   S    
C20   N2    A    
C19   O5    S    
C1    O6    A    
C8    H1    S    
N2    Zn1   S    
C12   C13   A    
C2    N2    A    
C7    C9    S    
C17   H10   S    
C14   C15   A    
C8    C9    D    
C13   O4    S    
C5    C18   S    
C4    O8    A    
H12   O2    S    
C16   H8    S    
O10   Zn2   S    
O12   Zn2   S    
C19   C20   A    
H4    O5    S    
C16   C17   S    
C3    C5    S    
C7    O11   A    
