data_mof_unit_56392.cif
_audit_creation_date              2012-12-11T17:41:47-0500
_audit_creation_method            fapswitch 2.2
_symmetry_space_group_name_H-M    P1
_symmetry_Int_Tables_number       1
_space_group_crystal_system       triclinic
_cell_length_a                    7.366931
_cell_length_b                    23.748891
_cell_length_c                    26.375812
_cell_angle_alpha                 89.999553
_cell_angle_beta                  89.999446
_cell_angle_gamma                 89.999526
_cell_volume                      4614.61820402

loop_
_atom_site_label
_atom_site_type_symbol
_atom_type_description
_atom_site_fract_x
_atom_site_fract_y
_atom_site_fract_z
_atom_type_partial_charge
O1    O     O_R   0.607880 0.800910 0.198150 -0.534078
O2    O     O_R   0.392120 0.199090 0.801850 -0.532799
O3    O     O_R   0.392120 0.199090 0.698150 -0.534076
O4    O     O_R   0.607880 0.800910 0.301850 -0.532806
O5    O     O_R   0.107880 0.699090 0.301850 -0.534079
O6    O     O_R   0.892120 0.300910 0.698150 -0.532803
O7    O     O_R   0.892120 0.300910 0.801850 -0.534081
O8    O     O_R   0.107880 0.699090 0.198150 -0.532814
O9    O     O_R   0.278160 0.807580 0.301500 -0.535859
O10   O     O_R   0.721840 0.192420 0.698500 -0.530536
O11   O     O_R   0.721840 0.192420 0.801500 -0.535875
O12   O     O_R   0.278160 0.807580 0.198500 -0.530526
O13   O     O_R   0.778160 0.692420 0.198500 -0.535858
O14   O     O_R   0.221840 0.307580 0.801500 -0.530527
O15   O     O_R   0.221840 0.307580 0.698500 -0.535863
O16   O     O_R   0.778160 0.692420 0.301500 -0.530530
C1    C     C_R   0.447042 0.821459 0.317892 0.685109
C2    C     C_R   0.555531 0.178752 0.681286 0.679037
C3    C     C_R   0.552957 0.178542 0.817892 0.685141
C4    C     C_R   0.444469 0.821246 0.181285 0.679060
C5    C     C_R   0.947045 0.678540 0.182110 0.685112
C6    C     C_R   0.055528 0.321252 0.818710 0.679063
C7    C     C_R   0.052958 0.321458 0.682107 0.685109
C8    C     C_R   0.944469 0.678754 0.318715 0.679050
O17   O     O_3   0.441370 0.714400 0.250000 -0.375258
O18   O     O_3   0.558630 0.285600 0.750000 -0.375261
O19   O     O_3   0.941370 0.785600 0.250000 -0.375256
O20   O     O_3   0.058630 0.214400 0.750000 -0.375254
V1    V     V_3+5 0.166530 0.756600 0.250000 1.355284
V2    V     V_3+5 0.833470 0.243400 0.750000 1.355284
V3    V     V_3+5 0.666530 0.743400 0.250000 1.355289
V4    V     V_3+5 0.333470 0.256600 0.750000 1.355293
C9    C     C_R   0.135213 0.444785 0.589422 -0.207038
C10   C     C_R   0.780084 0.573038 0.421147 -0.221124
C11   C     C_R   0.864734 0.555245 0.089393 -0.206980
C12   C     C_R   0.219882 0.427025 0.921094 -0.221096
C13   C     C_R   0.635190 0.055211 0.910574 -0.207059
C14   C     C_R   0.280080 0.926968 0.078858 -0.221140
C15   C     C_R   0.364764 0.944777 0.410584 -0.207011
C16   C     C_R   0.719908 0.073022 0.578865 -0.221107
H1    H     H_    0.235316 0.476794 0.580542 0.118300
H2    H     H_    0.656886 0.555426 0.435651 0.141062
H3    H     H_    0.764601 0.523251 0.080496 0.118295
H4    H     H_    0.343076 0.444644 0.935594 0.141043
H5    H     H_    0.735283 0.023197 0.919452 0.118298
H6    H     H_    0.156881 0.944580 0.064355 0.141049
H7    H     H_    0.264648 0.976781 0.419470 0.118299
H8    H     H_    0.843106 0.055408 0.564362 0.141059
C17   C     C_R   0.168471 0.406361 0.629219 0.125613
C18   C     C_R   0.775654 0.611744 0.380803 0.140117
C19   C     C_R   0.831516 0.593648 0.129210 0.125622
C20   C     C_R   0.224324 0.388295 0.880769 0.140115
C21   C     C_R   0.668442 0.093630 0.870772 0.125599
C22   C     C_R   0.275652 0.888259 0.119200 0.140125
C23   C     C_R   0.331519 0.906358 0.370783 0.125618
C24   C     C_R   0.724340 0.111734 0.619205 0.140115
C25   C     C_R   0.036200 0.364178 0.640256 -0.089692
C26   C     C_R   0.940803 0.635939 0.361935 -0.109696
C27   C     C_R   0.963814 0.635819 0.140261 -0.089719
C28   C     C_R   0.059182 0.364088 0.861912 -0.109698
C29   C     C_R   0.536194 0.135821 0.859742 -0.089653
C30   C     C_R   0.440802 0.864063 0.138066 -0.109702
C31   C     C_R   0.463802 0.864180 0.359742 -0.089706
C32   C     C_R   0.559194 0.135932 0.638070 -0.109692
C33   C     C_R   0.875103 0.363371 0.611018 -0.236566
C34   C     C_R   0.102434 0.619489 0.386429 -0.256684
C35   C     C_R   0.124935 0.636619 0.111031 -0.236388
C36   C     C_R   0.897542 0.380554 0.886393 -0.256676
C37   C     C_R   0.375106 0.136635 0.888984 -0.236596
C38   C     C_R   0.602432 0.880517 0.113574 -0.256683
C39   C     C_R   0.624909 0.863378 0.388976 -0.236501
C40   C     C_R   0.397560 0.119477 0.613581 -0.256672
C41   C     C_R   0.841659 0.402578 0.572302 0.163766
C42   C     C_R   0.103750 0.581086 0.427713 0.185615
C43   C     C_R   0.158341 0.597427 0.072303 0.163737
C44   C     C_R   0.896213 0.418981 0.927658 0.185599
C45   C     C_R   0.341644 0.097426 0.927696 0.163735
C46   C     C_R   0.603747 0.918923 0.072291 0.185623
C47   C     C_R   0.658341 0.902582 0.427694 0.163759
C48   C     C_R   0.396241 0.081069 0.572301 0.185605
C49   C     C_R   0.973727 0.443571 0.561366 0.079929
C50   C     C_R   0.940194 0.557720 0.444669 0.077106
C51   C     C_R   0.026215 0.556467 0.061334 0.079750
C52   C     C_R   0.059763 0.442358 0.944605 0.077112
C53   C     C_R   0.473710 0.056432 0.938634 0.079965
C54   C     C_R   0.440190 0.942288 0.055336 0.077113
C55   C     C_R   0.526252 0.943563 0.438639 0.079852
C56   C     C_R   0.559796 0.057700 0.555347 0.077104
C57   C     C_1   0.948675 0.484320 0.520964 -0.043230
C58   C     C_1   0.936716 0.517860 0.486563 -0.051150
C59   C     C_1   0.051246 0.515755 0.020901 -0.043392
C60   C     C_1   0.063224 0.482227 0.986492 -0.051016
C61   C     C_1   0.448662 0.015688 0.979041 -0.043215
C62   C     C_1   0.436709 0.982150 0.013443 -0.051199
C63   C     C_1   0.551299 0.984303 0.479050 -0.043289
C64   C     C_1   0.563267 0.017838 0.513454 -0.051096
C65   C     C_3   0.342927 0.413605 0.659142 -0.342480
C66   C     C_3   0.306955 0.437074 0.712169 -0.713494
H9    H     H_    0.242435 0.479231 0.709334 0.216077
H10   H     H_    0.216878 0.409022 0.734421 0.215010
H11   H     H_    0.437487 0.441456 0.732850 0.203309
H12   H     H_    0.420367 0.373657 0.660903 0.192864
H13   H     H_    0.435292 0.443672 0.639664 0.162340
C67   C     C_3   0.589433 0.628165 0.362272 -0.321431
C68   C     C_3   0.535744 0.686254 0.383664 -0.669744
H14   H     H_    0.483130 0.682167 0.422855 0.183448
H15   H     H_    0.652501 0.715732 0.385327 0.214160
H16   H     H_    0.430107 0.705871 0.359509 0.213870
H17   H     H_    0.577395 0.625363 0.320503 0.192060
H18   H     H_    0.489771 0.596074 0.373346 0.149458
C69   C     C_3   0.657073 0.586395 0.159138 -0.342558
C70   C     C_3   0.693065 0.562916 0.212159 -0.713513
H19   H     H_    0.757677 0.520773 0.209316 0.216093
H20   H     H_    0.783072 0.590979 0.234420 0.215022
H21   H     H_    0.562533 0.558502 0.232835 0.203320
H22   H     H_    0.579627 0.626342 0.160908 0.192868
H23   H     H_    0.564710 0.556330 0.139658 0.162357
C71   C     C_3   0.410548 0.371866 0.862245 -0.321420
C72   C     C_3   0.464241 0.313788 0.883660 -0.669761
H24   H     H_    0.516869 0.317895 0.922849 0.183455
H25   H     H_    0.347483 0.284311 0.885340 0.214158
H26   H     H_    0.569869 0.294158 0.859510 0.213869
H27   H     H_    0.422588 0.374648 0.820475 0.192060
H28   H     H_    0.510205 0.403964 0.873303 0.149460
C73   C     C_3   0.842843 0.086362 0.840828 -0.342509
C74   C     C_3   0.806749 0.062902 0.787805 -0.713675
H29   H     H_    0.741893 0.020798 0.790647 0.216135
H30   H     H_    0.716917 0.091015 0.765541 0.215054
H31   H     H_    0.937256 0.058415 0.767133 0.203329
H32   H     H_    0.920343 0.126298 0.839058 0.192888
H33   H     H_    0.935183 0.056278 0.860293 0.162371
C75   C     C_3   0.089430 0.871837 0.137731 -0.321422
C76   C     C_3   0.035745 0.813750 0.116336 -0.669756
H34   H     H_    0.983135 0.817840 0.077144 0.183448
H35   H     H_    0.152503 0.784271 0.114672 0.214157
H36   H     H_    0.930105 0.794132 0.140489 0.213876
H37   H     H_    0.077390 0.874637 0.179500 0.192059
H38   H     H_    0.989768 0.903929 0.126659 0.149455
C77   C     C_3   0.157060 0.913602 0.340861 -0.342509
C78   C     C_3   0.193022 0.937073 0.287835 -0.713480
H39   H     H_    0.257540 0.979230 0.290670 0.216075
H40   H     H_    0.283097 0.909022 0.265581 0.215014
H41   H     H_    0.062486 0.941456 0.267156 0.203314
H42   H     H_    0.079626 0.873653 0.339100 0.192862
H43   H     H_    0.064693 0.943668 0.360340 0.162341
C79   C     C_3   0.910561 0.128156 0.637735 -0.321435
C80   C     C_3   0.964250 0.186242 0.616337 -0.669741
H44   H     H_    0.016872 0.182150 0.577146 0.183451
H45   H     H_    0.847492 0.215720 0.614669 0.214160
H46   H     H_    0.069882 0.205862 0.640491 0.213869
H47   H     H_    0.922597 0.125358 0.679504 0.192065
H48   H     H_    0.010223 0.096063 0.626665 0.149462
H49   H     H_    0.772859 0.331545 0.618129 0.132628
H50   H     H_    0.226287 0.637150 0.373262 0.153066
H51   H     H_    0.227212 0.668434 0.118148 0.132702
H52   H     H_    0.773692 0.362887 0.873230 0.153074
H53   H     H_    0.272874 0.168466 0.881876 0.132665
H54   H     H_    0.726286 0.862855 0.126741 0.153066
H55   H     H_    0.727169 0.831556 0.381862 0.132647
H56   H     H_    0.273707 0.137139 0.626748 0.153069
C81   C     C_3   0.663259 0.400162 0.543816 -0.373412
C82   C     C_3   0.686430 0.373046 0.491767 -0.741494
H57   H     H_    0.781163 0.397844 0.467853 0.230559
H58   H     H_    0.739474 0.329496 0.495905 0.225473
H59   H     H_    0.552828 0.371212 0.472334 0.217265
H60   H     H_    0.561420 0.375261 0.565377 0.172263
H61   H     H_    0.606071 0.443208 0.539651 0.175094
C83   C     C_3   0.277160 0.564642 0.454525 -0.373044
C84   C     C_3   0.339877 0.505852 0.437908 -0.762562
H62   H     H_    0.229077 0.474449 0.441021 0.236550
H63   H     H_    0.386732 0.506587 0.397934 0.219458
H64   H     H_    0.452136 0.491225 0.462667 0.215504
H65   H     H_    0.383659 0.596442 0.448947 0.171401
H66   H     H_    0.255383 0.564624 0.496219 0.178528
C85   C     C_3   0.336658 0.599867 0.043786 -0.373276
C86   C     C_3   0.313433 0.627379 0.991896 -0.741056
H67   H     H_    0.218015 0.602891 0.967907 0.230421
H68   H     H_    0.261130 0.670999 0.996312 0.225292
H69   H     H_    0.446875 0.629119 0.972387 0.217271
H70   H     H_    0.438842 0.624510 0.065474 0.172131
H71   H     H_    0.393409 0.556788 0.039338 0.175091
C87   C     C_3   0.722796 0.435444 0.954457 -0.373073
C88   C     C_3   0.660096 0.494224 0.937802 -0.762455
H72   H     H_    0.770902 0.525626 0.940906 0.236529
H73   H     H_    0.613278 0.493461 0.897825 0.219456
H74   H     H_    0.547818 0.508870 0.962545 0.215375
H75   H     H_    0.616299 0.403639 0.948898 0.171395
H76   H     H_    0.744553 0.435492 0.996152 0.178519
C89   C     C_3   0.163243 0.099851 0.956180 -0.373340
C90   C     C_3   0.186397 0.127023 0.008208 -0.741556
H77   H     H_    0.280645 0.102143 0.032197 0.230523
H78   H     H_    0.240010 0.170504 0.004057 0.225513
H79   H     H_    0.052708 0.129041 0.027571 0.217271
H80   H     H_    0.061377 0.124711 0.934591 0.172258
H81   H     H_    0.106101 0.056803 0.960390 0.175091
C91   C     C_3   0.777159 0.935371 0.045483 -0.373077
C92   C     C_3   0.839866 0.994159 0.062109 -0.762485
H82   H     H_    0.729064 0.025561 0.058993 0.236563
H83   H     H_    0.886695 0.993418 0.102085 0.219448
H84   H     H_    0.952139 0.008789 0.037356 0.215491
H85   H     H_    0.883659 0.903570 0.051057 0.171399
H86   H     H_    0.755389 0.935396 0.003789 0.178530
C93   C     C_3   0.836729 0.900168 0.456183 -0.373358
C94   C     C_3   0.813578 0.872939 0.508189 -0.741245
H87   H     H_    0.718491 0.897613 0.532114 0.230495
H88   H     H_    0.760933 0.829342 0.503972 0.225376
H89   H     H_    0.947120 0.871192 0.527660 0.217251
H90   H     H_    0.938679 0.875349 0.434582 0.172210
H91   H     H_    0.893760 0.943229 0.460427 0.175085
C95   C     C_3   0.222829 0.064619 0.545495 -0.373040
C96   C     C_3   0.160121 0.005832 0.562124 -0.762548
H92   H     H_    0.270926 0.974430 0.559011 0.236538
H93   H     H_    0.113283 0.006575 0.602099 0.219459
H94   H     H_    0.047854 0.991199 0.537371 0.215466
H95   H     H_    0.116329 0.096421 0.551066 0.171397
H96   H     H_    0.244598 0.064592 0.503800 0.178524

loop_
_geom_bond_atom_site_label_1
_geom_bond_atom_site_label_2
_ccdc_geom_bond_type
O17   V3    S    
C93   C94   S    
C56   C64   S    
C18   C67   S    
C61   C62   T    
O12   V1    S    
O19   V1    S    
C84   H62   S    
C37   C45   A    
C63   C64   T    
C10   H2    S    
C78   H41   S    
C15   C55   A    
C2    C32   S    
C44   C52   A    
C39   C47   A    
C65   C66   S    
C23   C77   S    
O15   V4    S    
O16   V3    S    
O18   V4    S    
C68   H15   S    
O11   C3    A    
C74   H29   S    
C14   C54   A    
O8    V1    S    
C13   C53   A    
C80   H45   S    
C54   C62   S    
C5    C27   S    
C88   H73   S    
C6    C28   S    
C67   H17   S    
C3    C29   S    
C38   C46   A    
C75   H38   S    
C95   H95   S    
C34   C42   A    
O1    V3    S    
C33   C41   A    
C30   C38   A    
O3    C2    A    
O2    V4    S    
C41   C49   A    
C92   H83   S    
C73   H33   S    
C71   C72   S    
C67   C68   S    
C33   H49   S    
C20   C28   A    
C90   H79   S    
C27   C35   A    
C87   C88   S    
C21   C29   A    
C73   H32   S    
C26   C34   A    
C86   H69   S    
C15   C23   A    
C69   C70   S    
O11   V2    S    
C90   H78   S    
C75   C76   S    
C16   C24   A    
C23   C31   A    
C76   H36   S    
C37   H53   S    
C24   C32   A    
C69   H22   S    
C11   H3    S    
O5    V1    S    
C65   H12   S    
C12   C20   A    
O9    V1    S    
C85   H71   S    
C49   C57   S    
C46   C54   A    
C86   H68   S    
C45   C53   A    
O16   C8    A    
O7    V2    S    
C48   C56   A    
C13   C21   A    
C84   H63   S    
O3    V4    S    
C53   C61   S    
C42   C50   A    
C44   C87   S    
C89   H80   S    
C47   C55   A    
C70   H19   S    
C81   C82   S    
C82   H58   S    
C72   H25   S    
C83   H65   S    
O10   C2    A    
C68   H16   S    
C10   C18   A    
C80   H44   S    
C18   C26   A    
C80   H46   S    
C78   H39   S    
C88   H74   S    
C25   C33   A    
C59   C60   T    
C34   H50   S    
C11   C51   A    
C71   H28   S    
C22   C30   A    
C74   H31   S    
C75   H37   S    
C43   C85   S    
C55   C63   S    
C38   H54   S    
C92   H84   S    
C83   H66   S    
C88   H72   S    
C90   H77   S    
C65   H13   S    
C82   H59   S    
C77   H42   S    
C89   H81   S    
C52   C60   S    
C41   C81   S    
C96   H92   S    
C14   C22   A    
C94   H89   S    
C77   C78   S    
O12   C4    A    
O8    C5    A    
O13   C5    A    
C87   H76   S    
C36   C44   A    
C74   H30   S    
C71   H27   S    
C81   H61   S    
C48   C95   S    
C21   C73   S    
C79   H48   S    
O4    C1    A    
O9    C1    A    
C86   H67   S    
O6    V2    S    
C94   H88   S    
C66   H9    S    
C66   H10   S    
C11   C19   A    
C76   H34   S    
C84   H64   S    
O10   V2    S    
C42   C83   S    
C19   C27   A    
C13   H5    S    
C51   C59   S    
O7    C6    A    
C22   C75   S    
C15   H7    S    
C79   C80   S    
C68   H14   S    
C72   H26   S    
C29   C37   A    
C89   C90   S    
C7    C25   S    
C16   H8    S    
C83   C84   S    
O1    C4    A    
C19   C69   S    
C96   H93   S    
O2    C3    A    
C46   C91   S    
O13   V3    S    
C81   H60   S    
O14   V4    S    
C91   C92   S    
C36   H52   S    
C50   C58   S    
C17   C25   A    
C72   H24   S    
C85   H70   S    
C78   H40   S    
C35   H51   S    
C82   H57   S    
C66   H11   S    
C39   H55   S    
C93   H90   S    
C47   C93   S    
C40   H56   S    
C69   H23   S    
C9    H1    S    
O14   C6    A    
O20   V2    S    
C91   H85   S    
C45   C89   S    
C40   C48   A    
C85   C86   S    
C1    C31   S    
C67   H18   S    
C43   C51   A    
C73   C74   S    
O5    C8    A    
C12   C52   A    
C95   H96   S    
O6    C7    A    
O15   C7    A    
C87   H75   S    
C32   C40   A    
C24   C79   S    
C92   H82   S    
C14   H6    S    
O4    V3    S    
C12   H4    S    
C17   C65   S    
C79   H47   S    
C70   H20   S    
C96   H94   S    
C35   C43   A    
C94   H87   S    
C28   C36   A    
C8    C26   S    
C95   C96   S    
C9    C17   A    
C76   H35   S    
C93   H91   S    
C10   C50   A    
C57   C58   T    
C9    C49   A    
C31   C39   A    
C70   H21   S    
C16   C56   A    
C91   H86   S    
C77   H43   S    
C4    C30   S    
C20   C71   S    
