data_mof_unit_47564.cif
_audit_creation_date              2013-03-05T15:41:44-0500
_audit_creation_method            fapswitch 2.2
_symmetry_space_group_name_H-M    P1
_symmetry_Int_Tables_number       1
_space_group_crystal_system       triclinic
_cell_length_a                    11.153089
_cell_length_b                    12.776108
_cell_length_c                    23.555054
_cell_angle_alpha                 90.997836
_cell_angle_beta                  96.820022
_cell_angle_gamma                 69.001255
_cell_volume                      3110.20853829

loop_
_atom_site_label
_atom_site_type_symbol
_atom_site_description
_atom_site_fract_x
_atom_site_fract_y
_atom_site_fract_z
_atom_type_partial_charge
O1    O     O_R   0.196340 0.303200 0.448500 -0.473854
O2    O     O_R   0.199310 0.519670 0.454880 -0.498195
C1    C     C_R   0.148622 0.615489 0.428588 0.553402
O3    O     O_R   0.045660 0.691380 0.441680 -0.445207
O4    O     O_R   0.811930 0.659460 0.430950 -0.450290
C2    C     C_R   0.748927 0.603670 0.403505 0.565573
O5    O     O_R   0.757900 0.507620 0.421760 -0.492589
O6    O     O_R   0.988630 0.322990 0.439840 -0.482447
C3    C     C_R   0.100775 0.281290 0.423849 0.567929
O7    O     O_R   0.196380 0.301720 0.573850 -0.479434
O8    O     O_R   0.199350 0.518300 0.571080 -0.485630
C4    C     C_R   0.148964 0.617286 0.591600 0.569881
O9    O     O_R   0.045700 0.689900 0.567030 -0.439229
O10   O     O_R   0.811960 0.658090 0.547150 -0.467946
C5    C     C_R   0.746778 0.603995 0.564263 0.554382
O11   O     O_R   0.757930 0.506140 0.547110 -0.494870
O12   O     O_R   0.988670 0.321620 0.556040 -0.490617
C6    C     C_R   0.099131 0.275774 0.584108 0.553637
Cr1   Cr    Cr6+3 0.189770 0.415650 0.511620 1.111503
Cr2   Cr    Cr6+3 0.930400 0.667320 0.496770 1.204258
Cr3   Cr    Cr6+3 0.879870 0.417010 0.491650 1.115173
O13   O     O_3   0.000020 0.499990 0.500010 -0.316092
C7    C     C_R   0.675121 0.761080 0.139237 -0.031731
C8    C     C_R   0.688190 0.638446 0.343598 -0.035517
C9    C     C_R   0.655406 0.568282 0.248009 0.025485
C10   C     C_R   0.653807 0.560776 0.307630 -0.024869
C11   C     C_R   0.688478 0.738765 0.319208 0.187718
C12   C     C_R   0.679306 0.750919 0.258974 -0.056238
C13   C     C_R   0.685017 0.656675 0.225152 -0.090226
C14   C     C_R   0.709599 0.657425 0.167719 0.011377
C15   C     C_R   0.669178 0.856752 0.171741 0.142649
C16   C     C_R   0.669366 0.852409 0.231472 0.204474
C17   C     C_1   0.240655 0.158624 0.123671 0.090759
C18   C     C_2   0.210671 0.216329 0.230998 0.192827
C19   C     C_2   0.116757 0.198077 0.257292 0.175695
C20   C     C_1   0.113795 0.213935 0.318109 0.087200
C21   C     C_1   0.224338 0.188348 0.171813 0.092783
C22   C     C_1   0.109806 0.236952 0.367772 0.093897
C23   C     C_1   0.166016 0.757744 0.123726 0.099901
C24   C     C_2   0.135306 0.733234 0.231648 0.160830
C25   C     C_2   0.206733 0.638038 0.262695 0.178317
C26   C     C_1   0.199335 0.630986 0.323424 0.087745
C27   C     C_1   0.150522 0.742503 0.172112 0.075251
C28   C     C_1   0.184052 0.625083 0.372932 0.088191
C29   C     C_1   0.606768 0.769679 0.861314 0.455533
C30   C     C_2   0.629398 0.771320 0.750972 0.148705
C31   C     C_2   0.653685 0.673534 0.723130 0.146283
C32   C     C_1   0.665732 0.663636 0.663215 0.095140
C33   C     C_1   0.620879 0.770440 0.811590 0.203692
C34   C     C_1   0.692319 0.640552 0.615734 0.096372
C35   C     C_R   0.205067 0.175524 0.851635 -0.012695
C36   C     C_R   0.102638 0.213498 0.637174 -0.034479
C37   C     C_R   0.973782 0.213993 0.715093 0.048713
C38   C     C_R   0.985654 0.214515 0.655833 0.020428
C39   C     C_R   0.214581 0.184167 0.675414 0.022205
C40   C     C_R   0.203366 0.192476 0.734004 -0.032516
C41   C     C_R   0.085501 0.200049 0.755456 -0.016977
C42   C     C_R   0.090077 0.185479 0.816122 0.051719
C43   C     C_R   0.303741 0.198399 0.829133 -0.081859
C44   C     C_R   0.307225 0.198273 0.771400 -0.056748
H1    H     H_    0.388906 0.200213 0.855966 0.213828
H2    H     H_    0.393731 0.201623 0.756907 0.249599
C45   C     C_R   0.116971 0.737316 0.856627 0.183399
C46   C     C_R   0.190580 0.642486 0.651214 -0.059886
C47   C     C_R   0.304434 0.567203 0.745026 0.202832
C48   C     C_R   0.297654 0.564353 0.684691 -0.012150
C49   C     C_R   0.104755 0.735402 0.677819 0.205303
C50   C     C_R   0.105794 0.734817 0.737681 -0.061038
C51   C     C_R   0.204783 0.648284 0.771107 -0.086606
C52   C     C_R   0.208809 0.651052 0.830850 -0.206365
C53   C     C_R   0.002940 0.803262 0.823517 0.477964
C54   C     C_R   0.007469 0.815879 0.765305 -0.058532
H3    H     H_    0.289053 0.592803 0.858015 0.214584
O14   O     O_R   0.113660 0.883270 0.047820 -0.376827
O15   O     O_R   0.186930 0.068530 0.043990 -0.498337
C55   C     C_R   0.266055 0.110321 0.069182 0.535556
O16   O     O_R   0.377770 0.089040 0.054220 -0.457910
O17   O     O_R   0.562800 0.872960 0.056970 -0.435005
C56   C     C_R   0.601170 0.776094 0.081331 0.627285
O18   O     O_R   0.555390 0.700940 0.062700 -0.459479
O19   O     O_R   0.295020 0.731920 0.049950 -0.500789
C57   C     C_R   0.188356 0.788289 0.069018 0.621559
O20   O     O_R   0.094290 0.884230 0.921550 -0.210601
O21   O     O_R   0.168980 0.069410 0.926940 -0.508837
C58   C     C_R   0.241691 0.114907 0.907313 0.513379
O22   O     O_R   0.358400 0.089990 0.927950 -0.503682
O23   O     O_R   0.544850 0.873850 0.939920 -0.333085
C59   C     C_R   0.571974 0.777704 0.917911 0.763097
O24   O     O_R   0.536020 0.701900 0.936430 -0.542254
O25   O     O_R   0.277070 0.732810 0.932890 -0.595499
C60   C     C_R   0.161271 0.783974 0.908953 0.775155
Cr4   Cr    Cr6+3 0.149500 0.973980 0.985330 1.316764
Cr5   Cr    Cr6+3 0.457000 0.976510 0.994660 1.309782
Cr6   Cr    Cr6+3 0.411170 0.724270 0.995270 1.121826
O26   O     O_3   0.339220 0.891590 0.991750 -0.402022
C61   C     C_2   0.788578 0.552904 0.140115 0.632642
O27   O     O_2   0.849623 0.467917 0.169218 -0.456734
O28   O     O_R   0.802323 0.553841 0.081866 -0.594403
H4    H     H_    0.860846 0.478751 0.068891 0.377954
N1    N     N_R   0.049137 0.831325 0.256547 0.073663
O29   O     O_R   0.955414 0.903836 0.223597 -0.207840
O30   O     O_R   0.074535 0.857923 0.309000 -0.268981
N2    N     N_R   0.674976 0.570325 0.752690 0.066770
O31   O     O_R   0.640811 0.494785 0.724996 -0.259887
O32   O     O_R   0.750762 0.542303 0.800770 -0.214702
N3    N     N_R   0.598302 0.878300 0.722076 0.096112
O33   O     O_R   0.549398 0.970355 0.749449 -0.281365
O34   O     O_R   0.620443 0.885786 0.669579 -0.243351
C62   C     C_2   0.984015 0.172210 0.844054 0.627161
O35   O     O_2   0.936921 0.237142 0.881130 -0.396799
O36   O     O_R   0.942113 0.083357 0.830278 -0.682387
H5    H     H_    0.868353 0.085061 0.852051 0.415650
C63   C     C_2   0.843180 0.234170 0.732926 0.678435
O37   O     O_2   0.776770 0.182223 0.711574 -0.351635
O38   O     O_R   0.795381 0.313291 0.773915 -0.575937
H6    H     H_    0.710412 0.313263 0.785243 0.412712
C64   C     C_2   0.876785 0.214327 0.612677 0.669449
O39   O     O_2   0.895930 0.142431 0.576385 -0.411586
O40   O     O_R   0.754590 0.298026 0.612227 -0.646084
H7    H     H_    0.689703 0.288286 0.580595 0.341614
C65   C     C_2   0.341640 0.135602 0.652520 0.644655
O41   O     O_2   0.361865 0.053186 0.622683 -0.420845
O42   O     O_R   0.433907 0.186480 0.661613 -0.612664
H8    H     H_    0.514613 0.145462 0.642866 0.400367
N4    N     N_R   0.661006 0.958935 0.144077 0.125232
O43   O     O_R   0.571147 0.053820 0.153279 -0.235090
O44   O     O_R   0.743610 0.956872 0.109026 -0.159546
N5    N     N_R   0.889644 0.870247 0.848745 1.905011
O45   O     O_R   0.864047 0.840373 0.897072 -2.080417
O46   O     O_R   0.864047 0.840373 0.897072 -2.080417
N6    N     N_R   0.413494 0.489838 0.779949 0.113523
O47   O     O_R   0.422489 0.386312 0.785850 -0.306049
O48   O     O_R   0.488304 0.527169 0.814383 -0.301104
N7    N     N_R   0.929963 0.921710 0.738403 0.077527
O49   O     O_R   0.806255 0.963936 0.741372 -0.212475
O50   O     O_R   0.987937 0.985118 0.721209 -0.286494
C66   C     C_2   0.406543 0.487558 0.656119 0.661404
O51   O     O_2   0.465282 0.391602 0.674252 -0.373724
O52   O     O_R   0.442618 0.526634 0.608188 -0.682180
H9    H     H_    0.517531 0.467627 0.592050 0.354302
N8    N     N_R   0.011878 0.826925 0.643330 0.151496
O53   O     O_R   0.051855 0.889248 0.612962 -0.229683
O54   O     O_R   0.891088 0.835634 0.634653 -0.225710
C67   C     C_2   0.606270 0.496580 0.208273 0.660491
O55   O     O_2   0.652687 0.394366 0.213413 -0.326986
O56   O     O_R   0.509701 0.547288 0.163273 -0.675441
H10   H     H_    0.485452 0.490670 0.138390 0.381080
N9    N     N_R   0.638756 0.955290 0.261864 0.149769
O57   O     O_R   0.712765 0.014392 0.263161 -0.105032
O58   O     O_R   0.528339 0.996593 0.282301 -0.258925
C68   C     C_2   0.611710 0.475657 0.332833 0.667167
O59   O     O_2   0.665580 0.375861 0.324603 -0.370595
O60   O     O_R   0.515259 0.510294 0.369309 -0.669030
H11   H     H_    0.496282 0.445286 0.385083 0.365838
N10   N     N_R   0.709343 0.823067 0.355900 0.121144
O61   O     O_R   0.630283 0.868682 0.393353 -0.249078
O62   O     O_R   0.815904 0.843373 0.356998 -0.226809
N11   N     N_R   0.015959 0.165467 0.226547 0.094143
O63   O     O_R   0.945441 0.128404 0.254963 -0.158103
O64   O     O_R   0.980344 0.188528 0.172168 -0.256981
N12   N     N_R   0.308337 0.252765 0.261803 0.116324
O65   O     O_R   0.416916 0.234447 0.241013 -0.145567
O66   O     O_R   0.285182 0.314511 0.306629 -0.305192
N13   N     N_R   0.283163 0.538403 0.235589 0.079569
O67   O     O_R   0.382763 0.465042 0.264910 -0.226702
O68   O     O_R   0.242089 0.511429 0.185434 -0.301056

loop_
_geom_bond_atom_site_label_1
_geom_bond_atom_site_label_2
_geom_bond_distance
_ccdc_geom_bond_type
O23   C59   1.271972 A    
C39   C65   1.491181 S    
O11   Cr3   2.028086 S    
N10   O62   1.301496 A    
C42   C62   1.481012 S    
C25   C26   1.448802 S    
C19   C20   1.445926 S    
C8    C11   1.414864 A    
C39   C40   1.399283 A    
C18   N12   1.446961 S    
N5    O45   1.301326 A    
C35   C58   1.472439 S    
O19   C57   1.279541 A    
C41   C42   1.436798 A    
C6    C36   1.482474 S    
O42   H8    1.013961 S    
O4    Cr2   1.939795 S    
C58   O22   1.260999 A    
O20   Cr4   2.043853 S    
C66   O52   1.399027 S    
C30   C33   1.442745 S    
O8    Cr1   1.921956 S    
N13   O68   1.301823 A    
N13   O67   1.297536 A    
N9    O58   1.301157 A    
C63   O37   1.222401 D    
C62   O36   1.394181 S    
O4    C2    1.286375 A    
C4    C46   1.492447 S    
N3    O33   1.301477 A    
O17   Cr5   1.958133 S    
C5    O11   1.274612 A    
C18   C21   1.445207 S    
O23   Cr5   1.913889 S    
C40   C41   1.434450 A    
C44   H2    1.075900 S    
C18   C19   1.367214 D    
C5    C34   1.417328 S    
O14   Cr4   2.049563 S    
O24   Cr6   2.025072 S    
C3    C22   1.428448 S    
C14   C61   1.498233 S    
N12   O66   1.301395 A    
C24   C27   1.444365 S    
O36   H5    1.013531 S    
C37   C63   1.495690 S    
C50   C51   1.417799 A    
C61   O28   1.399297 S    
C31   C32   1.432627 S    
C68   O59   1.222391 D    
C36   C39   1.385594 A    
C32   C34   1.196000 T    
C43   C44   1.365039 A    
Cr5   O26   1.976065 S    
Cr3   O13   1.976530 S    
N11   O64   1.301416 A    
Cr6   O26   1.995374 S    
C26   C28   1.205878 T    
O14   C57   1.270301 A    
C47   N6    1.436048 S    
C36   C38   1.421088 A    
O25   Cr6   1.942816 S    
N10   O61   1.301531 A    
C55   O16   1.268359 A    
C9    C13   1.415991 A    
C1    C28   1.432918 S    
C43   H1    1.083933 S    
O1    Cr1   2.038623 S    
C49   C50   1.408856 A    
C46   C49   1.421405 A    
O10   Cr2   1.912055 S    
C12   C16   1.422116 A    
Cr1   O13   1.988231 S    
C31   N2    1.431163 S    
O21   C58   1.282771 A    
C67   O56   1.398568 S    
C37   C41   1.433064 A    
O17   C56   1.277043 A    
O6    C3    1.271783 A    
C23   C27   1.202249 T    
C9    C10   1.411970 A    
O5    Cr3   2.075260 S    
Cr4   O26   1.985304 S    
O12   Cr3   1.955897 S    
C40   C44   1.392849 A    
N5    O46   1.301326 A    
N8    O54   1.302700 A    
C46   C48   1.412033 A    
O15   C55   1.272114 A    
C7    C14   1.398745 A    
C13   C14   1.412740 A    
O22   Cr5   2.075276 S    
C17   C55   1.428967 S    
C54   N7    1.427942 S    
C15   C16   1.408746 A    
C45   C52   1.395640 A    
C29   C33   1.200816 T    
O7    Cr1   2.060231 S    
C50   C54   1.424982 A    
C2    C8    1.492186 S    
C61   O27   1.223810 D    
C29   C59   1.424065 S    
C52   H3    1.080495 S    
N1    O30   1.301356 A    
O12   C6    1.265242 A    
O1    C3    1.269933 A    
N2    O32   1.301970 A    
C35   C42   1.411642 A    
N9    O57   1.300892 A    
O40   H7    1.013710 S    
C65   O41   1.222788 D    
N7    O49   1.299124 A    
O15   Cr4   1.925872 S    
C24   C25   1.359000 D    
C45   C53   1.398190 A    
C47   C48   1.414727 A    
N4    O43   1.301031 A    
C53   N5    1.437982 S    
C38   C64   1.488805 S    
C9    C67   1.491205 S    
C35   C43   1.397108 A    
C15   N4    1.437878 S    
O18   Cr6   2.065180 S    
C1    O3    1.276560 A    
C49   N8    1.437153 S    
C11   C12   1.417541 A    
C12   C13   1.418512 A    
O38   H6    1.014682 S    
O56   H10   1.013760 S    
C30   C31   1.354778 D    
C10   C68   1.486644 S    
O9    Cr2   2.054174 S    
O2    Cr1   1.939260 S    
C8    C10   1.419788 A    
C23   C57   1.427748 S    
Cr2   O13   1.995232 S    
C67   O55   1.222339 D    
N6    O48   1.300969 A    
O6    Cr3   1.913081 S    
C24   N1    1.443340 S    
N7    O50   1.299013 A    
O52   H9    1.012391 S    
C37   C38   1.418059 A    
C2    O5    1.273163 A    
C16   N9    1.435402 S    
O20   C60   1.280783 A    
C66   O51   1.220960 D    
C64   O39   1.222925 D    
C7    C56   1.485279 S    
C64   O40   1.397659 S    
O2    C1    1.284141 A    
C19   N11   1.446969 S    
C53   C54   1.392376 A    
N12   O65   1.301862 A    
N8    O53   1.301737 A    
C20   C22   1.203291 T    
O19   Cr6   1.909912 S    
O25   C60   1.283766 A    
N11   O63   1.301463 A    
C48   C66   1.485806 S    
N3    O34   1.301081 A    
O7    C6    1.291283 A    
C47   C51   1.414427 A    
C30   N3    1.445081 S    
O16   Cr5   2.032173 S    
N1    O29   1.300618 A    
C68   O60   1.398695 S    
C51   C52   1.402862 A    
C17   C21   1.203203 T    
C65   O42   1.396267 S    
C56   O18   1.287896 A    
O3    Cr2   2.030810 S    
C59   O24   1.274215 A    
O28   H4    1.014003 S    
C25   N13   1.441510 S    
C45   C60   1.469506 S    
N2    O31   1.297981 A    
N4    O44   1.301398 A    
O10   C5    1.268080 A    
O21   Cr4   1.935096 S    
C4    O9    1.271497 A    
O60   H11   1.013932 S    
C62   O35   1.224008 D    
N6    O47   1.298768 A    
O8    C4    1.297176 A    
C7    C15   1.416356 A    
C63   O38   1.392929 S    
C11   N10   1.435491 S    
