data_mof_unit_5286.cif
_audit_creation_date              2012-12-11T15:55:41-0500
_audit_creation_method            fapswitch 2.2
_symmetry_space_group_name_H-M    P1
_symmetry_Int_Tables_number       1
_space_group_crystal_system       triclinic
_cell_length_a                    6.950332
_cell_length_b                    14.536681
_cell_length_c                    16.10419
_cell_angle_alpha                 89.979898
_cell_angle_beta                  90.045853
_cell_angle_gamma                 90.176997
_cell_volume                      1627.07457418

loop_
_atom_site_label
_atom_site_type_symbol
_atom_type_description
_atom_site_fract_x
_atom_site_fract_y
_atom_site_fract_z
_atom_type_partial_charge
O1    O     O_R   0.505680 0.583900 0.413320 -0.547376
O2    O     O_R   0.176010 0.594950 0.586080 -0.545241
O3    O     O_R   0.005680 0.416100 0.586680 -0.537684
C1    C     C_R   0.345567 0.616281 0.615747 0.725459
O4    O     O_R   0.175960 0.594930 0.413930 -0.545808
O5    O     O_R   0.005640 0.416080 0.413300 -0.538530
C2    C     C_R   0.345080 0.617086 0.385001 0.676527
O6    O     O_R   0.505720 0.583920 0.586700 -0.503674
O7    O     O_3   0.339190 0.441320 0.500000 -0.373130
V1    V     V_3+5 0.064350 0.510890 0.500000 1.437409
O8    O     O_R   0.675920 0.405050 0.413920 -0.536613
C3    C     C_R   0.844086 0.384963 0.383263 0.677669
O9    O     O_R   0.675960 0.405070 0.586070 -0.542309
C4    C     C_R   0.844655 0.382975 0.614813 0.718674
V2    V     V_3+5 0.564340 0.489110 0.500000 1.455287
O10   O     O_3   0.839370 0.558680 0.500000 -0.363382
C5    C     C_R   0.015917 0.312156 0.736488 0.051501
C6    C     C_R   0.853189 0.317395 0.685377 -0.077352
C7    C     C_R   0.699493 0.257357 0.702924 -0.190710
H1    H     H_    0.575031 0.256380 0.662896 0.128705
C8    C     C_R   0.711462 0.193254 0.768356 -0.190522
H2    H     H_    0.596093 0.144888 0.778034 0.145611
C9    C     C_R   0.877359 0.186337 0.817651 -0.055103
C10   C     C_R   0.029154 0.246583 0.800032 0.070349
C11   C     C_3   0.228580 0.221500 0.775235 0.184790
C12   C     C_3   0.216983 0.295898 0.709051 -0.462349
H3    H     H_    0.335280 0.234214 0.825347 0.098890
H4    H     H_    0.225134 0.270114 0.644098 0.178346
H5    H     H_    0.310779 0.356188 0.722445 0.150619
C13   C     C_R   0.039857 0.207740 0.231624 -0.141658
H6    H     H_    0.175487 0.173020 0.221478 0.137803
C14   C     C_R   0.026646 0.272101 0.296048 -0.165488
H7    H     H_    0.152701 0.284343 0.334093 0.170300
C15   C     C_R   0.853440 0.319120 0.312019 -0.150171
C16   C     C_R   0.692811 0.301113 0.259451 0.348840
C17   C     C_R   0.705745 0.233405 0.197758 -0.154384
H8    H     H_    0.580576 0.220011 0.159407 0.140808
C18   C     C_R   0.878946 0.186838 0.182324 -0.126889
C19   C     C_R   0.198353 0.737459 0.706719 -0.242352
H9    H     H_    0.065030 0.730880 0.672384 0.159245
C20   C     C_R   0.207619 0.801312 0.771617 -0.146760
H10   H     H_    0.080951 0.841662 0.785568 0.137081
C21   C     C_R   0.378538 0.813992 0.816949 -0.077573
C22   C     C_R   0.539232 0.760383 0.796583 -0.247973
H11   H     H_    0.671393 0.768712 0.831533 0.117586
C23   C     C_R   0.531075 0.694696 0.732172 0.367342
C24   C     C_R   0.358938 0.683640 0.685646 -0.078355
C25   C     C_R   0.188621 0.724579 0.282546 -0.152830
H12   H     H_    0.048229 0.706194 0.306587 0.115720
C26   C     C_R   0.199700 0.788155 0.217339 -0.151729
H13   H     H_    0.067303 0.816914 0.193357 0.118445
C27   C     C_R   0.378793 0.814306 0.183764 -0.044600
C28   C     C_R   0.546491 0.775039 0.217278 -0.154078
H14   H     H_    0.686877 0.793423 0.193230 0.116653
C29   C     C_R   0.535410 0.711450 0.282481 -0.153177
H15   H     H_    0.667793 0.682665 0.306454 0.116342
C30   C     C_R   0.356320 0.685363 0.316100 -0.042634
O11   O     O_R   0.229200 0.915950 0.913350 -0.537009
O12   O     O_R   0.559090 0.905000 0.086080 -0.544884
O13   O     O_R   0.729280 0.083880 0.086680 -0.542755
C31   C     C_R   0.389991 0.882717 0.114960 0.679229
O14   O     O_R   0.558920 0.904980 0.913920 -0.544220
O15   O     O_R   0.729110 0.083860 0.913300 -0.545650
C32   C     C_R   0.389656 0.882802 0.885154 0.724206
O16   O     O_R   0.229360 0.915970 0.086730 -0.543364
O17   O     O_3   0.395680 0.058580 0.000030 -0.369583
V3    V     V_3+5 0.670570 0.989070 0.999990 1.405582
O18   O     O_R   0.058820 0.094950 0.913870 -0.525438
C33   C     C_R   0.889992 0.116614 0.884807 0.714739
O19   O     O_R   0.058990 0.094970 0.086020 -0.544604
C34   C     C_R   0.890182 0.117276 0.114734 0.697403
V4    V     V_3+5 0.170560 0.010930 0.999930 1.432318
O20   O     O_3   0.895590 0.941310 0.999960 -0.374286
O21   O     O_3   0.688517 0.640018 0.715107 -0.645374
H16   H     H_    0.793843 0.654835 0.754505 0.273791
O22   O     O_3   0.232561 0.131806 0.742399 -0.632720
H17   H     H_    0.333585 0.130190 0.699038 0.285980
O23   O     O_3   0.522710 0.349239 0.264434 -0.652904
H18   H     H_    0.554258 0.414199 0.277127 0.283977

loop_
_geom_bond_atom_site_label_1
_geom_bond_atom_site_label_2
_ccdc_geom_bond_type
C29   H15   S    
C20   H10   S    
C4    C6    S    
C16   C17   A    
C1    O6    A    
C25   C30   A    
C19   C20   A    
C28   H14   S    
C22   H11   S    
O14   V3    S    
C5    C12   S    
C17   H8    S    
C7    C8    A    
C6    C7    A    
C27   C31   S    
O5    C3    A    
C13   H6    S    
V2    O10   S    
C13   C18   A    
C15   C16   A    
C9    C33   S    
O14   C32   A    
O12   V3    S    
C23   C24   A    
O8    V2    S    
O17   V4    S    
C7    H1    S    
O13   V3    S    
O18   C33   A    
C26   C27   A    
C9    C10   A    
O19   C34   A    
V3    O20   S    
O7    V1    S    
C25   C26   A    
O17   V3    S    
O9    C4    A    
C20   C21   A    
C22   C23   A    
C21   C32   S    
C26   H13   S    
C28   C29   A    
C8    C9    A    
O11   C32   A    
O15   V3    S    
O12   C31   A    
C5    C10   A    
O21   H16   S    
O15   C33   A    
C10   C11   S    
C19   H9    S    
O4    C2    A    
O23   H18   S    
O13   C34   A    
C11   C12   S    
C14   C15   A    
O2    C1    A    
C21   C22   A    
O18   V4    S    
C5    C6    A    
O22   H17   S    
O3    C4    A    
O1    V2    S    
C25   H12   S    
O6    V2    S    
O9    V2    S    
C3    C15   S    
O2    V1    S    
C23   O21   S    
C27   C28   A    
C19   C24   A    
C18   C34   S    
O1    C2    A    
V4    O20   S    
O5    V1    S    
O8    C3    A    
C11   H3    S    
O16   V4    S    
C16   O23   S    
C12   H4    S    
C11   O22   S    
C14   H7    S    
C29   C30   A    
O7    V2    S    
O4    V1    S    
O3    V1    S    
V1    O10   S    
C13   C14   A    
O11   V4    S    
C17   C18   A    
C31   O16   A    
C12   H5    S    
O19   V4    S    
C8    H2    S    
C2    C30   S    
C1    C24   S    
