data_mof_unit_42078.cif
_audit_creation_date              2012-12-10T20:30:10-0500
_audit_creation_method            fapswitch 2.2
_symmetry_space_group_name_H-M    P1
_symmetry_Int_Tables_number       1
_space_group_crystal_system       triclinic
_cell_length_a                    9.950398
_cell_length_b                    10.649518
_cell_length_c                    13.12901
_cell_angle_alpha                 90.023923
_cell_angle_beta                  72.567485
_cell_angle_gamma                 88.113567
_cell_volume                      1326.54555006

loop_
_atom_site_label
_atom_site_type_symbol
_atom_type_description
_atom_site_fract_x
_atom_site_fract_y
_atom_site_fract_z
_atom_type_partial_charge
C1    C     C_R   0.504673 0.738140 0.485093 0.894984
C2    C     C_R   0.435873 0.430204 0.980407 -0.024736
C3    C     C_R   0.471321 0.403588 0.871020 -0.082492
C4    C     C_R   0.543141 0.416411 0.030215 0.036263
C5    C     C_R   0.659959 0.330888 0.987618 0.009966
C6    C     C_R   0.678865 0.279523 0.883515 0.075945
C7    C     C_R   0.583535 0.316058 0.827098 0.243516
C8    C     C_R   0.535508 0.488285 0.121301 -0.271352
C9    C     C_R   0.726144 0.364205 0.150491 -0.145006
C10   C     C_R   0.377504 0.446261 0.815288 -0.160855
C11   C     C_R   0.385227 0.937592 0.484560 0.052652
C12   C     C_R   0.424359 0.482336 0.701653 0.927406
C13   C     C_R   0.512610 0.869412 0.459085 -0.126585
C14   C     C_R   0.642456 0.932448 0.430054 0.158639
C15   C     C_R   0.637785 0.061793 0.446588 -0.208303
C16   C     C_R   0.508225 0.127125 0.483855 -0.113379
C17   C     C_R   0.382334 0.065208 0.500900 0.056400
C18   C     C_3   0.271714 0.091016 0.446735 -0.008573
C19   C     C_3   0.286400 0.952879 0.417793 -0.481107
C20   C     C_R   0.891363 0.524709 0.592313 0.143966
C21   C     C_R   0.963549 0.454406 0.415416 -0.117707
C22   C     C_R   0.106437 0.451157 0.417334 -0.136118
C23   C     C_R   0.503595 0.260228 0.493971 0.922104
C24   C     C_R   0.032683 0.528472 0.590731 0.073444
C25   C     C_3   0.004083 0.637565 0.668001 -0.103349
C26   C     C_3   0.849662 0.635578 0.668261 -0.120196
C27   C     C_R   0.576929 0.496616 0.296423 0.830886
C28   C     C_R   0.746293 0.299200 0.054551 0.268505
C29   C     C_R   0.621445 0.458237 0.184176 -0.059563
C30   C     C_R   0.233307 0.452718 0.871170 0.096111
C31   C     C_R   0.194129 0.481530 0.979817 0.262950
C32   C     C_R   0.291038 0.457086 0.037084 0.120962
H1    H     H_    0.785836 0.334150 0.203527 0.173247
H2    H     H_    0.734795 0.112461 0.426505 0.171212
H3    H     H_    0.306072 0.153350 0.376254 0.164045
H4    H     H_    0.186813 0.903654 0.447185 0.199298
H5    H     H_    0.340944 0.935036 0.331508 0.186888
H6    H     H_    0.938765 0.418819 0.346272 0.164931
H7    H     H_    0.188028 0.407223 0.354143 0.153292
H8    H     H_    0.018306 0.608695 0.745330 0.192995
H9    H     H_    0.811221 0.717274 0.630638 0.168937
H10   H     H_    0.453593 0.561056 0.148832 0.158855
N1    N     N_R   0.856940 0.500860 0.500710 -0.106921
N2    N     N_R   0.142580 0.500820 0.500710 -0.107352
O1    O     O_R   0.385310 0.683210 0.499990 -0.612805
O2    O     O_R   0.614650 0.683240 0.500000 -0.619944
O3    O     O_R   0.328390 0.499940 0.653610 -0.613837
O4    O     O_R   0.557730 0.499980 0.653620 -0.604002
O5    O     O_R   0.385350 0.316760 0.500000 -0.642585
O6    O     O_R   0.614690 0.316790 0.500010 -0.582372
O7    O     O_R   0.442270 0.500020 0.346380 -0.628763
O8    O     O_R   0.671610 0.500060 0.346390 -0.615548
Zn1   Zn    Zn3+2 0.346870 0.499980 0.499990 0.922660
Zn2   Zn    Zn3+2 0.653130 0.500020 0.500010 0.954313
C33   C     C_3   0.129865 0.132429 0.528620 -0.354184
C34   C     C_3   0.006716 0.128506 0.482328 -0.886741
H11   H     H_    0.911442 0.173621 0.539219 0.276085
H12   H     H_    0.030822 0.179426 0.405881 0.254421
H13   H     H_    0.983134 0.029911 0.469354 0.247892
H14   H     H_    0.106020 0.072010 0.600366 0.210746
H15   H     H_    0.137134 0.230048 0.555597 0.232590
C35   C     C_3   0.074687 0.761265 0.627890 -0.367740
C36   C     C_3   0.154106 0.808786 0.702926 -0.807865
H16   H     H_    0.080917 0.822001 0.784948 0.255591
H17   H     H_    0.240132 0.740987 0.705381 0.275470
H18   H     H_    0.200021 0.900652 0.676086 0.242977
H19   H     H_    0.146661 0.745448 0.547142 0.245442
H20   H     H_    0.996345 0.836082 0.623040 0.194105
C37   C     C_3   0.751273 0.606199 0.780413 -0.380508
C38   C     C_3   0.742326 0.712986 0.860137 -0.823704
H21   H     H_    0.845914 0.727491 0.872997 0.282434
H22   H     H_    0.704949 0.801228 0.830987 0.255770
H23   H     H_    0.666038 0.689657 0.938143 0.261709
H24   H     H_    0.643364 0.595383 0.777172 0.243815
H25   H     H_    0.787032 0.518074 0.811159 0.207234
C39   C     C_3   0.808858 0.202393 0.822861 -0.357624
C40   C     C_3   0.788996 0.060286 0.832294 -0.718415
H26   H     H_    0.721320 0.034905 0.912923 0.285094
H27   H     H_    0.740506 0.025618 0.772392 0.264672
H28   H     H_    0.893353 0.010949 0.816777 0.245492
H29   H     H_    0.843553 0.228314 0.737166 0.208470
H30   H     H_    0.896990 0.228986 0.850260 0.227810
Br1   Br    Br    0.869303 0.152513 0.042938 -0.632379
C41   C     C_3   0.131400 0.381517 0.827986 -0.384950
C42   C     C_3   0.187923 0.247145 0.793966 -0.780236
H31   H     H_    0.206219 0.195556 0.862409 0.293287
H32   H     H_    0.114354 0.194727 0.762917 0.220112
H33   H     H_    0.287094 0.248629 0.727333 0.278269
H34   H     H_    0.027777 0.375774 0.889484 0.242003
H35   H     H_    0.111433 0.427893 0.759169 0.212085
C43   C     C_3   0.229196 0.414098 0.150680 -0.437222
C44   C     C_3   0.150523 0.292094 0.154387 -0.794503
H36   H     H_    0.052831 0.308464 0.131891 0.308555
H37   H     H_    0.218888 0.220478 0.099515 0.275568
H38   H     H_    0.120992 0.253911 0.236170 0.219425
H39   H     H_    0.310742 0.390382 0.189032 0.218633
H40   H     H_    0.158353 0.489516 0.198187 0.233192
Br2   Br    Br    0.006601 0.548952 0.049436 -0.634373
Br3   Br    Br    0.575913 0.209158 0.711920 -0.612250
C45   C     C_3   0.785139 0.868496 0.375981 -0.432086
C46   C     C_3   0.789060 0.808229 0.269527 -0.721534
H41   H     H_    0.707452 0.736991 0.280588 0.244585
H42   H     H_    0.770982 0.881219 0.214164 0.271835
H43   H     H_    0.893970 0.761605 0.232872 0.273783
H44   H     H_    0.869664 0.937969 0.357866 0.200007
H45   H     H_    0.815484 0.798991 0.428580 0.225232

loop_
_geom_bond_atom_site_label_1
_geom_bond_atom_site_label_2
_ccdc_geom_bond_type
C24   C25   S    
C36   H17   S    
C46   H41   S    
C27   C29   S    
C4    C8    A    
C42   H31   S    
O4    Zn2   S    
C11   C19   S    
C45   H44   S    
O6    Zn2   S    
C7    Br3   S    
C35   H19   S    
C8    C29   A    
C21   C22   A    
C8    H10   S    
C3    C7    A    
C19   H4    S    
C25   H8    S    
C30   C31   A    
C1    O2    A    
C23   O5    A    
C32   C43   S    
C15   C16   A    
C34   H11   S    
C2    C32   A    
C18   C19   S    
C31   Br2   S    
C45   C46   S    
C19   H5    S    
C43   H39   S    
C21   N1    A    
C41   C42   S    
C22   N2    A    
C21   H6    S    
C20   C24   A    
O8    Zn2   S    
C16   C17   A    
C38   H21   S    
C18   H3    S    
C15   H2    S    
C12   O4    A    
O3    Zn1   S    
C40   H27   S    
C36   H18   S    
O1    Zn1   S    
C46   H42   S    
C13   C14   A    
C28   Br1   S    
C9    H1    S    
C41   H35   S    
C12   O3    A    
N2    Zn1   S    
C27   O7    A    
C42   H32   S    
C39   C40   S    
C39   H30   S    
C43   C44   S    
C23   O6    A    
C25   C26   S    
C40   H26   S    
C44   H38   S    
O7    Zn1   S    
C2    C4    A    
C35   C36   S    
C5    C28   A    
C10   C30   A    
N1    Zn2   S    
C31   C32   A    
O2    Zn2   S    
C38   H23   S    
C44   H37   S    
C17   C18   S    
C37   H24   S    
C43   H40   S    
C6    C39   S    
C10   C12   S    
C18   C33   S    
C46   H43   S    
C24   N2    A    
C1    C13   S    
C41   H34   S    
C20   N1    A    
C27   O8    A    
C42   H33   S    
C40   H28   S    
C11   C17   A    
C4    C5    A    
C39   H29   S    
C14   C45   S    
C6    C7    A    
C9    C29   A    
C16   C23   S    
C45   H45   S    
C34   H13   S    
C35   H20   S    
C2    C3    A    
C3    C10   A    
C11   C13   A    
C1    O1    A    
C5    C6    A    
C20   C26   S    
O5    Zn1   S    
C22   H7    S    
C33   H15   S    
C44   H36   S    
C34   H12   S    
C37   H25   S    
C25   C35   S    
C30   C41   S    
C37   C38   S    
C33   C34   S    
C36   H16   S    
C26   H9    S    
C26   C37   S    
C14   C15   A    
C38   H22   S    
C33   H14   S    
C9    C28   A    
