data_mof_unit_39896.cif
_audit_creation_date              2012-12-11T16:37:18-0500
_audit_creation_method            fapswitch 2.2
_symmetry_space_group_name_H-M    P1
_symmetry_Int_Tables_number       1
_space_group_crystal_system       triclinic
_cell_length_a                    19.497592
_cell_length_b                    6.956079
_cell_length_c                    17.662965
_cell_angle_alpha                 90.010095
_cell_angle_beta                  108.96998
_cell_angle_gamma                 89.98864
_cell_volume                      2265.46538256

loop_
_atom_site_label
_atom_site_type_symbol
_atom_type_description
_atom_site_fract_x
_atom_site_fract_y
_atom_site_fract_z
_atom_type_partial_charge
O1    O     O_R   0.561710 0.369960 0.440200 -0.513922
O2    O     O_R   0.061710 0.630040 0.940200 -0.506509
O3    O     O_R   0.412630 0.033330 0.406330 -0.518882
O4    O     O_R   0.912630 0.966670 0.906330 -0.518044
O5    O     O_R   0.438290 0.869790 0.559800 -0.535227
O6    O     O_R   0.938290 0.130210 0.059800 -0.539978
C1    C     C_R   0.384674 0.202699 0.383465 0.739096
C2    C     C_R   0.885054 0.797002 0.882996 0.726236
O7    O     O_R   0.559570 0.039810 0.430640 -0.546947
O8    O     O_R   0.059570 0.960190 0.930640 -0.542486
O9    O     O_R   0.586280 0.876320 0.584290 -0.542917
O10   O     O_R   0.086280 0.123680 0.084290 -0.539910
C3    C     C_R   0.581977 0.208890 0.416724 0.737659
C4    C     C_R   0.080273 0.790161 0.914478 0.737366
O11   O     O_R   0.413720 0.363440 0.415710 -0.548494
O12   O     O_R   0.913720 0.636560 0.915710 -0.548175
O13   O     O_3   0.508590 0.205630 0.550380 -0.377814
O14   O     O_3   0.008590 0.794370 0.050380 -0.378073
V1    V     V_3+5 0.498410 0.928130 0.490650 1.449239
V2    V     V_3+5 0.998410 0.071870 0.990650 1.446246
O15   O     O_R   0.587370 0.546990 0.593670 -0.539435
O16   O     O_R   0.087370 0.453010 0.093670 -0.542383
C5    C     C_R   0.615683 0.716526 0.616058 0.740723
C6    C     C_R   0.114843 0.283314 0.117219 0.723846
O17   O     O_R   0.440430 0.540520 0.569360 -0.543690
O18   O     O_R   0.940430 0.459480 0.069360 -0.540540
C7    C     C_R   0.419383 0.709329 0.584516 0.699549
C8    C     C_R   0.919119 0.290840 0.084303 0.673492
V3    V     V_3+5 0.501590 0.428960 0.509350 1.439091
V4    V     V_3+5 0.001590 0.571040 0.009350 1.434128
O19   O     O_3   0.491410 0.701330 0.449620 -0.366666
O20   O     O_3   0.991410 0.298670 0.949620 -0.356637
C9    C     C_R   0.267710 0.856313 0.662353 -0.152295
C10   C     C_R   0.750406 0.239987 0.144687 -0.153456
H1    H     H_    0.221347 0.951715 0.643970 0.117569
H2    H     H_    0.692748 0.221256 0.115046 0.111109
C11   C     C_R   0.313621 0.849178 0.615785 -0.170652
C12   C     C_R   0.796220 0.251229 0.097831 -0.170253
H3    H     H_    0.302510 0.941454 0.563808 0.128102
H4    H     H_    0.773232 0.238762 0.033351 0.094712
C13   C     C_R   0.372132 0.720384 0.634846 -0.042567
C14   C     C_R   0.870978 0.280337 0.133807 -0.020810
C15   C     C_R   0.385891 0.604934 0.703139 -0.194359
C16   C     C_R   0.899504 0.295018 0.217403 -0.189082
H5    H     H_    0.431922 0.508124 0.720150 0.113172
H6    H     H_    0.957239 0.314899 0.246333 0.097139
C17   C     C_R   0.341955 0.618257 0.751727 -0.080567
C18   C     C_R   0.853905 0.280993 0.264425 -0.082292
H7    H     H_    0.357112 0.534933 0.806055 0.134215
H8    H     H_    0.877891 0.287842 0.328890 0.140715
C19   C     C_R   0.280869 0.740100 0.730987 0.140690
C20   C     C_R   0.778495 0.255686 0.228707 0.122333
C21   C     C_R   0.208230 0.581730 0.810930 0.412587
C22   C     C_R   0.736028 0.374435 0.342511 0.381899
C23   C     C_R   0.151941 0.594024 0.844878 0.379834
C24   C     C_R   0.689908 0.358175 0.389670 0.376975
C25   C     C_R   0.129473 0.774923 0.865016 -0.221163
C26   C     C_R   0.633495 0.220275 0.370388 -0.185342
C27   C     C_R   0.155700 0.939785 0.838339 -0.254208
C28   C     C_R   0.626765 0.093804 0.306507 -0.247233
H9    H     H_    0.139361 0.079405 0.851838 0.219095
H10   H     H_    0.584498 0.985682 0.291015 0.149633
C29   C     C_R   0.202504 0.926224 0.793062 -0.233716
C30   C     C_R   0.673545 0.106879 0.260995 -0.248621
H11   H     H_    0.218292 0.056020 0.769772 0.207596
H12   H     H_    0.666758 0.006055 0.212387 0.139662
C31   C     C_R   0.230709 0.748452 0.779779 -0.079117
C32   C     C_R   0.729140 0.245296 0.278444 -0.066522
C33   C     C_R   0.765697 0.636265 0.814133 0.017421
C34   C     C_R   0.307099 0.360667 0.256661 0.003284
C35   C     C_R   0.815446 0.783810 0.815926 -0.199400
C36   C     C_R   0.316735 0.214472 0.313972 -0.187652
C37   C     C_R   0.796311 0.916514 0.751704 0.455514
C38   C     C_R   0.259280 0.081560 0.303528 0.464936
C39   C     C_R   0.730144 0.895051 0.688091 -0.259282
C40   C     C_R   0.194011 0.104439 0.237406 -0.284946
H13   H     H_    0.716791 0.998756 0.639744 0.133053
H14   H     H_    0.150613 0.000931 0.227524 0.132510
C41   C     C_R   0.684101 0.735772 0.684035 -0.169228
C42   C     C_R   0.182972 0.264682 0.185670 -0.157734
C43   C     C_R   0.702191 0.611995 0.749806 0.076660
C44   C     C_R   0.242169 0.385593 0.194709 0.091112
C45   C     C_3   0.708395 0.398364 0.753452 -0.379279
C46   C     C_3   0.248054 0.599163 0.198998 -0.384689
C47   C     C_3   0.777313 0.424566 0.824373 -0.333898
C48   C     C_3   0.319575 0.572073 0.266436 -0.337056
H15   H     H_    0.718233 0.336671 0.699833 0.182760
H16   H     H_    0.254802 0.662095 0.144015 0.159153
H17   H     H_    0.663699 0.330063 0.769935 0.160496
H18   H     H_    0.205018 0.666274 0.218750 0.182904
H19   H     H_    0.827260 0.377891 0.812453 0.222265
H20   H     H_    0.367480 0.618665 0.250132 0.156413
H21   H     H_    0.772171 0.372551 0.881791 0.148064
H22   H     H_    0.318551 0.623363 0.325514 0.225848
O21   O     O_3   0.237832 0.404981 0.803833 -0.560560
C49   C     C_3   0.280512 0.342222 0.881086 -0.302042
H23   H     H_    0.246067 0.285501 0.915147 0.185158
H24   H     H_    0.316591 0.457613 0.916445 0.112873
H25   H     H_    0.316122 0.223480 0.874474 0.160514
O22   O     O_3   0.789452 0.513827 0.361403 -0.558111
C50   C     C_3   0.759748 0.684545 0.321121 -0.207510
H26   H     H_    0.715001 0.738988 0.341460 0.170252
H27   H     H_    0.740404 0.664002 0.255010 0.123027
H28   H     H_    0.802689 0.796204 0.335392 0.163122
O23   O     O_3   0.119431 0.427010 0.858171 -0.551889
C51   C     C_3   0.057631 0.393247 0.790638 -0.212792
H29   H     H_    0.073501 0.360189 0.736946 0.130251
H30   H     H_    0.019036 0.516429 0.778144 0.108800
H31   H     H_    0.028386 0.266513 0.802874 0.163954
O24   O     O_3   0.698546 0.484375 0.452645 -0.544948
C52   C     C_3   0.746437 0.400944 0.522706 -0.201492
H32   H     H_    0.800842 0.374965 0.516891 0.145936
H33   H     H_    0.724051 0.264896 0.538182 0.097155
H34   H     H_    0.753640 0.502337 0.573201 0.152294
O25   O     O_3   0.842772 0.064831 0.749662 -0.560032
C53   C     C_3   0.881364 0.013181 0.697665 -0.292309
H35   H     H_    0.844473 0.994012 0.635130 0.138827
H36   H     H_    0.914197 0.880897 0.718833 0.124570
H37   H     H_    0.919335 0.131290 0.696999 0.149927
O26   O     O_3   0.269245 0.932100 0.358472 -0.559311
C54   C     C_3   0.206309 0.895247 0.379012 -0.312071
H38   H     H_    0.167831 0.803510 0.333094 0.140492
H39   H     H_    0.179651 0.030011 0.389146 0.138110
H40   H     H_    0.222216 0.812619 0.435744 0.163855

loop_
_geom_bond_atom_site_label_1
_geom_bond_atom_site_label_2
_ccdc_geom_bond_type
C45   H15   S    
C29   H11   S    
C50   H26   S    
C21   O21   S    
O13   V3    S    
O21   C49   S    
O4    C2    A    
V1    O19   S    
C47   H19   S    
C17   H7    S    
O9    V1    S    
C21   C31   A    
C14   C16   A    
C23   O23   S    
C30   C32   A    
C40   H14   S    
C12   C14   A    
O3    C1    A    
C25   C27   A    
C22   C32   A    
C51   H29   S    
C26   C28   A    
O25   C53   S    
C49   H25   S    
C53   H35   S    
C28   H10   S    
C2    O12   A    
C8    C14   S    
C33   C35   A    
O7    C3    A    
O24   C52   S    
C54   H40   S    
C48   H22   S    
C1    O11   A    
O5    C7    A    
C47   H21   S    
O7    V1    S    
O6    C8    A    
C52   H32   S    
C16   H6    S    
C49   H24   S    
O3    V1    S    
O14   V4    S    
V4    O20   S    
C10   H2    S    
C20   C32   S    
C51   H30   S    
C18   H8    S    
C50   H27   S    
C13   C15   A    
C22   O22   S    
C46   H18   S    
C34   C44   A    
C24   O24   S    
O18   C8    A    
C43   C45   S    
C6    C42   S    
O11   V3    S    
C22   C24   A    
C21   C23   A    
O17   V3    S    
C45   H17   S    
C29   C31   A    
C27   H9    S    
C40   C42   A    
C36   C38   A    
O8    C4    A    
O8    V2    S    
C1    C36   S    
C35   C37   A    
O13   V1    S    
C17   C19   A    
C3    C26   S    
O15   V3    S    
C9    C11   A    
C9    C19   A    
C30   H12   S    
C39   H13   S    
C7    C13   S    
C49   H23   S    
O10   V2    S    
O1    V3    S    
C52   H33   S    
C19   C31   S    
C15   H5    S    
C54   H38   S    
C38   C40   A    
C53   H36   S    
C42   C44   A    
C45   C47   S    
O18   V4    S    
C50   H28   S    
C44   C46   S    
C23   C25   A    
O16   C6    A    
O1    C3    A    
C37   C39   A    
C34   C48   S    
C33   C47   S    
O26   C54   S    
C41   C43   A    
V2    O20   S    
C4    C25   S    
C2    C35   S    
O16   V4    S    
C10   C12   A    
C27   C29   A    
C46   H16   S    
C46   C48   S    
O5    V1    S    
O17   C7    A    
O6    V2    S    
O23   C51   S    
O10   C6    A    
C10   C20   A    
C37   O25   S    
C53   H37   S    
C28   C30   A    
O2    V4    S    
O15   C5    A    
C11   H3    S    
C48   H20   S    
C39   C41   A    
C12   H4    S    
C15   C17   A    
O9    C5    A    
O22   C50   S    
C9    H1    S    
C24   C26   A    
C52   H34   S    
O14   V2    S    
C11   C13   A    
O2    C4    A    
C54   H39   S    
C33   C43   A    
C38   O26   S    
O4    V2    S    
C18   C20   A    
V3    O19   S    
C34   C36   A    
C5    C41   S    
O12   V4    S    
C16   C18   A    
C51   H31   S    
