data_mof_unit_52878.cif
_audit_creation_date              2012-12-11T15:31:35-0500
_audit_creation_method            fapswitch 2.2
_symmetry_space_group_name_H-M    P1
_symmetry_Int_Tables_number       1
_space_group_crystal_system       triclinic
_cell_length_a                    6.953348
_cell_length_b                    14.779272
_cell_length_c                    21.341184
_cell_angle_alpha                 74.601474
_cell_angle_beta                  90.358258
_cell_angle_gamma                 90.61586
_cell_volume                      2114.27181302

loop_
_atom_site_label
_atom_site_type_symbol
_atom_type_description
_atom_site_fract_x
_atom_site_fract_y
_atom_site_fract_z
_atom_type_partial_charge
O1    O     O_R   0.648150 0.130050 0.214300 -0.538866
O2    O     O_R   0.351850 0.869950 0.785700 -0.541835
O3    O     O_R   0.320490 0.006660 0.340150 -0.531752
O4    O     O_R   0.679510 0.993340 0.659850 -0.532609
O5    O     O_R   0.146100 0.869940 0.285700 -0.542121
O6    O     O_R   0.853900 0.130060 0.714300 -0.542548
C1    C     C_R   0.489363 0.001521 0.367004 0.707260
C2    C     C_R   0.510642 0.998493 0.632992 0.705440
O7    O     O_R   0.318690 0.137980 0.218120 -0.536196
O8    O     O_R   0.681310 0.862020 0.781880 -0.531156
O9    O     O_R   0.144280 0.002190 0.162800 -0.530029
O10   O     O_R   0.855720 0.997810 0.837200 -0.528922
C3    C     C_R   0.488321 0.175614 0.205097 0.711972
C4    C     C_R   0.512249 0.824455 0.795056 0.716214
O11   O     O_R   0.649960 0.997790 0.337200 -0.545701
O12   O     O_R   0.350040 0.002210 0.662800 -0.546058
O13   O     O_3   0.479300 0.955290 0.231990 -0.374335
O14   O     O_3   0.520700 0.044710 0.768010 -0.374529
V1    V     V_3+5 0.206040 0.008290 0.253340 1.452997
V2    V     V_3+5 0.793960 0.991710 0.746660 1.463129
O15   O     O_R   0.814320 0.993320 0.159850 -0.548838
O16   O     O_R   0.185680 0.006680 0.840150 -0.549231
C5    C     C_R   0.982661 0.998728 0.132919 0.702951
C6    C     C_R   0.017379 0.000761 0.867168 0.708333
O17   O     O_R   0.816120 0.862000 0.281880 -0.543252
O18   O     O_R   0.183880 0.138000 0.718120 -0.543364
C7    C     C_R   0.984215 0.824427 0.293667 0.687973
C8    C     C_R   0.015753 0.175567 0.706294 0.687729
V3    V     V_3+5 0.705540 0.991700 0.246660 1.418669
V4    V     V_3+5 0.294460 0.008300 0.753340 1.422528
O19   O     O_3   0.982150 0.044700 0.268010 -0.367337
O20   O     O_3   0.017850 0.955300 0.731990 -0.367941
C9    C     C_R   0.989636 0.723083 0.321431 -0.028494
C10   C     C_R   0.009987 0.276898 0.678496 -0.030037
C11   C     C_R   0.968269 0.566019 0.308756 -0.163195
C12   C     C_R   0.028233 0.434014 0.691209 -0.165197
C13   C     C_R   0.971927 0.662602 0.281435 -0.178203
C14   C     C_R   0.025742 0.337420 0.718519 -0.178239
C15   C     C_R   0.002489 0.687340 0.388820 -0.216354
C16   C     C_R   0.997397 0.312607 0.611097 -0.216236
C17   C     C_R   0.995452 0.589496 0.418123 0.084655
C18   C     C_R   0.002359 0.410482 0.581820 0.085535
C19   C     C_R   0.978989 0.529086 0.376476 0.140720
C20   C     C_R   0.017586 0.470923 0.623483 0.138557
C21   C     C_R   0.002538 0.549882 0.487015 0.059120
C22   C     C_R   0.994554 0.450105 0.512937 0.058937
C23   C     C_R   0.979388 0.393354 0.469140 -0.194689
C24   C     C_R   0.016382 0.606657 0.530827 -0.194532
C25   C     C_R   0.971779 0.432271 0.402493 -0.202518
C26   C     C_R   0.023525 0.567757 0.597479 -0.203491
H1    H     H_    0.959348 0.385827 0.370918 0.128692
H2    H     H_    0.034669 0.614232 0.629067 0.129860
H3    H     H_    0.987113 0.261645 0.583314 0.090068
H4    H     H_    0.014797 0.738266 0.416571 0.090263
H5    H     H_    0.036760 0.309821 0.770779 0.105573
H6    H     H_    0.960374 0.690219 0.229187 0.097070
H7    H     H_    0.955169 0.520034 0.276921 0.113014
H8    H     H_    0.040404 0.480031 0.723061 0.120602
H9    H     H_    0.972249 0.317948 0.484503 0.121905
H10   H     H_    0.022100 0.682088 0.515487 0.121893
C27   C     C_3   0.834639 0.971215 0.982179 0.277514
C28   C     C_3   0.165396 0.027557 0.018028 0.269699
C29   C     C_3   0.961221 0.911320 0.036657 -0.191686
C30   C     C_3   0.038755 0.087494 0.963592 -0.183316
H11   H     H_    0.925640 0.839520 0.066609 0.104186
H12   H     H_    0.074426 0.159477 0.933929 0.120755
C31   C     C_3   0.991098 0.998961 0.062588 -0.048065
C32   C     C_3   0.008967 0.999893 0.937614 -0.045611
C33   C     C_3   0.860123 0.058172 0.008474 -0.224049
C34   C     C_3   0.139909 0.940553 0.991742 -0.222940
H13   H     H_    0.747244 0.106291 0.016080 0.139232
H14   H     H_    0.252059 0.891706 0.984449 0.122920
C35   C     C_3   0.682766 0.995893 0.479181 -0.151248
C36   C     C_3   0.317267 0.004145 0.520807 -0.150848
C37   C     C_3   0.602480 0.074947 0.507506 -0.228065
C38   C     C_3   0.397553 0.925090 0.492484 -0.227658
H15   H     H_    0.683109 0.137524 0.513257 0.114908
H16   H     H_    0.316925 0.862513 0.486731 0.115112
H17   H     H_    0.832536 0.990555 0.462860 0.129699
H18   H     H_    0.167495 0.009484 0.537126 0.129538
C39   C     C_3   0.502073 0.999706 0.562519 -0.054872
C40   C     C_3   0.497955 0.000328 0.437471 -0.055585
C41   C     C_3   0.580253 0.922730 0.534082 0.251510
C42   C     C_3   0.419784 0.077307 0.465905 0.250813
C43   C     C_R   0.504505 0.277343 0.177705 -0.041911
C44   C     C_R   0.505163 0.722625 0.822578 -0.062762
C45   C     C_R   0.602887 0.428755 0.189944 -0.149326
C46   C     C_R   0.521755 0.566663 0.807919 -0.150693
C47   C     C_R   0.562243 0.334124 0.217326 -0.164358
C48   C     C_R   0.509546 0.663242 0.781604 -0.163474
C49   C     C_R   0.489900 0.315482 0.110369 -0.223130
C50   C     C_R   0.514524 0.685155 0.890075 -0.155704
C51   C     C_R   0.550677 0.408719 0.080662 0.081353
C52   C     C_R   0.544717 0.587994 0.917861 0.096042
C53   C     C_R   0.597248 0.466380 0.122192 0.117367
C54   C     C_R   0.538883 0.528742 0.875439 0.063850
C55   C     C_R   0.561647 0.447354 0.011542 -0.040677
C56   C     C_R   0.575861 0.547454 0.986067 0.021243
C57   C     C_R   0.634625 0.601596 0.029209 0.186178
C58   C     C_R   0.571790 0.390891 0.966573 0.202248
C59   C     C_R   0.643625 0.560507 0.096041 -0.258318
C60   C     C_R   0.557783 0.432306 0.900096 -0.178367
H19   H     H_    0.689141 0.603150 0.127826 0.121592
H20   H     H_    0.566391 0.387998 0.867013 0.138581
H21   H     H_    0.493865 0.733339 0.919462 0.151277
H22   H     H_    0.430722 0.270976 0.082457 0.128390
H23   H     H_    0.504036 0.691721 0.729319 0.103599
H24   H     H_    0.576534 0.305034 0.269369 0.100986
H25   H     H_    0.643322 0.472179 0.221692 0.112594
H26   H     H_    0.521960 0.521561 0.775298 0.118022
N1    N     N_3   0.670205 0.837230 0.572474 -0.672538
H27   H     H_    0.705490 0.797105 0.540644 0.222045
H28   H     H_    0.565875 0.799294 0.604086 0.210399
N2    N     N_3   0.329828 0.162800 0.427508 -0.671720
H29   H     H_    0.295170 0.203086 0.459294 0.222261
H30   H     H_    0.433902 0.200571 0.395711 0.211388
N3    N     N_3   0.709348 0.695169 0.005720 -0.673561
H31   H     H_    0.632678 0.738781 0.027810 0.228050
H32   H     H_    0.853168 0.695655 0.020300 0.235955
N4    N     N_3   0.632517 0.294959 0.984417 -0.695455
H33   H     H_    0.512453 0.250522 0.990463 0.233092
H34   H     H_    0.722370 0.280419 0.025220 0.240685
N5    N     N_3   0.653281 0.937502 0.962200 -0.662821
H35   H     H_    0.570474 0.914246 0.004093 0.203269
H36   H     H_    0.583115 0.994811 0.931673 0.230057
N6    N     N_3   0.346805 0.061379 0.037853 -0.680543
H37   H     H_    0.429359 0.084262 0.995888 0.208460
H38   H     H_    0.416987 0.004165 0.068466 0.230580

loop_
_geom_bond_atom_site_label_1
_geom_bond_atom_site_label_2
_ccdc_geom_bond_type
C29   H11   S    
N6    H37   S    
C54   C60   A    
O13   V3    S    
N1    H27   S    
O4    C2    A    
V1    O19   S    
C46   C54   A    
C55   C56   A    
C43   C49   A    
N5    H35   S    
C15   C17   A    
C21   C22   A    
C7    C9    S    
O9    V1    S    
C9    C15   A    
C36   C38   S    
C28   C31   S    
C10   C16   A    
C30   C32   S    
C11   C13   A    
C38   H16   S    
C48   H23   S    
O3    C1    A    
N3    H32   S    
C37   C42   S    
N5    H36   S    
C15   H4    S    
C49   C51   A    
C52   C56   A    
C27   C33   S    
C28   C34   S    
C27   C29   S    
C18   C22   A    
C5    C31   S    
C33   H13   S    
O7    C3    A    
C28   C30   S    
O5    C7    A    
C13   H6    S    
O7    V1    S    
O6    C8    A    
C14   H5    S    
C41   N1    S    
O8    V2    S    
C25   H1    S    
C45   C53   A    
C26   H2    S    
O3    V1    S    
C58   N4    S    
C11   C19   A    
C24   H10   S    
C46   H26   S    
C24   C26   A    
C8    C10   S    
C59   H19   S    
C36   H18   S    
C17   C19   A    
C49   H22   S    
C18   C20   A    
C38   C41   S    
O1    V3    S    
C39   C41   S    
N4    H34   S    
C45   H25   S    
O11   V3    S    
O17   V3    S    
C29   C31   S    
C2    C39   S    
C4    C44   S    
C23   C25   A    
C44   C48   A    
C38   C40   S    
C28   N6    S    
C43   C47   A    
C19   C25   A    
C1    O11   A    
O15   V3    S    
C9    C13   A    
C31   C33   S    
C30   H12   S    
C52   C54   A    
C57   N3    S    
C29   C34   S    
C42   N2    S    
O10   V2    S    
C58   C60   A    
C35   H17   S    
N1    H28   S    
C30   C33   S    
C60   H20   S    
C37   H15   S    
O14   V4    S    
C32   C34   S    
C57   C59   A    
C46   C48   A    
C56   C57   A    
C40   C42   S    
C45   C47   A    
O8    C4    A    
O16   C6    A    
C12   C20   A    
O1    C3    A    
O2    V4    S    
C35   C37   S    
C36   C39   S    
C12   C14   A    
C51   C55   A    
C35   C40   S    
C55   C58   A    
N4    H33   S    
V2    O20   S    
C21   C24   A    
C20   C26   A    
C22   C23   A    
N6    H38   S    
O16   V4    S    
C10   C14   A    
O18   C8    A    
C37   C39   S    
C36   C42   S    
C16   C18   A    
N2    H30   S    
N2    H29   S    
O5    V1    S    
O17   C7    A    
O6    V2    S    
O10   C6    A    
C12   H8    S    
C27   N5    S    
C11   H7    S    
O15   C5    A    
V3    O19   S    
C44   C50   A    
N3    H31   S    
V4    O20   S    
C27   C32   S    
C50   C52   A    
C51   C53   A    
C47   H24   S    
O9    C5    A    
O13   V1    S    
O14   V2    S    
O2    C4    A    
C6    C32   S    
C23   H9    S    
O4    V2    S    
C50   H21   S    
C1    C40   S    
C2    O12   A    
C16   H3    S    
C3    C43   S    
C17   C21   A    
C34   H14   S    
O12   V4    S    
C35   C41   S    
C53   C59   A    
O18   V4    S    
