data_mof_unit_65221.cif
_audit_creation_date              2012-12-10T18:20:28-0500
_audit_creation_method            fapswitch 2.2
_symmetry_space_group_name_H-M    P1
_symmetry_Int_Tables_number       1
_space_group_crystal_system       triclinic
_cell_length_a                    21.477013
_cell_length_b                    21.518374
_cell_length_c                    22.018464
_cell_angle_alpha                 119.453644
_cell_angle_beta                  119.111001
_cell_angle_gamma                 89.668792
_cell_volume                      7367.89424973

loop_
_atom_site_label
_atom_site_type_symbol
_atom_type_description
_atom_site_fract_x
_atom_site_fract_y
_atom_site_fract_z
_atom_type_partial_charge
C1    C     C_R   0.498741 0.120293 0.497895 0.902684
C2    C     C_R   0.501258 0.879706 0.502103 0.902675
C3    C     C_3   0.709059 0.210032 0.917457 0.071853
C4    C     C_3   0.290937 0.789969 0.082544 0.071864
C5    C     C_3   0.716036 0.311096 0.049380 0.179897
C6    C     C_3   0.283876 0.688764 0.950622 0.179917
C7    C     C_3   0.791930 0.292847 0.082575 0.056922
C8    C     C_3   0.208065 0.707154 0.917425 0.056926
C9    C     C_3   0.775442 0.207873 0.048213 -0.564147
C10   C     C_3   0.224717 0.792129 0.951786 -0.564146
C11   C     C_3   0.732397 0.159778 0.951561 -0.411558
C12   C     C_3   0.267762 0.840237 0.048438 -0.411555
C13   C     C_1   0.837499 0.337642 0.174131 0.134458
C14   C     C_1   0.162498 0.662359 0.825869 0.134463
C15   C     C_1   0.662732 0.163607 0.825922 0.099684
C16   C     C_1   0.337266 0.836393 0.174078 0.099679
C17   C     C_1   0.625075 0.125716 0.750920 -0.147355
C18   C     C_1   0.374925 0.874284 0.249080 -0.147356
C19   C     C_3   0.425268 0.209325 0.486459 0.199713
C20   C     C_3   0.574725 0.790666 0.513524 0.199710
C21   C     C_3   0.427662 0.282709 0.489115 0.250733
C22   C     C_3   0.572330 0.717281 0.510865 0.250743
C23   C     C_R   0.580868 0.080998 0.662029 0.884959
C24   C     C_R   0.419131 0.919002 0.337971 0.884959
C25   C     C_3   0.566094 0.253878 0.582110 -0.546958
C26   C     C_3   0.433897 0.746124 0.417894 -0.546952
C27   C     C_3   0.502602 0.175862 0.423121 0.303466
C28   C     C_3   0.497411 0.824143 0.576887 0.303469
C29   C     C_3   0.498182 0.188072 0.496963 0.007990
C30   C     C_3   0.501817 0.811927 0.503035 0.007992
C31   C     C_3   0.500768 0.309896 0.498925 0.033241
C32   C     C_3   0.499231 0.690104 0.501075 0.033236
C33   C     C_3   0.569305 0.324992 0.582040 -0.514818
C34   C     C_3   0.430686 0.675011 0.417967 -0.514833
C35   C     C_3   0.503898 0.248196 0.424573 -0.429310
C36   C     C_3   0.496118 0.751810 0.575437 -0.429311
C37   C     C_3   0.726442 0.577106 0.528228 -0.498978
C38   C     C_3   0.273532 0.422878 0.471724 -0.498963
C39   C     C_3   0.819118 0.484356 0.566097 -0.339599
C40   C     C_3   0.180901 0.515686 0.433937 -0.339579
C41   C     C_3   0.745796 0.479521 0.562618 0.277264
C42   C     C_3   0.254224 0.520519 0.437419 0.277247
C43   C     C_3   0.689791 0.498120 0.499955 0.097727
C44   C     C_3   0.310209 0.501877 0.500045 0.097738
C45   C     C_3   0.744856 0.439593 0.413511 -0.397423
C46   C     C_3   0.255148 0.560374 0.586498 -0.397463
C47   C     C_3   0.672134 0.439883 0.410886 -0.324138
C48   C     C_3   0.327870 0.560082 0.589123 -0.324132
C49   C     C_R   0.880032 0.501412 0.502426 0.845444
C50   C     C_R   0.119965 0.498586 0.497569 0.845428
C51   C     C_R   0.919221 0.419008 0.338014 0.889626
C52   C     C_R   0.080779 0.580992 0.661986 0.889637
C53   C     C_R   0.378455 0.501450 0.500212 0.842263
C54   C     C_R   0.621544 0.498545 0.499788 0.842279
C55   C     C_R   0.502205 0.378431 0.499941 0.912595
C56   C     C_R   0.497793 0.621569 0.500059 0.912606
C57   C     C_3   0.811831 0.501292 0.502425 0.084250
C58   C     C_3   0.188166 0.498705 0.497571 0.084276
C59   C     C_3   0.797126 0.578317 0.526777 -0.396442
C60   C     C_3   0.202846 0.421665 0.473170 -0.396461
C61   C     C_3   0.665050 0.258296 0.951606 0.169092
C62   C     C_3   0.334871 0.741558 0.048395 0.169067
C63   C     C_3   0.781564 0.264760 0.949773 0.080370
C64   C     C_3   0.218336 0.735379 0.050226 0.080383
C65   C     C_3   0.834150 0.311036 0.048679 0.712259
C66   C     C_3   0.165759 0.689110 0.951321 0.712236
C67   C     C_1   0.874883 0.374659 0.249128 -0.158424
C68   C     C_1   0.125116 0.625341 0.750872 -0.158422
H1    H     H_    0.686410 0.592545 0.485876 0.179760
H2    H     H_    0.313550 0.407409 0.514051 0.179744
H3    H     H_    0.682966 0.115069 0.924225 0.187900
H4    H     H_    0.317269 0.884860 0.075774 0.187898
H5    H     H_    0.768762 0.130304 0.932570 0.237561
H6    H     H_    0.231445 0.869822 0.067428 0.237561
H7    H     H_    0.742612 0.191901 0.067427 0.197016
H8    H     H_    0.257610 0.807997 0.932572 0.197015
H9    H     H_    0.828128 0.194166 0.075280 0.210192
H10   H     H_    0.172097 0.805930 0.924720 0.210202
H11   H     H_    0.423131 0.219757 0.540321 0.071620
H12   H     H_    0.576853 0.780233 0.459657 0.071621
H13   H     H_    0.740420 0.449247 0.366476 0.172376
H14   H     H_    0.259571 0.550687 0.633508 0.172378
H15   H     H_    0.428582 0.326869 0.545166 0.031244
H16   H     H_    0.571396 0.673118 0.454806 0.031265
H17   H     H_    0.560797 0.264178 0.633914 0.178373
H18   H     H_    0.439186 0.735818 0.366083 0.178377
H19   H     H_    0.570202 0.370506 0.637104 0.210222
H20   H     H_    0.429775 0.629493 0.362895 0.210231
H21   H     H_    0.451400 0.130614 0.362954 0.179391
H22   H     H_    0.548617 0.869390 0.637048 0.179386
H23   H     H_    0.455157 0.235265 0.363766 0.217902
H24   H     H_    0.544867 0.764741 0.636240 0.217904
H25   H     H_    0.555018 0.268845 0.430093 0.180254
H26   H     H_    0.445004 0.731167 0.569933 0.180262
H27   H     H_    0.619612 0.240736 0.595519 0.222479
H28   H     H_    0.380383 0.759272 0.404494 0.222478
H29   H     H_    0.741576 0.619834 0.592777 0.199642
H30   H     H_    0.258396 0.380171 0.407168 0.199643
H31   H     H_    0.634503 0.454134 0.366065 0.177740
H32   H     H_    0.365487 0.545800 0.633919 0.177714
H33   H     H_    0.832503 0.430824 0.552470 0.224713
H34   H     H_    0.167536 0.569231 0.447599 0.224719
H35   H     H_    0.866260 0.529432 0.630584 0.126145
H36   H     H_    0.133753 0.470633 0.369439 0.126134
H37   H     H_    0.753057 0.383572 0.396083 0.194778
H38   H     H_    0.246964 0.616405 0.603962 0.194750
H39   H     H_    0.759810 0.521570 0.627070 0.107301
H40   H     H_    0.240207 0.478492 0.372960 0.107288
H41   H     H_    0.642702 0.382746 0.387087 0.204847
H42   H     H_    0.357318 0.617227 0.612956 0.204861
H43   H     H_    0.728921 0.369386 0.066006 0.169026
H44   H     H_    0.270870 0.630485 0.933995 0.169031
H45   H     H_    0.651235 0.294652 0.927305 0.116759
H46   H     H_    0.348570 0.705198 0.072696 0.116757
O1    O     O_R   0.447710 0.092600 0.500010 -0.615465
O2    O     O_R   0.552290 0.907400 0.499990 -0.615459
O3    O     O_R   0.441990 0.534630 0.569310 -0.630171
O4    O     O_R   0.558010 0.465370 0.430690 -0.630168
O5    O     O_R   0.465370 0.372730 0.430660 -0.582076
O6    O     O_R   0.534630 0.627270 0.569340 -0.582080
O7    O     O_R   0.534650 0.442080 0.569370 -0.650604
O8    O     O_R   0.465350 0.557920 0.430630 -0.650594
O9    O     O_R   0.552280 0.092600 0.499960 -0.585598
O10   O     O_R   0.447720 0.907400 0.500040 -0.585602
O11   O     O_R   0.509140 0.061430 0.622880 -0.605924
O12   O     O_R   0.490860 0.938570 0.377120 -0.605929
O13   O     O_R   0.613710 0.061430 0.622840 -0.605406
O14   O     O_R   0.386290 0.938570 0.377160 -0.605409
O15   O     O_R   0.907580 0.552300 0.500030 -0.625690
O16   O     O_R   0.092420 0.447700 0.499970 -0.625691
O17   O     O_R   0.907560 0.447760 0.500050 -0.626820
O18   O     O_R   0.092440 0.552240 0.499950 -0.626825
O19   O     O_R   0.938770 0.490850 0.377130 -0.600599
O20   O     O_R   0.061230 0.509150 0.622870 -0.600605
O21   O     O_R   0.938740 0.386300 0.377150 -0.618421
O22   O     O_R   0.061260 0.613700 0.622850 -0.618411
O23   O     O_R   0.372700 0.465280 0.430600 -0.632246
O24   O     O_R   0.627300 0.534720 0.569400 -0.632247
Zn1   Zn    Zn3+2 0.430180 0.000000 0.500030 1.023116
Zn2   Zn    Zn3+2 0.569820 0.000000 0.499970 1.023120
Zn3   Zn    Zn3+2 0.000200 0.569810 0.499990 0.976967
Zn4   Zn    Zn3+2 0.999800 0.430190 0.500010 0.976957
Zn5   Zn    Zn3+2 0.453740 0.453690 0.407380 0.970278
Zn6   Zn    Zn3+2 0.546260 0.546310 0.592620 0.970261
O25   O     O_3   0.903389 0.295687 0.077047 -0.740312
H47   H     H_    0.894048 0.240716 0.046385 0.354258
O26   O     O_3   0.096590 0.704591 0.922952 -0.740316
H48   H     H_    0.106025 0.759574 0.953612 0.354265
O27   O     O_3   0.595930 0.214272 0.921758 -0.694430
H49   H     H_    0.605626 0.180888 0.941944 0.349853
O28   O     O_3   0.404063 0.785450 0.078243 -0.694462
H50   H     H_    0.394476 0.818833 0.058059 0.349854
O29   O     O_3   0.679374 0.311242 0.087965 -0.715054
H51   H     H_    0.672724 0.262941 0.082457 0.345056
O30   O     O_3   0.320586 0.688482 0.912037 -0.715056
H52   H     H_    0.327350 0.736773 0.917546 0.345051
O31   O     O_3   0.361565 0.150035 0.410848 -0.729516
H53   H     H_    0.319188 0.154817 0.417987 0.342245
O32   O     O_3   0.638434 0.849952 0.589131 -0.729526
H54   H     H_    0.680804 0.845169 0.581980 0.342243
O33   O     O_3   0.364620 0.272033 0.416324 -0.723741
H55   H     H_    0.322647 0.274512 0.424105 0.324917
O34   O     O_3   0.635378 0.727950 0.583647 -0.723751
H56   H     H_    0.677344 0.725469 0.575854 0.324918
O35   O     O_3   0.564167 0.152067 0.424011 -0.738629
H57   H     H_    0.610717 0.194130 0.472996 0.355720
O36   O     O_3   0.435851 0.847943 0.576008 -0.738614
H58   H     H_    0.389298 0.805880 0.527030 0.355720
H59   H     H_    0.622218 0.343429 0.589414 0.204319
H60   H     H_    0.377778 0.656583 0.410607 0.204309
H61   H     H_    0.789485 0.591016 0.480728 0.202707
H62   H     H_    0.210472 0.408934 0.519190 0.202718
O37   O     O_3   0.715205 0.407160 0.537833 -0.779192
H63   H     H_    0.682240 0.411419 0.558379 0.314766
O38   O     O_3   0.284839 0.592891 0.462247 -0.779185
H64   H     H_    0.317811 0.588642 0.441711 0.314745
H65   H     H_    0.845847 0.623870 0.589615 0.181938
H66   H     H_    0.154119 0.376134 0.410321 0.181905
O39   O     O_3   0.818559 0.225043 0.912216 -0.743959
H67   H     H_    0.854799 0.262688 0.921804 0.355174
O40   O     O_3   0.181391 0.775231 0.087782 -0.743945
H68   H     H_    0.145068 0.737663 0.078193 0.355178
H69   H     H_    0.763810 0.304119 0.930025 0.087219
H70   H     H_    0.235970 0.696002 0.069975 0.087230
O41   O     O_3   0.849744 0.388099 0.080826 -0.802449
H71   H     H_    0.880680 0.399101 0.063324 0.353233
O42   O     O_3   0.150016 0.612047 0.919175 -0.802454
H72   H     H_    0.119031 0.601141 0.936675 0.353233

loop_
_geom_bond_atom_site_label_1
_geom_bond_atom_site_label_2
_ccdc_geom_bond_type
C48   H42   S    
C40   H36   S    
C63   C65   S    
C8    C66   S    
O31   H53   S    
C12   H6    S    
C27   C29   S    
C52   O20   A    
O10   Zn1   S    
O34   H56   S    
O6    Zn6   S    
C38   H30   S    
C33   H59   S    
C37   H29   S    
O25   H47   S    
C10   H10   S    
C47   H31   S    
C39   C41   S    
C55   O5    A    
O40   H68   S    
O11   Zn1   S    
C21   C31   S    
O12   Zn2   S    
O35   H57   S    
C11   H3    S    
C22   C32   S    
C18   C24   S    
C32   C36   S    
C19   C21   S    
O14   Zn1   S    
C62   H46   S    
C37   H1    S    
C42   O38   S    
C53   O3    A    
C57   C59   S    
O15   Zn3   S    
C58   C60   S    
C39   C57   S    
C4    C62   S    
C63   O39   S    
C25   C29   S    
C7    C9    S    
C55   O7    A    
C50   O16   A    
C28   O36   S    
C46   H14   S    
C60   H62   S    
C51   O21   A    
C44   C53   S    
C26   C34   S    
O21   Zn4   S    
C56   O8    A    
O26   H48   S    
C24   O14   A    
C20   O32   S    
O28   H50   S    
C31   C33   S    
C9    H7    S    
C4    C12   S    
C41   C43   S    
C6    O30   S    
C52   C68   S    
C23   O11   A    
C36   H24   S    
C45   C47   S    
O23   Zn5   S    
C66   O42   S    
C46   C58   S    
C24   O12   A    
C56   O6    A    
O7    Zn6   S    
C2    O2    A    
O8    Zn5   S    
C59   H61   S    
C25   H17   S    
C45   H37   S    
C39   H33   S    
C65   O41   S    
C3    C61   S    
C26   H28   S    
O5    Zn5   S    
C48   H32   S    
C46   C48   S    
C63   H69   S    
C62   O28   S    
C20   H12   S    
C19   O31   S    
C21   H15   S    
C59   H65   S    
O3    Zn6   S    
C40   C58   S    
O4    Zn5   S    
C11   H5    S    
O36   H58   S    
C5    C7    S    
C34   H20   S    
C5    H43   S    
C27   C35   S    
O37   H63   S    
C49   O15   A    
O9    Zn2   S    
C32   C34   S    
C54   O24   A    
C4    C16   S    
C1    O9    A    
C38   C44   S    
O22   Zn3   S    
O20   Zn4   S    
C49   O17   A    
C43   C54   S    
O32   H54   S    
C26   H18   S    
C35   H25   S    
C45   C57   S    
C1    C29   S    
C50   C58   S    
C5    C61   S    
C17   C23   S    
C50   O18   A    
C19   H11   S    
C9    C11   S    
C66   O26   S    
C37   C59   S    
O17   Zn4   S    
C10   C12   S    
C27   O35   S    
C38   C60   S    
C64   O40   S    
C16   C18   T    
C38   H2    S    
O1    Zn1   S    
C26   C30   S    
C2    O10   A    
C54   O4    A    
C61   H45   S    
C52   O22   A    
C53   O23   A    
C37   C43   S    
O13   Zn2   S    
C65   O25   S    
C19   C29   S    
O33   H55   S    
C3    C15   S    
C23   O13   A    
C13   C67   T    
O18   Zn3   S    
C15   C17   T    
C41   O37   S    
C8    C14   S    
C41   H39   S    
C28   H22   S    
O16   Zn4   S    
C10   H8    S    
C7    C65   S    
C45   H13   S    
C20   C22   S    
C34   H60   S    
C49   C57   S    
C6    C8    S    
C25   H27   S    
C3    C63   S    
C42   H40   S    
C61   O27   S    
C4    C64   S    
O19   Zn3   S    
C2    C30   S    
C6    C62   S    
C28   C30   S    
C9    H9    S    
C42   C44   S    
O42   H72   S    
O38   H64   S    
C47   H41   S    
O27   H49   S    
C20   C30   S    
C22   O34   S    
C51   O19   A    
O41   H71   S    
C51   C67   S    
C43   C47   S    
O24   Zn6   S    
C5    O29   S    
C46   H38   S    
C40   C42   S    
C27   H21   S    
C31   C35   S    
C33   H19   S    
C12   H4    S    
C3    C11   S    
C40   H34   S    
O39   H67   S    
C64   H70   S    
C36   H26   S    
C7    C13   S    
C28   C36   S    
C8    C10   S    
C25   C33   S    
O30   H52   S    
C22   H16   S    
C39   H35   S    
C14   C68   T    
C6    H44   S    
C1    O1    A    
C31   C55   S    
O29   H51   S    
C60   H66   S    
C32   C56   S    
C44   C48   S    
C64   C66   S    
O2    Zn2   S    
C21   O33   S    
C35   H23   S    
