data_mof_unit_45183.cif
_audit_creation_date              2012-12-10T18:48:43-0500
_audit_creation_method            fapswitch 2.2
_symmetry_space_group_name_H-M    P1
_symmetry_Int_Tables_number       1
_space_group_crystal_system       triclinic
_cell_length_a                    15.19623
_cell_length_b                    15.106322
_cell_length_c                    9.857144
_cell_angle_alpha                 90.717688
_cell_angle_beta                  90.0169
_cell_angle_gamma                 90.737509
_cell_volume                      2262.43234254

loop_
_atom_site_label
_atom_site_type_symbol
_atom_type_description
_atom_site_fract_x
_atom_site_fract_y
_atom_site_fract_z
_atom_type_partial_charge
C1    C     C_R   0.119923 0.380007 0.499515 1.028759
C2    C     C_R   0.984330 0.423658 0.926690 0.511632
C3    C     C_R   0.984274 0.423684 0.070349 0.527237
C4    C     C_R   0.016970 0.576049 0.929768 0.542866
C5    C     C_R   0.515672 0.076342 0.073309 0.511632
C6    C     C_R   0.484005 0.923730 0.926619 0.528219
C7    C     C_R   0.483028 0.923951 0.070233 0.542876
C8    C     C_R   0.515730 0.076315 0.929650 0.527244
C9    C     C_R   0.835559 0.229432 0.543939 0.370195
C10   C     C_R   0.166212 0.770430 0.551697 0.351194
C11   C     C_R   0.268663 0.664932 0.447957 0.328420
C12   C     C_R   0.879722 0.619722 0.500448 1.011459
C13   C     C_R   0.729072 0.335710 0.456974 0.307051
C14   C     C_R   0.261048 0.326745 0.581421 0.335461
C15   C     C_R   0.759023 0.693813 0.385251 0.357584
C16   C     C_R   0.803791 0.741447 0.615808 0.345009
C17   C     C_R   0.175038 0.237831 0.417233 0.344952
C18   C     C_R   0.333789 0.729570 0.448303 0.351190
C19   C     C_R   0.664438 0.270571 0.456067 0.370206
C20   C     C_R   0.770925 0.164292 0.543030 0.307056
C21   C     C_R   0.231338 0.835067 0.552044 0.328419
C22   C     C_R   0.741016 0.806226 0.614722 0.357580
C23   C     C_R   0.880009 0.380361 0.499649 1.017342
C24   C     C_R   0.238955 0.173259 0.418576 0.335461
C25   C     C_R   0.324965 0.262172 0.582766 0.344953
C26   C     C_R   0.696245 0.758590 0.384165 0.345007
C27   C     C_R   0.185926 0.686082 0.500702 -0.345809
C28   C     C_R   0.813941 0.314064 0.499485 -0.346094
C29   C     C_R   0.813114 0.685527 0.500913 -0.378900
C30   C     C_R   0.186455 0.314060 0.498815 -0.347077
C31   C     C_R   0.686056 0.185938 0.500519 -0.346091
C32   C     C_R   0.314075 0.813917 0.499298 -0.345814
C33   C     C_R   0.313547 0.185943 0.501184 -0.347077
C34   C     C_R   0.119550 0.620091 0.500396 1.020257
C35   C     C_R   0.686911 0.814500 0.499069 -0.378905
C36   C     C_R   0.620283 0.880284 0.499549 1.011459
C37   C     C_R   0.380078 0.119995 0.500485 1.028758
C38   C     C_R   0.380451 0.879908 0.499604 1.020267
C39   C     C_R   0.619990 0.119639 0.500351 1.017331
C40   C     C_R   0.015992 0.576271 0.073381 0.528234
Cl1   Cl    Cl    0.943266 0.204730 0.599433 -0.329485
Cl2   Cl    Cl    0.556728 0.295273 0.400581 -0.329504
Cl3   Cl    Cl    0.797543 0.055057 0.588089 -0.392460
Cl4   Cl    Cl    0.208753 0.942493 0.616223 -0.390204
Cl5   Cl    Cl    0.734826 0.877093 0.760798 -0.336396
Cl6   Cl    Cl    0.222938 0.075057 0.320551 -0.382675
Cl7   Cl    Cl    0.420669 0.279554 0.682822 -0.309740
Cl8   Cl    Cl    0.629668 0.765101 0.236055 -0.283037
Cl9   Cl    Cl    0.059258 0.796553 0.608457 -0.325698
Cl10  Cl    Cl    0.291248 0.557507 0.383778 -0.390210
Cl11  Cl    Cl    0.702456 0.444946 0.411921 -0.392470
Cl12  Cl    Cl    0.277064 0.424947 0.679446 -0.382677
Cl13  Cl    Cl    0.765220 0.622955 0.239165 -0.336421
Cl14  Cl    Cl    0.870369 0.734939 0.763910 -0.283000
Cl15  Cl    Cl    0.079332 0.220447 0.317186 -0.309741
Cl16  Cl    Cl    0.440743 0.703448 0.391538 -0.325687
F1    F     F_    0.031102 0.653089 0.142432 -0.529038
F2    F     F_    0.969629 0.346771 0.857718 -0.518245
F3    F     F_    0.968355 0.347082 0.136376 -0.514235
F4    F     F_    0.036296 0.651972 0.864030 -0.501319
F5    F     F_    0.530377 0.153228 0.142281 -0.518249
F6    F     F_    0.468893 0.846912 0.857568 -0.529040
F7    F     F_    0.463700 0.848028 0.135970 -0.501318
F8    F     F_    0.531654 0.152917 0.863624 -0.514235
N1    N     N_R   1.000000 0.500000 0.857200 -0.272131
N2    N     N_R   1.000000 0.500000 0.142800 -0.266813
N3    N     N_R   0.500000 0.000000 0.857200 -0.266814
N4    N     N_R   0.500000 0.000000 0.142800 -0.272130
O1    O     O_R   0.091610 0.408380 0.614620 -0.564667
O2    O     O_R   0.408390 0.091620 0.385380 -0.564669
O3    O     O_R   0.408390 0.091620 0.614620 -0.572198
O4    O     O_R   0.591610 0.908380 0.385380 -0.571698
O5    O     O_R   0.408390 0.908380 0.385380 -0.548168
O6    O     O_R   0.591610 0.091620 0.614620 -0.544440
O7    O     O_R   0.591610 0.091620 0.385380 -0.566409
O8    O     O_R   0.408390 0.908380 0.614620 -0.560872
O9    O     O_R   0.908390 0.591620 0.385380 -0.558790
O10   O     O_R   0.908390 0.591620 0.614620 -0.571700
O11   O     O_R   0.091610 0.408380 0.385380 -0.572196
O12   O     O_R   0.908390 0.408380 0.385380 -0.544442
O13   O     O_R   0.091610 0.591620 0.614620 -0.548169
O14   O     O_R   0.091610 0.591620 0.385380 -0.560877
O15   O     O_R   0.908390 0.408380 0.614620 -0.566407
O16   O     O_R   0.591610 0.908380 0.614620 -0.558793
Zn1   Zn    Zn3+2 0.000000 0.500000 0.653120 1.161562
Zn2   Zn    Zn3+2 0.000000 0.500000 0.346880 1.167397
Zn3   Zn    Zn3+2 0.500000 1.000000 0.653120 1.167397
Zn4   Zn    Zn3+2 0.500000 0.000000 0.346880 1.161562

loop_
_geom_bond_atom_site_label_1
_geom_bond_atom_site_label_2
_ccdc_geom_bond_type
C10   C27   A    
C11   C18   A    
C12   C29   S    
C35   C36   S    
O16   Zn3   S    
C2    N1    A    
O2    Zn4   S    
C38   O8    A    
C22   C35   A    
C23   O15   A    
C15   Cl13  S    
C4    N1    A    
N4    Zn4   S    
C39   O6    A    
O12   Zn2   S    
C7    N4    A    
C13   Cl11  S    
C14   Cl12  S    
C4    C40   A    
C12   O10   A    
C13   C28   A    
C34   O13   A    
C32   C38   S    
O6    Zn3   S    
C25   Cl7   S    
C19   Cl2   S    
C18   Cl16  S    
C1    O1    A    
C19   C31   A    
C10   C21   A    
C40   N2    A    
C37   O2    A    
C17   C30   A    
C14   C30   A    
C5    N4    A    
O4    Zn4   S    
C15   C29   A    
C27   C34   S    
C21   C32   A    
C17   C24   A    
C13   C19   A    
C15   C26   A    
C16   C29   A    
O14   Zn2   S    
C33   C37   S    
O5    Zn4   S    
C21   Cl4   S    
O7    Zn4   S    
C9    C20   A    
C11   C27   A    
C12   O9    A    
C4    F4    S    
C5    F5    S    
C23   C28   S    
O8    Zn3   S    
C7    F7    S    
C8    F8    S    
O3    Zn3   S    
O10   Zn1   S    
C6    N3    A    
O15   Zn1   S    
O9    Zn2   S    
C39   O7    A    
C37   O3    A    
C23   O12   A    
C3    N2    A    
C18   C32   A    
C20   Cl3   S    
O1    Zn1   S    
C17   Cl15  S    
C16   C22   A    
C40   F1    S    
N3    Zn3   S    
N2    Zn2   S    
C5    C8    A    
C2    F2    S    
N1    Zn1   S    
C6    C7    A    
C26   Cl8   S    
C9    Cl1   S    
C24   C33   A    
C24   Cl6   S    
C6    F6    S    
C2    C3    A    
C11   Cl10  S    
C36   O16   A    
C1    O11   A    
C1    C30   S    
C31   C39   S    
C14   C25   A    
C16   Cl14  S    
C26   C35   A    
C22   Cl5   S    
C8    N3    A    
C34   O14   A    
C10   Cl9   S    
C20   C31   A    
O11   Zn2   S    
O13   Zn1   S    
C36   O4    A    
C9    C28   A    
C25   C33   A    
C38   O5    A    
C3    F3    S    
