data_mof_unit_55402.cif
_audit_creation_date              2012-12-10T17:40:52-0500
_audit_creation_method            fapswitch 2.2
_symmetry_space_group_name_H-M    P1
_symmetry_Int_Tables_number       1
_space_group_crystal_system       triclinic
_cell_length_a                    14.732311
_cell_length_b                    15.44208
_cell_length_c                    9.983732
_cell_angle_alpha                 87.729128
_cell_angle_beta                  90.128203
_cell_angle_gamma                 89.428633
_cell_volume                      2269.36989458

loop_
_atom_site_label
_atom_site_type_symbol
_atom_type_description
_atom_site_fract_x
_atom_site_fract_y
_atom_site_fract_z
_atom_type_partial_charge
C1    C     C_R   0.384299 0.876051 0.502461 0.872906
C2    C     C_R   0.380238 0.119438 0.498471 0.862441
C3    C     C_R   0.884282 0.376066 0.502451 0.872583
C4    C     C_R   0.880226 0.619427 0.498455 0.862678
C5    C     C_R   0.332151 0.265331 0.453886 -0.208136
C6    C     C_R   0.291924 0.774605 0.384506 -0.130966
C7    C     C_R   0.832000 0.765217 0.453203 -0.208594
C8    C     C_R   0.791859 0.274672 0.384457 -0.131070
C9    C     C_R   0.767577 0.829482 0.457877 -0.171023
C10   C     C_R   0.720503 0.218685 0.380981 -0.177961
C11   C     C_R   0.267726 0.329596 0.458574 -0.171290
C12   C     C_R   0.220552 0.718639 0.381004 -0.178337
C13   C     C_R   0.681076 0.809639 0.504972 -0.077137
C14   C     C_R   0.672424 0.198888 0.498116 -0.107162
C15   C     C_R   0.181092 0.309659 0.504960 -0.077009
C16   C     C_R   0.172424 0.698886 0.498110 -0.107228
C17   C     C_R   0.329714 0.974401 0.130106 0.003908
C18   C     C_R   0.829769 0.474356 0.130172 0.004113
C19   C     C_R   0.257749 0.944317 0.053245 -0.204698
C20   C     C_R   0.757849 0.444103 0.053402 -0.204613
C21   C     C_R   0.259460 0.956414 0.916427 -0.238551
C22   C     C_R   0.759513 0.456175 0.916564 -0.238312
C23   C     C_R   0.338405 0.982764 0.854795 -0.148395
C24   C     C_R   0.838409 0.482630 0.854864 -0.148491
C25   C     C_R   0.419544 0.990555 0.926259 0.164496
C26   C     C_R   0.919554 0.490492 0.926279 0.164463
C27   C     C_R   0.417689 0.989671 0.070419 0.061611
C28   C     C_R   0.917709 0.489623 0.070431 0.061329
C29   C     C_R   0.577389 0.008643 0.071128 -0.057538
C30   C     C_R   0.077383 0.508697 0.071125 -0.057502
C31   C     C_R   0.613501 0.125178 0.498625 0.886990
C32   C     C_R   0.617744 0.878711 0.501805 0.868971
C33   C     C_R   0.113500 0.625178 0.498623 0.886674
C34   C     C_R   0.117761 0.378727 0.501799 0.868846
C35   C     C_R   0.577330 0.008554 0.928605 -0.075965
C36   C     C_R   0.077324 0.508612 0.928600 -0.075922
C37   C     C_R   0.198586 0.072832 0.576653 -0.168422
C38   C     C_R   0.318756 0.782752 0.757522 -0.164548
C39   C     C_R   0.698676 0.572871 0.577224 -0.168132
C40   C     C_R   0.818939 0.282553 0.757434 -0.164499
C41   C     C_R   0.110645 0.052050 0.615101 -0.147259
C42   C     C_R   0.267455 0.764880 0.872646 -0.148307
C43   C     C_R   0.610884 0.552176 0.616601 -0.147895
C44   C     C_R   0.767692 0.264663 0.872609 -0.148783
C45   C     C_R   0.544601 0.616687 0.620662 0.219764
C46   C     C_R   0.675438 0.247904 0.860797 0.173563
C47   C     C_R   0.044285 0.116511 0.618552 0.219607
C48   C     C_R   0.175227 0.748054 0.860746 0.173602
C49   C     C_R   0.566530 0.702815 0.586324 -0.220565
C50   C     C_R   0.638925 0.234066 0.734766 -0.179030
C51   C     C_R   0.066309 0.202686 0.584776 -0.220321
C52   C     C_R   0.138794 0.734146 0.734685 -0.179011
C53   C     C_R   0.655764 0.724652 0.545505 0.053107
C54   C     C_R   0.694974 0.237507 0.619787 0.078206
C55   C     C_R   0.155679 0.224606 0.544873 0.053174
C56   C     C_R   0.194910 0.737553 0.619768 0.078221
C57   C     C_R   0.221956 0.159059 0.540379 0.100392
C58   C     C_R   0.279419 0.776830 0.628601 0.094918
C59   C     C_R   0.721999 0.659076 0.540739 0.101010
C60   C     C_R   0.779496 0.276759 0.628567 0.095140
C61   C     C_R   0.309602 0.181556 0.495947 -0.087557
C62   C     C_R   0.321239 0.805244 0.507263 -0.105923
C63   C     C_R   0.809560 0.681518 0.495848 -0.087469
C64   C     C_R   0.821232 0.305255 0.507220 -0.106035
H1    H     H_    0.400135 0.281041 0.419937 0.160816
H2    H     H_    0.324882 0.792714 0.290744 0.174009
H3    H     H_    0.899902 0.780875 0.418805 0.161096
H4    H     H_    0.824766 0.292825 0.290677 0.174024
H5    H     H_    0.198836 0.946333 0.857731 0.184197
H6    H     H_    0.698884 0.446029 0.857915 0.184178
H7    H     H_    0.334085 0.995098 0.750491 0.211757
H8    H     H_    0.834058 0.495019 0.750569 0.211681
H9    H     H_    0.640853 0.015851 0.875387 0.167783
H10   H     H_    0.140841 0.515956 0.875378 0.167873
H11   H     H_    0.247014 0.020267 0.571026 0.164556
H12   H     H_    0.389628 0.797291 0.771392 0.184016
H13   H     H_    0.747023 0.520265 0.571144 0.164512
H14   H     H_    0.889828 0.297070 0.771196 0.183909
H15   H     H_    0.093832 0.985266 0.640166 0.162061
H16   H     H_    0.298070 0.769912 0.970654 0.166396
H17   H     H_    0.594120 0.485420 0.641992 0.161880
H18   H     H_    0.798362 0.269650 0.970587 0.166309
H19   H     H_    0.513574 0.751475 0.589931 0.136489
H20   H     H_    0.567371 0.219640 0.727802 0.182135
H21   H     H_    0.013322 0.251318 0.588025 0.136115
H22   H     H_    0.067253 0.719680 0.727655 0.182129
H23   H     H_    0.785132 0.895063 0.425383 0.162646
H24   H     H_    0.704237 0.189849 0.286962 0.190549
H25   H     H_    0.285366 0.395238 0.426575 0.162358
H26   H     H_    0.204309 0.689787 0.286984 0.190492
H27   H     H_    0.640872 0.015991 0.123947 0.151210
H28   H     H_    0.140860 0.516089 0.123941 0.151242
H29   H     H_    0.192727 0.928525 0.098470 0.214284
H30   H     H_    0.692856 0.428281 0.098689 0.214379
N1    N     N_R   0.498810 0.000000 0.142780 -0.119491
N2    N     N_R   0.998810 0.500000 0.142780 -0.119520
N3    N     N_R   0.498740 0.000000 0.857170 -0.126295
N4    N     N_R   0.998740 0.500000 0.857170 -0.126263
O1    O     O_R   0.408390 0.908380 0.614690 -0.673060
O2    O     O_R   0.408390 0.091620 0.614690 -0.642053
O3    O     O_R   0.908390 0.408380 0.614690 -0.672858
O4    O     O_R   0.908390 0.591620 0.614690 -0.642048
O5    O     O_R   0.408370 0.908380 0.385360 -0.599623
O6    O     O_R   0.408370 0.091620 0.385360 -0.629594
O7    O     O_R   0.908370 0.408380 0.385360 -0.599740
O8    O     O_R   0.908370 0.591620 0.385360 -0.629532
O9    O     O_R   0.591620 0.091610 0.614640 -0.615569
O10   O     O_R   0.591620 0.908390 0.614640 -0.607820
O11   O     O_R   0.091620 0.591610 0.614640 -0.615619
O12   O     O_R   0.091620 0.408390 0.614640 -0.607752
O13   O     O_R   0.591610 0.091610 0.385310 -0.611287
O14   O     O_R   0.591610 0.908390 0.385310 -0.615071
O15   O     O_R   0.091610 0.591610 0.385310 -0.611352
O16   O     O_R   0.091610 0.408390 0.385310 -0.615011
Zn1   Zn    Zn3+2 0.500010 0.000000 0.653130 0.940283
Zn2   Zn    Zn3+2 0.000010 0.500000 0.653130 0.940332
Zn3   Zn    Zn3+2 0.499980 0.000000 0.346870 0.968858
Zn4   Zn    Zn3+2 0.999980 0.500000 0.346870 0.968814
I1    I     I_    0.411464 0.580398 0.673801 -0.423542
I2    I     I_    0.591244 0.242970 0.031385 -0.449584
I3    I     I_    0.910941 0.080114 0.669792 -0.423764
I4    I     I_    0.090982 0.743090 0.031286 -0.449512
C65   C     C_2   0.291152 0.024932 0.236171 0.508490
H31   H     H_    0.294765 0.095071 0.227189 0.072729
O17   O     O_2   0.244112 0.990504 0.323111 -0.611464
C66   C     C_2   0.791187 0.525187 0.235877 0.508364
H32   H     H_    0.795033 0.595302 0.226647 0.072837
O18   O     O_2   0.744015 0.491030 0.322895 -0.611418

loop_
_geom_bond_atom_site_label_1
_geom_bond_atom_site_label_2
_ccdc_geom_bond_type
C58   C62   A    
C42   H16   S    
C66   H32   S    
C40   C60   A    
C13   C32   S    
C27   N1    A    
C14   C31   S    
C1    C62   S    
C51   H21   S    
C53   C59   A    
C50   H20   S    
C65   H31   S    
C54   C60   A    
C3    C64   S    
N1    Zn3   S    
C4    C63   S    
C10   H24   S    
C50   C54   A    
C6    H2    S    
C39   H13   S    
O10   Zn1   S    
N2    Zn4   S    
C19   C21   A    
C24   C26   A    
C5    C11   A    
C44   H18   S    
C48   I4    S    
O14   Zn3   S    
C65   O17   D    
C9    C13   A    
C30   N2    A    
O11   Zn2   S    
C38   C58   A    
C11   C15   A    
C17   C65   S    
C12   C16   A    
C4    O4    A    
C45   C49   A    
N3    Zn1   S    
C1    O5    A    
C15   C34   S    
C51   C55   A    
C19   H29   S    
C2    C61   S    
C3    O3    A    
C37   H11   S    
C2    O2    A    
C38   H12   S    
C1    O1    A    
O5    Zn3   S    
O2    Zn1   S    
C6    C12   A    
C26   C28   A    
C44   C46   A    
C46   C50   A    
C13   C53   A    
C59   C63   A    
C46   I2    S    
C17   C27   A    
C23   H7    S    
C49   H19   S    
C18   C28   A    
C5    H1    S    
C10   C14   A    
C29   N1    A    
C39   C43   A    
C18   C66   S    
C4    O8    A    
C3    O7    A    
C21   H5    S    
C60   C64   A    
C15   C55   A    
C16   C56   A    
C41   H15   S    
C16   C33   S    
C11   H25   S    
N4    Zn2   S    
C2    O6    A    
C39   C59   A    
C41   C47   A    
C5    C61   A    
C42   C48   A    
C43   C45   A    
C7    C63   A    
O16   Zn4   S    
C36   H10   S    
C8    C64   A    
C40   H14   S    
C30   H28   S    
C14   C54   A    
C26   N4    A    
C8    H4    S    
C55   C57   A    
C34   O12   A    
C22   C24   A    
O7    Zn4   S    
C34   O16   A    
C40   C44   A    
O12   Zn2   S    
C29   H27   S    
C24   H8    S    
O6    Zn3   S    
C25   N3    A    
C7    C9    A    
C20   H30   S    
C35   H9    S    
C66   O18   D    
C32   O14   A    
C43   H17   S    
C31   O9    A    
C20   C22   A    
C12   H26   S    
C47   C51   A    
C57   C61   A    
C30   C36   A    
C25   C27   A    
C29   C35   A    
C33   O15   A    
O13   Zn3   S    
C28   N2    A    
C6    C62   A    
C21   C23   A    
C9    H23   S    
O1    Zn1   S    
C45   I1    S    
C49   C53   A    
C52   H22   S    
C17   C19   A    
C56   C58   A    
O9    Zn1   S    
C18   C20   A    
C23   C25   A    
O4    Zn2   S    
C37   C41   A    
C37   C57   A    
C47   I3    S    
C7    H3    S    
O15   Zn4   S    
C38   C42   A    
C48   C52   A    
C33   O11   A    
C8    C10   A    
C32   O10   A    
O3    Zn2   S    
C31   O13   A    
C36   N4    A    
C35   N3    A    
C22   H6    S    
O8    Zn4   S    
C52   C56   A    
