data_mof_unit_31407.cif
_audit_creation_date              2012-12-11T14:23:10-0500
_audit_creation_method            fapswitch 2.2
_symmetry_space_group_name_H-M    P1
_symmetry_Int_Tables_number       1
_space_group_crystal_system       triclinic
_cell_length_a                    11.128833
_cell_length_b                    10.877953
_cell_length_c                    18.853135
_cell_angle_alpha                 89.878256
_cell_angle_beta                  90.240394
_cell_angle_gamma                 60.017898
_cell_volume                      1976.88009932

loop_
_atom_site_label
_atom_site_type_symbol
_atom_type_description
_atom_site_fract_x
_atom_site_fract_y
_atom_site_fract_z
_atom_type_partial_charge
C1    C     C_R   0.240526 0.643834 0.611028 0.558777
C2    C     C_R   0.547669 0.210595 0.720049 -0.169952
C3    C     C_R   0.559341 0.206216 0.792237 -0.149564
C4    C     C_R   0.652686 0.621627 0.601370 0.543863
C5    C     C_R   0.921660 0.134657 0.813430 -0.117482
C6    C     C_R   0.034646 0.104293 0.770760 -0.180609
C7    C     C_R   0.031314 0.079848 0.698710 -0.117066
C8    C     C_R   0.912413 0.088345 0.667883 0.294802
C9    C     C_R   0.661314 0.178923 0.676974 0.013580
C10   C     C_R   0.189691 0.658497 0.836935 0.006022
C11   C     C_R   0.193769 0.543786 0.799326 0.024187
C12   C     C_3   0.676782 0.547885 0.801580 0.146345
C13   C     C_R   0.188667 0.547602 0.723907 0.017352
C14   C     C_R   0.229672 0.746904 0.727893 -0.128829
C15   C     C_R   0.218356 0.752415 0.800840 -0.104002
C16   C     C_R   0.627107 0.228925 0.603204 0.577049
C17   C     C_R   0.203689 0.425024 0.835040 -0.105250
C18   C     C_R   0.195008 0.319548 0.798105 -0.147179
C19   C     C_R   0.171964 0.332080 0.725265 -0.158773
C20   C     C_R   0.167228 0.445660 0.688362 -0.118479
C21   C     C_R   0.207393 0.651683 0.687542 0.012760
C22   C     C_R   0.730602 0.699714 0.182045 -0.006528
C23   C     C_3   0.700367 0.675726 0.811784 0.067365
C24   C     C_R   0.801122 0.560897 0.212507 0.033934
C25   C     C_R   0.744997 0.537387 0.272919 0.017626
C26   C     C_R   0.624897 0.791481 0.296410 -0.140088
C27   C     C_R   0.650791 0.815156 0.226380 -0.174979
C28   C     C_R   0.286824 0.623605 0.392301 0.579498
C29   C     C_R   0.922790 0.443225 0.184227 -0.091981
C30   C     C_R   0.969842 0.305804 0.207045 -0.149404
C31   C     C_R   0.897781 0.282327 0.258994 -0.119614
C32   C     C_R   0.779629 0.396297 0.287538 -0.072797
C33   C     C_R   0.663230 0.653339 0.318481 0.016210
C34   C     C_3   0.668982 0.647586 0.676702 0.020487
C35   C     C_R   0.661910 0.150327 0.177307 0.005220
C36   C     C_R   0.529266 0.224020 0.205762 0.013340
C37   C     C_R   0.513832 0.211409 0.278625 0.031979
C38   C     C_R   0.763525 0.093584 0.295454 -0.188480
C39   C     C_R   0.778504 0.080289 0.222504 -0.151006
C40   C     C_R   0.640922 0.621892 0.391407 0.540792
C41   C     C_R   0.411569 0.293207 0.161722 -0.082407
C42   C     C_R   0.285593 0.314948 0.185274 -0.115555
C43   C     C_R   0.270977 0.284855 0.255215 -0.153077
C44   C     C_R   0.382839 0.235006 0.301729 -0.089914
C45   C     C_3   0.815187 0.624823 0.690512 -0.266012
C46   C     C_R   0.632047 0.169343 0.323875 -0.002605
C47   C     C_R   0.168465 0.655943 0.177486 0.010234
C48   C     C_R   0.268075 0.693265 0.195547 -0.013082
C49   C     C_R   0.282170 0.718931 0.267445 0.013619
C50   C     C_R   0.147263 0.605002 0.298714 -0.145803
C51   C     C_R   0.103555 0.620036 0.229607 -0.157322
C52   C     C_R   0.613938 0.228260 0.395320 0.513418
C53   C     C_R   0.330328 0.733211 0.142115 -0.099894
C54   C     C_R   0.363850 0.836922 0.155801 -0.144436
C55   C     C_R   0.349891 0.888946 0.223798 -0.115087
C56   C     C_3   0.648785 0.538548 0.721930 -0.162544
C57   C     C_R   0.318360 0.826329 0.280837 0.274711
C58   C     C_R   0.240410 0.649216 0.318783 0.010878
C59   C     C_R   0.701981 0.103738 0.896636 0.527489
C60   C     C_R   0.727552 0.691050 0.886832 0.558775
C61   C     C_R   0.120321 0.703728 0.906336 0.524879
C62   C     C_R   0.678278 0.103673 0.104362 0.520179
C63   C     C_R   0.738208 0.718198 0.104871 0.568780
C64   C     C_3   0.573841 0.813435 0.781303 -0.221608
C65   C     C_R   0.095632 0.706471 0.111350 0.525616
C66   C     C_3   0.561132 0.799776 0.700749 -0.251122
C67   C     C_R   0.686065 0.165578 0.825357 -0.003513
C68   C     C_3   0.830878 0.649203 0.769268 -0.270093
C69   C     C_3   0.983615 0.050447 0.550722 0.004611
C70   C     C_3   0.944582 0.008117 0.481438 -0.319513
C71   C     C_3   0.208304 0.011975 0.357199 0.000700
C72   C     C_3   0.221679 0.065793 0.429461 -0.360001
C73   C     C_3   0.604207 0.486874 0.906495 0.000616
C74   C     C_3   0.482485 0.482384 0.939855 -0.363113
C75   C     C_R   0.799866 0.146890 0.783646 -0.018236
C76   C     C_R   0.791271 0.138697 0.708790 0.038188
Cr1   Cr    Cr6+3 0.392940 0.397950 0.502230 0.984071
Cr2   Cr    Cr6+3 0.398400 0.708500 0.501260 1.001149
Cr3   Cr    Cr6+3 0.708640 0.393530 0.496460 0.971387
Cr4   Cr    Cr6+3 0.937880 0.938320 0.007620 0.994710
Cr5   Cr    Cr6+3 0.625560 0.937220 0.994510 0.986099
Cr6   Cr    Cr6+3 0.938080 0.625010 0.001190 0.969439
H1    H     H_    0.586460 0.907161 0.791471 0.138889
H2    H     H_    0.225273 0.408677 0.891313 0.124144
H3    H     H_    0.206885 0.228369 0.826837 0.103648
H4    H     H_    0.160589 0.252356 0.696809 0.109634
H5    H     H_    0.144147 0.452543 0.632414 0.139204
H6    H     H_    0.567744 0.880831 0.331424 0.147871
H7    H     H_    0.986139 0.455752 0.145736 0.148654
H8    H     H_    0.606378 0.922485 0.206494 0.139075
H9    H     H_    0.062579 0.218004 0.184802 0.108715
H10   H     H_    0.716726 0.375315 0.321902 0.168864
H11   H     H_    0.854149 0.046973 0.329529 0.104690
H12   H     H_    0.720447 0.428634 0.703536 0.106527
H13   H     H_    0.418542 0.320505 0.107187 0.120495
H14   H     H_    0.881938 0.014324 0.201651 0.157548
H15   H     H_    0.172210 0.304478 0.274770 0.116083
H16   H     H_    0.365267 0.206363 0.353580 0.147109
H17   H     H_    0.101318 0.566704 0.337149 0.144080
H18   H     H_    0.333677 0.700218 0.087601 0.123271
H19   H     H_    0.016365 0.607567 0.217270 0.120729
H20   H     H_    0.392609 0.883005 0.113019 0.155476
H21   H     H_    0.847966 0.741285 0.774900 0.137255
H22   H     H_    0.833644 0.698465 0.657302 0.138262
H23   H     H_    0.924492 0.554458 0.790423 0.163016
H24   H     H_    0.775246 0.448560 0.815399 0.103528
H25   H     H_    0.541513 0.557758 0.713944 0.158645
H26   H     H_    0.446513 0.242323 0.698157 0.167223
H27   H     H_    0.097478 0.989937 0.557152 0.137152
H28   H     H_    0.949554 0.165716 0.548702 0.140187
H29   H     H_    0.835304 0.032128 0.482959 0.181486
H30   H     H_    0.955169 0.068819 0.437348 0.085113
H31   H     H_    0.011093 0.892575 0.472553 0.169610
H32   H     H_    0.257194 0.818349 0.703000 0.125781
H33   H     H_    0.226601 0.834632 0.828891 0.138733
H34   H     H_    0.894162 0.514502 0.676206 0.145404
H35   H     H_    0.937245 0.176059 0.277961 0.101597
H36   H     H_    0.454032 0.824597 0.688009 0.128170
H37   H     H_    0.201426 0.354238 0.148132 0.106357
H38   H     H_    0.578911 0.878989 0.672245 0.128262
H39   H     H_    0.369765 0.975318 0.232906 0.121252
H40   H     H_    0.110634 0.008473 0.354316 0.125631
H41   H     H_    0.204090 0.088033 0.316739 0.102038
H42   H     H_    0.314769 0.077900 0.431192 0.133892
H43   H     H_    0.128056 0.169672 0.440615 0.073843
H44   H     H_    0.234860 0.987888 0.470917 0.164278
H45   H     H_    0.929805 0.153596 0.868931 0.141926
H46   H     H_    0.639701 0.538686 0.945126 0.171007
H47   H     H_    0.688687 0.375905 0.898711 0.116681
H48   H     H_    0.441992 0.432401 0.902904 0.153455
H49   H     H_    0.516470 0.419086 0.989693 0.097923
H50   H     H_    0.399192 0.591665 0.952532 0.149891
H51   H     H_    0.469551 0.225498 0.822431 0.149330
H52   H     H_    0.129174 0.089319 0.794509 0.100578
H53   H     H_    0.124594 0.046244 0.668328 0.079787
H54   H     H_    0.476594 0.833142 0.807744 0.153252
O1    O     O_R   0.507340 0.255690 0.581430 -0.536335
O2    O     O_R   0.837290 0.593240 0.915240 -0.545650
O3    O     O_R   0.065320 0.635310 0.931580 -0.513767
O4    O     O_R   0.280360 0.527380 0.578910 -0.511862
O5    O     O_R   0.068470 0.828620 0.091850 -0.520192
O6    O     O_R   0.799150 0.057200 0.079350 -0.507462
O7    O     O_R   0.585220 0.080180 0.076770 -0.538137
O8    O     O_R   0.627170 0.809480 0.067050 -0.507304
O9    O     O_R   0.816200 0.596410 0.076500 -0.538426
O10   O     O_R   0.045770 0.638240 0.081070 -0.546165
O11   O     O_3   0.833840 0.833520 0.001110 -0.264569
O12   O     O_R   0.524510 0.695820 0.424050 -0.458143
O13   O     O_R   0.260600 0.739610 0.584580 -0.540467
O14   O     O_R   0.532370 0.695050 0.573830 -0.516402
O15   O     O_R   0.744850 0.503430 0.576380 -0.534295
O16   O     O_R   0.699080 0.276500 0.571950 -0.491805
O17   O     O_R   0.498860 0.256520 0.419860 -0.540955
O18   O     O_R   0.272490 0.528150 0.429140 -0.514052
O19   O     O_R   0.252110 0.740440 0.423010 -0.492136
O20   O     O_3   0.919729 0.017184 0.605775 -0.568616
O21   O     O_3   0.322104 0.874367 0.347740 -0.524960
O22   O     O_3   0.561494 0.564369 0.841840 -0.573852
O23   O     O_R   0.736370 0.504260 0.414810 -0.537141
O24   O     O_R   0.691220 0.277270 0.422180 -0.532929
O25   O     O_3   0.499990 0.499990 0.499980 -0.271039
O26   O     O_R   0.089570 0.825450 0.930590 -0.521843
O27   O     O_R   0.818700 0.054260 0.929860 -0.507631
O28   O     O_R   0.606310 0.077010 0.915520 -0.533559
O29   O     O_R   0.646730 0.806540 0.917560 -0.499293

loop_
_geom_bond_atom_site_label_1
_geom_bond_atom_site_label_2
_ccdc_geom_bond_type
C52   O24   A    
C55   H39   S    
C34   C56   S    
C74   H50   S    
C41   C42   A    
C71   H40   S    
C35   C39   A    
C19   C20   A    
Cr1   O4    S    
C62   O7    A    
C75   C76   A    
C19   H4    S    
C34   C66   S    
C29   H7    S    
Cr6   O11   S    
C7    C8    A    
C56   H25   S    
C32   H10   S    
C53   C54   A    
C1    C21   S    
C12   C23   S    
C26   C27   A    
C29   C30   A    
C5    C6    A    
C14   C21   A    
C71   H41   S    
C36   C37   A    
C9    C16   S    
Cr1   O1    S    
C10   C15   A    
Cr3   O23   S    
C38   C39   A    
Cr2   O19   S    
C20   H5    S    
C46   C52   S    
C8    C76   A    
C49   C57   A    
C27   H8    S    
C18   C19   A    
C73   C74   S    
C24   C29   A    
C31   H35   S    
C59   O28   A    
C40   O23   A    
C59   C67   S    
C22   C63   S    
C69   H27   S    
Cr4   O11   S    
C11   C17   A    
C16   O1    A    
Cr5   O11   S    
C28   O19   A    
C63   O8    A    
C68   H21   S    
C1    O13   A    
C9    C76   A    
C42   C43   A    
Cr2   O12   S    
Cr1   O17   S    
C25   C32   A    
C6    H52   S    
C70   H31   S    
C66   H38   S    
C74   H49   S    
C72   H42   S    
C28   O18   A    
C36   C41   A    
C23   C60   S    
C44   H16   S    
Cr3   O25   S    
C8    O20   S    
Cr6   O10   S    
C50   C51   A    
C4    C34   S    
Cr5   O8    S    
C53   H18   S    
Cr1   O25   S    
C48   C53   A    
C71   O21   S    
C73   H47   S    
C69   O20   S    
C40   O12   A    
C61   O26   A    
C33   C40   S    
C24   C25   A    
C10   C11   A    
Cr3   O24   S    
C61   O3    A    
C47   C51   A    
C52   O17   A    
C14   H32   S    
C73   O22   S    
C49   C58   A    
C72   H44   S    
C3    H51   S    
C35   C36   A    
C50   C58   A    
C23   C68   S    
C5    C75   A    
C56   H12   S    
C43   C44   A    
C64   H1    S    
C7    H53   S    
Cr6   O3    S    
C45   H22   S    
Cr1   O18   S    
C65   O5    A    
C69   H28   S    
C62   O6    A    
C26   C33   A    
C47   C48   A    
C30   C31   A    
C5    H45   S    
C45   C68   S    
C17   C18   A    
C50   H17   S    
C13   C21   A    
C16   O16   A    
C34   C45   S    
Cr4   O26   S    
C12   C56   S    
C1    O4    A    
C70   H30   S    
C23   C64   S    
Cr4   O6    S    
C22   C27   A    
C55   C57   A    
Cr5   O28   S    
C15   H33   S    
C10   C61   S    
C67   C75   A    
C68   H23   S    
Cr6   O9    S    
Cr2   O14   S    
Cr3   O15   S    
C4    O15   A    
C57   O21   S    
C54   C55   A    
C48   C49   A    
C13   C20   A    
C18   H3    S    
C54   H20   S    
C31   C32   A    
C3    C67   A    
C43   H15   S    
C30   H9    S    
Cr4   O27   S    
C6    C7    A    
C28   C58   S    
C51   H19   S    
C73   H46   S    
C4    O14   A    
C60   O29   A    
C72   H43   S    
C17   H2    S    
C37   C44   A    
C74   H48   S    
C2    C3    A    
C37   C46   A    
C71   C72   S    
Cr6   O2    S    
C12   H24   S    
C11   C13   A    
C45   H34   S    
C41   H13   S    
C38   H11   S    
C2    H26   S    
C47   C65   S    
C35   C62   S    
C22   C24   A    
C69   C70   S    
C42   H37   S    
C39   H14   S    
C38   C46   A    
C59   O27   A    
C70   H29   S    
Cr5   O7    S    
Cr2   O25   S    
C26   H6    S    
Cr4   O5    S    
C66   H36   S    
C25   C33   A    
Cr5   O29   S    
C14   C15   A    
C64   H54   S    
C12   O22   S    
C65   O10   A    
C2    C9    A    
C63   O9    A    
Cr2   O13   S    
C64   C66   S    
Cr3   O16   S    
C60   O2    A    
