data_mof_unit_62004.cif
_audit_creation_date              2013-03-05T16:30:21-0500
_audit_creation_method            fapswitch 2.2
_symmetry_space_group_name_H-M    P1
_symmetry_Int_Tables_number       1
_space_group_crystal_system       triclinic
_cell_length_a                    32.113659
_cell_length_b                    32.11177
_cell_length_c                    21.695842
_cell_angle_alpha                 90.000219
_cell_angle_beta                  90.012032
_cell_angle_gamma                 90.005087
_cell_volume                      22373.325146

loop_
_atom_site_label
_atom_site_type_symbol
_atom_site_description
_atom_site_fract_x
_atom_site_fract_y
_atom_site_fract_z
_atom_type_partial_charge
O1    O     O_R   0.439000 0.034460 0.500000 -0.586825
O2    O     O_R   0.965540 0.439000 0.500000 -0.584951
O3    O     O_R   0.561000 0.965540 0.500000 -0.586692
O4    O     O_R   0.034460 0.561000 0.500000 -0.584838
O5    O     O_R   0.561000 0.034460 0.500000 -0.584984
O6    O     O_R   0.034460 0.439000 0.500000 -0.586770
O7    O     O_R   0.439000 0.965540 0.500000 -0.584835
O8    O     O_R   0.965540 0.561000 0.500000 -0.586772
O9    O     O_R   0.939000 0.534460 0.000000 -0.584794
O10   O     O_R   0.465540 0.939000 0.000000 -0.586456
O11   O     O_R   0.061000 0.465540 0.000000 -0.585607
O12   O     O_R   0.534460 0.061000 0.000000 -0.586602
O13   O     O_R   0.061000 0.534460 0.000000 -0.585713
O14   O     O_R   0.534460 0.939000 0.000000 -0.584767
O15   O     O_R   0.939000 0.465540 0.000000 -0.586566
O16   O     O_R   0.465540 0.061000 0.000000 -0.584811
C1    C     C_R   0.419361 0.999998 0.500016 0.952350
C2    C     C_R   0.999998 0.419362 0.499966 0.952405
C3    C     C_R   0.580639 0.000002 0.500033 0.952357
C4    C     C_R   0.000002 0.580638 0.499976 0.952345
C5    C     C_R   0.919361 0.499999 0.999967 0.951648
C6    C     C_R   0.499998 0.919362 0.000027 0.951398
C7    C     C_R   0.080630 0.500002 0.000016 0.951499
C8    C     C_R   0.500002 0.080637 0.000025 0.951655
O17   O     O_R   0.499990 0.034460 0.408410 -0.596422
O18   O     O_R   0.965540 0.499990 0.408410 -0.596675
O19   O     O_R   0.500010 0.965540 0.408410 -0.596358
O20   O     O_R   0.034460 0.500010 0.408410 -0.596806
O21   O     O_R   0.500010 0.034460 0.591590 -0.596754
O22   O     O_R   0.034460 0.499990 0.591590 -0.596237
O23   O     O_R   0.499990 0.965540 0.591590 -0.596746
O24   O     O_R   0.965540 0.500010 0.591590 -0.596486
O25   O     O_R   0.999990 0.534460 0.908410 -0.596298
O26   O     O_R   0.465540 0.999990 0.908410 -0.596180
O27   O     O_R   0.000010 0.465540 0.908410 -0.596533
O28   O     O_R   0.534460 0.000010 0.908410 -0.596215
O29   O     O_R   0.000010 0.534460 0.091590 -0.596139
O30   O     O_R   0.534460 0.999990 0.091590 -0.596533
O31   O     O_R   0.999990 0.465540 0.091590 -0.596417
O32   O     O_R   0.465540 0.000010 0.091590 -0.596496
C9    C     C_R   0.500000 0.000000 0.379783 0.899590
C10   C     C_R   0.999996 0.499998 0.379787 0.900477
C11   C     C_R   0.500000 0.000000 0.620214 0.900602
C12   C     C_R   0.000003 0.500007 0.620215 0.899681
C13   C     C_R   0.000007 0.499998 0.879784 0.899824
C14   C     C_R   0.499995 0.999999 0.879783 0.899005
C15   C     C_R   0.999999 0.500001 0.120218 0.899143
C16   C     C_R   0.500005 0.999998 0.120215 0.900007
Zn1   Zn    Zn3+2 0.500000 0.046010 0.500000 1.118154
Zn2   Zn    Zn3+2 0.953990 0.500000 0.500000 1.118295
Zn3   Zn    Zn3+2 0.500000 0.953990 0.500000 1.118327
Zn4   Zn    Zn3+2 0.046010 0.500000 0.500000 1.118394
Zn5   Zn    Zn3+2 0.000000 0.546010 0.000000 1.119511
Zn6   Zn    Zn3+2 0.453990 0.000000 0.000000 1.118919
Zn7   Zn    Zn3+2 0.000000 0.453990 0.000000 1.118204
Zn8   Zn    Zn3+2 0.546010 0.000000 0.000000 1.118765
C17   C     C_R   0.565600 0.957388 0.309908 0.348060
C18   C     C_R   0.042261 0.565820 0.309914 0.347154
C19   C     C_R   0.434438 0.042654 0.309846 0.348122
C20   C     C_R   0.957667 0.434217 0.309875 0.347063
C21   C     C_R   0.434168 0.957746 0.690073 0.347063
C22   C     C_R   0.957412 0.565608 0.690120 0.348123
C23   C     C_R   0.565795 0.042294 0.690137 0.347091
C24   C     C_R   0.042547 0.434357 0.690108 0.347830
C25   C     C_R   0.065601 0.457380 0.809907 0.347605
C26   C     C_R   0.542802 0.065477 0.809880 0.348277
C27   C     C_R   0.934344 0.542492 0.809861 0.347301
C28   C     C_R   0.457106 0.934568 0.809855 0.348253
C29   C     C_R   0.934509 0.457208 0.190107 0.348258
C30   C     C_R   0.457570 0.065703 0.190103 0.347243
C31   C     C_R   0.065443 0.542855 0.190159 0.347981
C32   C     C_R   0.542521 0.934341 0.190128 0.347241
C33   C     C_R   0.587323 0.925388 0.279568 0.152975
C34   C     C_R   0.074134 0.587730 0.279574 0.150778
C35   C     C_R   0.412756 0.074684 0.279497 0.153034
C36   C     C_R   0.925769 0.412343 0.279515 0.150606
C37   C     C_R   0.412243 0.925884 0.720419 0.150529
C38   C     C_R   0.925401 0.587315 0.720451 0.153042
C39   C     C_R   0.587680 0.074186 0.720492 0.150648
C40   C     C_R   0.074506 0.412581 0.720468 0.152874
C41   C     C_R   0.087319 0.425377 0.779572 0.151721
C42   C     C_R   0.574886 0.087084 0.779552 0.152860
C43   C     C_R   0.912565 0.574455 0.779510 0.150546
C44   C     C_R   0.425000 0.912995 0.779506 0.152620
C45   C     C_R   0.912886 0.425134 0.220440 0.152839
C46   C     C_R   0.425626 0.087509 0.220438 0.150649
C47   C     C_R   0.087027 0.574957 0.220503 0.152193
C48   C     C_R   0.574488 0.912571 0.220482 0.150426
C49   C     C_R   0.523849 0.969783 0.218529 -0.128438
C50   C     C_R   0.030092 0.523997 0.218544 -0.128838
C51   C     C_R   0.476197 0.030237 0.218512 -0.128440
C52   C     C_R   0.969877 0.476031 0.218518 -0.129005
C53   C     C_R   0.475983 0.969909 0.781460 -0.128973
C54   C     C_R   0.969796 0.523836 0.781470 -0.128369
C55   C     C_R   0.523970 0.030110 0.781479 -0.128941
C56   C     C_R   0.030194 0.476114 0.781483 -0.128651
C57   C     C_R   0.023862 0.469791 0.718520 -0.128785
C58   C     C_R   0.530286 0.023743 0.718529 -0.128540
C59   C     C_R   0.976132 0.530186 0.718521 -0.128970
C60   C     C_R   0.469684 0.976274 0.718500 -0.128423
C61   C     C_R   0.976235 0.469717 0.281475 -0.128553
C62   C     C_R   0.469843 0.023905 0.281461 -0.129024
C63   C     C_R   0.023724 0.530306 0.281497 -0.128491
C64   C     C_R   0.530186 0.976113 0.281489 -0.128915
C65   C     C_R   0.500016 0.000004 0.186436 -0.075369
C66   C     C_R   0.999993 0.500005 0.186443 -0.075694
C67   C     C_R   0.499984 0.000004 0.813558 -0.075656
C68   C     C_R   0.000005 0.499988 0.813562 -0.075348
C69   C     C_R   0.000008 0.500001 0.686436 -0.075378
C70   C     C_R   0.499993 0.000002 0.686433 -0.075334
C71   C     C_R   0.999986 0.500005 0.313568 -0.075361
C72   C     C_R   0.500007 0.000002 0.313561 -0.075545
C73   C     C_R   0.227995 0.982241 0.550778 0.256824
C74   C     C_R   0.011747 0.227870 0.553471 0.255925
C75   C     C_R   0.772024 0.017758 0.550756 0.256870
C76   C     C_R   0.988416 0.772129 0.553548 0.255987
C77   C     C_R   0.772118 0.988406 0.446439 0.255939
C78   C     C_R   0.982066 0.227984 0.449349 0.256862
C79   C     C_R   0.227862 0.011652 0.446497 0.256018
C80   C     C_R   0.017744 0.772015 0.449225 0.256865
C81   C     C_R   0.727879 0.488084 0.053398 0.256038
C82   C     C_R   0.518773 0.727991 0.049983 0.257260
C83   C     C_R   0.272069 0.515830 0.051400 0.260073
C84   C     C_R   0.482053 0.272010 0.050613 0.257447
C85   C     C_R   0.272046 0.484239 0.948528 0.258983
C86   C     C_R   0.487188 0.727864 0.947097 0.256477
C87   C     C_R   0.727980 0.518022 0.949446 0.256978
C88   C     C_R   0.511876 0.272130 0.946598 0.255914
C89   C     C_R   0.206373 0.996273 0.498277 -0.281476
C90   C     C_R   0.996243 0.206372 0.501770 -0.281495
C91   C     C_R   0.793626 0.003751 0.498237 -0.281478
C92   C     C_R   0.003751 0.793627 0.501746 -0.281474
C93   C     C_R   0.706375 0.503722 0.001791 -0.281416
C94   C     C_R   0.503649 0.706373 0.998149 -0.281131
C95   C     C_R   0.293627 0.500019 0.999971 -0.288061
C96   C     C_R   0.496290 0.293625 0.998237 -0.281588
C97   C     C_R   0.271484 0.013422 0.447136 0.382916
C98   C     C_R   0.983779 0.271610 0.448068 0.382573
C99   C     C_R   0.728495 0.986645 0.447080 0.382973
C100  C     C_R   0.016023 0.728389 0.447953 0.382842
C101  C     C_R   0.728400 0.016043 0.552031 0.382743
C102  C     C_R   0.013493 0.271494 0.552832 0.382883
C103  C     C_R   0.271619 0.983965 0.552051 0.382795
C104  C     C_R   0.986650 0.728505 0.552910 0.383053
C105  C     C_R   0.771604 0.516311 0.948151 0.382590
C106  C     C_R   0.485456 0.771487 0.947797 0.382562
C107  C     C_R   0.228397 0.484356 0.948115 0.382521
C108  C     C_R   0.513646 0.228507 0.947259 0.382691
C109  C     C_R   0.228420 0.515778 0.051782 0.381869
C110  C     C_R   0.517050 0.771615 0.051347 0.382306
C111  C     C_R   0.771501 0.486324 0.052735 0.382818
C112  C     C_R   0.483772 0.228385 0.051905 0.382351
C113  C     C_R   0.293393 0.999467 0.500012 -0.213565
C114  C     C_R   0.999412 0.293393 0.500024 -0.213610
C115  C     C_R   0.706607 0.000568 0.499979 -0.213517
C116  C     C_R   0.000560 0.706607 0.500010 -0.213549
C117  C     C_R   0.793393 0.500544 0.000011 -0.213526
C118  C     C_R   0.500492 0.793392 0.000021 -0.213532
C119  C     C_R   0.206556 0.500068 0.999950 -0.213327
C120  C     C_R   0.499481 0.206606 0.000009 -0.213567
C121  C     C_1   0.161805 0.997771 0.499271 0.190105
C122  C     C_1   0.997754 0.161804 0.500761 0.190053
C123  C     C_1   0.838195 0.002241 0.499228 0.190158
C124  C     C_1   0.002243 0.838195 0.500751 0.190097
C125  C     C_1   0.661805 0.502225 0.000784 0.190226
C126  C     C_1   0.502182 0.661803 0.999204 0.191965
C127  C     C_1   0.338203 0.500003 0.999977 0.193729
C128  C     C_1   0.497782 0.338194 0.999240 0.190067
C129  C     C_1   0.337983 0.999826 0.500118 0.021270
C130  C     C_1   0.999801 0.337984 0.499893 0.020997
C131  C     C_1   0.662017 0.000189 0.500106 0.021217
C132  C     C_1   0.000186 0.662016 0.499891 0.021314
C133  C     C_1   0.837983 0.500172 0.999886 0.021000
C134  C     C_1   0.500151 0.837983 0.000135 0.020637
C135  C     C_1   0.161981 0.500033 0.999978 0.019302
C136  C     C_1   0.499839 0.162016 0.000121 0.021009
C137  C     C_1   0.375227 0.999972 0.500093 -0.054077
C138  C     C_1   0.999965 0.375228 0.499900 -0.054135
C139  C     C_1   0.624772 0.000032 0.500098 -0.054111
C140  C     C_1   0.000031 0.624771 0.499906 -0.053908
C141  C     C_1   0.875228 0.500021 0.999898 -0.054623
C142  C     C_1   0.500016 0.875228 0.000110 -0.054756
C143  C     C_1   0.124746 0.500011 1.000000 -0.055098
C144  C     C_1   0.499982 0.124771 0.000100 -0.054582
C145  C     C_1   0.124554 0.998956 0.499847 -0.050832
C146  C     C_1   0.998949 0.124553 0.500173 -0.050867
C147  C     C_1   0.875445 0.001049 0.499812 -0.050830
C148  C     C_1   0.001050 0.875446 0.500171 -0.050792
C149  C     C_1   0.624555 0.501042 0.000191 -0.050805
C150  C     C_1   0.501021 0.624552 0.999819 -0.048035
C151  C     C_1   0.375464 0.499996 0.999983 -0.047990
C152  C     C_1   0.498962 0.375446 0.999827 -0.051825
O33   O     O_R   0.999970 0.939080 0.448210 -0.593614
O34   O     O_R   0.060920 0.999970 0.448210 -0.586648
O35   O     O_R   0.000030 0.060920 0.448210 -0.593714
O36   O     O_R   0.939080 0.000030 0.448210 -0.586674
O37   O     O_R   0.000030 0.939080 0.551790 -0.586643
O38   O     O_R   0.939080 0.999970 0.551790 -0.593619
O39   O     O_R   0.999970 0.060920 0.551790 -0.586654
O40   O     O_R   0.060920 0.000030 0.551790 -0.593629
O41   O     O_R   0.499970 0.439080 0.948210 -0.586614
O42   O     O_R   0.560920 0.499970 0.948210 -0.593934
O43   O     O_R   0.500030 0.560920 0.948210 -0.586740
O44   O     O_R   0.439080 0.500030 0.948210 -0.592055
O45   O     O_R   0.500030 0.439080 0.051790 -0.595340
O46   O     O_R   0.439080 0.499970 0.051790 -0.591959
O47   O     O_R   0.499970 0.560920 0.051790 -0.592312
O48   O     O_R   0.560920 0.500030 0.051790 -0.586692
C153  C     C_R   0.000050 0.919610 0.500013 0.868568
C154  C     C_R   0.080390 0.999950 0.499992 0.868558
C155  C     C_R   0.999950 0.080389 0.500014 0.868570
C156  C     C_R   0.919610 0.000050 0.499981 0.868542
C157  C     C_R   0.499951 0.419610 0.999986 0.867367
C158  C     C_R   0.580390 0.500050 0.000019 0.868717
C159  C     C_R   0.500047 0.580389 0.999986 0.872660
C160  C     C_R   0.419621 0.499995 0.999994 0.871945
Zn9   Zn    Zn3+2 0.000000 1.000000 0.430950 1.137353
Zn10  Zn    Zn3+2 0.000000 0.000000 0.569050 1.137431
Zn11  Zn    Zn3+2 0.500000 0.500000 0.930950 1.138251
Zn12  Zn    Zn3+2 0.500000 0.500000 0.069050 1.133632
N1    N     N_R   0.376757 0.093079 0.308057 0.277318
O49   O     O_R   0.343185 0.099888 0.276001 -0.251796
O50   O     O_R   0.376501 0.100932 0.366904 -0.274851
N2    N     N_R   0.907580 0.376231 0.308074 0.277861
O51   O     O_R   0.900943 0.342628 0.276011 -0.250630
O52   O     O_R   0.899770 0.375905 0.366931 -0.268418
N3    N     N_R   0.623333 0.907022 0.308163 0.277294
O53   O     O_R   0.656925 0.900265 0.276151 -0.251362
O54   O     O_R   0.623574 0.899145 0.367004 -0.274664
N4    N     N_R   0.092283 0.623863 0.308144 0.277879
O55   O     O_R   0.098878 0.657475 0.276086 -0.250273
O56   O     O_R   0.100092 0.624199 0.367006 -0.268264
N5    N     N_R   0.623806 0.092353 0.691948 0.277888
O57   O     O_R   0.657402 0.098983 0.724035 -0.250630
O58   O     O_R   0.624152 0.100144 0.633084 -0.268439
N6    N     N_R   0.092835 0.376559 0.691870 0.277298
O59   O     O_R   0.099523 0.342936 0.723860 -0.251444
O60   O     O_R   0.100757 0.376345 0.633045 -0.274815
N7    N     N_R   0.376110 0.907743 0.691836 0.277856
O61   O     O_R   0.342491 0.901166 0.723874 -0.250094
O62   O     O_R   0.375783 0.899922 0.632980 -0.268284
N8    N     N_R   0.907034 0.623330 0.691872 0.277342
O63   O     O_R   0.900254 0.656911 0.723912 -0.251422
O64   O     O_R   0.899177 0.623587 0.633023 -0.274685
N9    N     N_R   0.876497 0.592731 0.808053 0.277917
O65   O     O_R   0.842926 0.599470 0.775963 -0.250775
O66   O     O_R   0.876170 0.600512 0.866921 -0.268036
N10   N     N_R   0.406447 0.877087 0.808108 0.277511
O67   O     O_R   0.399539 0.843507 0.776117 -0.250934
O68   O     O_R   0.398517 0.876928 0.866931 -0.273908
N11   N     N_R   0.123294 0.406974 0.808206 0.277551
O69   O     O_R   0.156912 0.400225 0.776250 -0.251029
O70   O     O_R   0.123465 0.399025 0.867025 -0.271681
N12   N     N_R   0.593368 0.123044 0.808131 0.277387
O71   O     O_R   0.600263 0.156601 0.776087 -0.251713
O72   O     O_R   0.601213 0.123284 0.866983 -0.274384
N13   N     N_R   0.122952 0.593484 0.191919 0.277567
O73   O     O_R   0.156520 0.600393 0.223940 -0.251565
O74   O     O_R   0.123141 0.601379 0.133083 -0.271762
N14   N     N_R   0.592805 0.876536 0.191898 0.277850
O75   O     O_R   0.599530 0.842936 0.223924 -0.250420
O76   O     O_R   0.600667 0.876281 0.133056 -0.268158
N15   N     N_R   0.876926 0.406662 0.191849 0.277374
O77   O     O_R   0.843361 0.399787 0.223873 -0.251588
O78   O     O_R   0.876695 0.398802 0.133003 -0.274438
N16   N     N_R   0.407379 0.123593 0.191876 0.277874
O79   O     O_R   0.400668 0.157173 0.223951 -0.251292
O80   O     O_R   0.399596 0.123923 0.133006 -0.268366
O81   O     O_3   0.582423 0.972517 0.363869 -0.722894
H1    H     H_    0.578477 0.003133 0.364149 0.314269
O82   O     O_3   0.027047 0.582547 0.363872 -0.724392
H2    H     H_    0.996449 0.578463 0.364119 0.313292
O83   O     O_3   0.417590 0.027531 0.363785 -0.722727
H3    H     H_    0.421526 0.996914 0.364075 0.314313
O84   O     O_3   0.972866 0.417472 0.363840 -0.724325
H4    H     H_    0.003467 0.421532 0.364110 0.313169
O85   O     O_3   0.417453 0.972962 0.636099 -0.724431
H5    H     H_    0.421539 0.003560 0.635847 0.313261
O86   O     O_3   0.972546 0.582442 0.636179 -0.722893
H6    H     H_    0.003159 0.578484 0.635900 0.314385
O87   O     O_3   0.582535 0.027083 0.636185 -0.724293
H7    H     H_    0.578458 0.996483 0.635923 0.313270
O88   O     O_3   0.027410 0.417566 0.636131 -0.723000
H8    H     H_    0.996798 0.421529 0.635846 0.314307
O89   O     O_3   0.082417 0.472494 0.863881 -0.723373
H9    H     H_    0.078484 0.503112 0.864167 0.313842
O90   O     O_3   0.527712 0.082367 0.863809 -0.722444
H10   H     H_    0.497088 0.078486 0.864092 0.314191
O91   O     O_3   0.917543 0.527319 0.863798 -0.723891
H11   H     H_    0.921538 0.496710 0.864063 0.313173
O92   O     O_3   0.472162 0.917669 0.863808 -0.722274
H12   H     H_    0.502791 0.921509 0.864120 0.314198
O93   O     O_3   0.917632 0.472300 0.136161 -0.722469
H13   H     H_    0.921516 0.502925 0.135872 0.314235
O94   O     O_3   0.472752 0.082490 0.136162 -0.724008
H14   H     H_    0.503358 0.078471 0.135907 0.313190
O95   O     O_3   0.082339 0.527784 0.136223 -0.722924
H15   H     H_    0.078482 0.497155 0.135925 0.313652
O96   O     O_3   0.527371 0.917544 0.136164 -0.723917
H16   H     H_    0.496761 0.921523 0.135882 0.313279
O97   O     O_3   0.291497 0.969077 0.604316 -0.627019
H17   H     H_    0.321822 0.974029 0.602163 0.377500
O98   O     O_3   0.028106 0.291222 0.605400 -0.632425
H18   H     H_    0.029395 0.321695 0.599522 0.380671
O99   O     O_3   0.708544 0.030910 0.604316 -0.627211
H19   H     H_    0.678211 0.026018 0.602129 0.377507
O100  O     O_3   0.972199 0.708776 0.605564 -0.632539
H20   H     H_    0.970790 0.678312 0.599637 0.380605
O101  O     O_3   0.708757 0.972183 0.394429 -0.632633
H21   H     H_    0.678295 0.970791 0.400350 0.380578
O102  O     O_3   0.968753 0.291480 0.395881 -0.627134
H22   H     H_    0.973666 0.321812 0.398036 0.377581
O103  O     O_3   0.291203 0.027919 0.394504 -0.632647
H23   H     H_    0.321663 0.029361 0.400452 0.380581
O104  O     O_3   0.030874 0.708520 0.395666 -0.627070
H24   H     H_    0.025958 0.678189 0.397845 0.377498
O105  O     O_3   0.791235 0.471564 0.105206 -0.632576
H25   H     H_    0.821696 0.470187 0.099258 0.380641
O106  O     O_3   0.532989 0.791496 0.102928 -0.626481
H26   H     H_    0.527822 0.821796 0.101109 0.378030
O107  O     O_3   0.208686 0.532335 0.103054 -0.629259
H27   H     H_    0.178113 0.530168 0.099282 0.379815
O108  O     O_3   0.468674 0.208513 0.104035 -0.627380
H28   H     H_    0.473617 0.178185 0.101919 0.377553
O109  O     O_3   0.208636 0.467837 0.896825 -0.628497
H29   H     H_    0.178076 0.470299 0.900402 0.379788
O110  O     O_3   0.469897 0.791207 0.895823 -0.631916
H30   H     H_    0.468723 0.821681 0.901745 0.381040
O111  O     O_3   0.791465 0.531470 0.896052 -0.627213
H31   H     H_    0.821797 0.526561 0.898178 0.377553
O112  O     O_3   0.528354 0.208780 0.894761 -0.632722
H32   H     H_    0.529786 0.178321 0.900733 0.380619
N17   N     N_R   0.205729 0.966347 0.603399 0.263163
O113  O     O_R   0.216565 0.977166 0.658937 -0.242599
O114  O     O_R   0.175608 0.939674 0.596187 -0.323056
N18   N     N_R   0.026007 0.205480 0.607000 0.256825
O115  O     O_R   0.060409 0.216217 0.634445 -0.236097
O116  O     O_R   0.003807 0.175379 0.630091 -0.325415
N19   N     N_R   0.794311 0.033620 0.603394 0.263111
O117  O     O_R   0.783494 0.022771 0.658920 -0.242716
O118  O     O_R   0.824434 0.060293 0.596212 -0.323309
N20   N     N_R   0.974344 0.794520 0.607180 0.256876
O119  O     O_R   0.940037 0.783788 0.634863 -0.235975
O120  O     O_R   0.996630 0.824616 0.630117 -0.325171
N21   N     N_R   0.794496 0.974320 0.392807 0.256858
O121  O     O_R   0.783757 0.940006 0.365129 -0.235952
O122  O     O_R   0.824591 0.996597 0.369868 -0.325346
N22   N     N_R   0.966035 0.205706 0.396817 0.263090
O123  O     O_R   0.976696 0.216543 0.341217 -0.242772
O124  O     O_R   0.939393 0.175576 0.404178 -0.323361
N23   N     N_R   0.205464 0.025766 0.392886 0.256854
O125  O     O_R   0.216186 0.060101 0.365256 -0.236292
O126  O     O_R   0.175370 0.003495 0.369915 -0.325267
N24   N     N_R   0.033596 0.794292 0.396584 0.263149
O127  O     O_R   0.022737 0.783465 0.341060 -0.242559
O128  O     O_R   0.060271 0.824416 0.403762 -0.323087
N25   N     N_R   0.705497 0.473699 0.106854 0.256819
O129  O     O_R   0.716227 0.439228 0.134104 -0.236270
O130  O     O_R   0.675411 0.495850 0.130071 -0.325530
N26   N     N_R   0.535780 0.705720 0.101843 0.263291
O131  O     O_R   0.526156 0.716553 0.157857 -0.241085
O132  O     O_R   0.562287 0.675604 0.093398 -0.324155
N27   N     N_R   0.294382 0.532171 0.103676 0.264092
O133  O     O_R   0.283155 0.522316 0.159427 -0.239803
O134  O     O_R   0.324616 0.558642 0.095927 -0.336844
N28   N     N_R   0.465951 0.294285 0.103088 0.262906
O135  O     O_R   0.476550 0.283462 0.158724 -0.243645
O136  O     O_R   0.439305 0.324399 0.095634 -0.327558
N29   N     N_R   0.294335 0.467871 0.896265 0.263805
O137  O     O_R   0.283119 0.477737 0.840507 -0.240187
O138  O     O_R   0.324537 0.441369 0.904033 -0.328733
N30   N     N_R   0.471939 0.705468 0.894171 0.257387
O139  O     O_R   0.437029 0.716186 0.868157 -0.234022
O140  O     O_R   0.493712 0.675384 0.870168 -0.325682
N31   N     N_R   0.705698 0.534180 0.897006 0.263063
O141  O     O_R   0.716513 0.523643 0.841348 -0.242817
O142  O     O_R   0.675583 0.560816 0.904516 -0.323556
N32   N     N_R   0.526200 0.294523 0.893113 0.256870
O143  O     O_R   0.560642 0.283803 0.865793 -0.236224
O144  O     O_R   0.504019 0.324609 0.869939 -0.325835

loop_
_geom_bond_atom_site_label_1
_geom_bond_atom_site_label_2
_geom_bond_distance
_ccdc_geom_bond_type
C75   C101  1.402282 A    
O45   Zn12  1.991770 S    
C109  C119  1.418329 A    
N25   O129  1.301356 A    
C20   O84   1.377685 S    
O8    Zn2   1.993594 S    
C8    C144  1.417203 S    
O40   Zn10  1.991958 S    
O92   H12   0.991303 S    
N17   O113  1.301346 A    
C36   N2    1.438725 S    
C102  O98   1.386365 S    
C130  C138  1.196008 T    
C135  C143  1.195749 T    
C23   C58   1.426452 A    
C97   O103  1.386341 S    
O18   Zn2   2.021522 S    
O82   H2    0.991313 S    
O25   C13   1.268998 A    
N30   O139  1.301403 A    
C114  C130  1.431936 S    
C25   O89   1.377719 S    
C108  C120  1.418271 A    
N12   O72   1.301431 A    
C118  C134  1.431954 S    
C25   C56   1.426499 A    
O84   H4    0.991310 S    
C9    C72   1.436742 S    
C120  C136  1.431919 S    
C27   C54   1.426481 A    
N8    O64   1.301431 A    
O3    C3    1.273679 A    
C11   C70   1.436662 S    
C29   C52   1.426504 A    
C13   C68   1.436738 S    
C85   C95   1.407991 A    
C56   C68   1.418603 A    
N9    O65   1.301376 A    
C74   C90   1.407972 A    
O5    Zn1   1.993768 S    
C77   C99   1.402076 A    
O39   Zn10  1.991769 S    
C41   N11   1.438636 S    
C83   N27   1.440372 S    
N10   O68   1.301428 A    
O44   Zn11  1.991961 S    
O108  H28   0.987819 S    
N11   O69   1.301372 A    
O41   Zn11  1.991772 S    
O17   C9    1.268944 A    
C33   N3    1.438682 S    
N20   O119  1.301355 A    
O97   H17   0.987820 S    
C20   C36   1.405757 A    
C33   C48   1.407959 A    
C151  C160  1.418017 S    
C26   C42   1.405775 A    
C105  C117  1.418346 A    
C35   C46   1.407997 A    
N3    O53   1.301372 A    
C17   O81   1.377734 S    
C97   C113  1.418285 A    
O42   C158  1.286129 A    
N4    O56   1.301440 A    
C53   C60   1.395874 A    
C87   C105  1.402282 A    
C52   C66   1.418612 A    
C24   C57   1.426521 A    
O26   Zn6   2.021522 S    
C81   N25   1.440612 S    
C46   N16   1.438737 S    
O37   Zn10  1.991770 S    
O27   C13   1.268899 A    
C3    C139  1.417298 S    
O31   C15   1.268986 A    
C1    C137  1.417303 S    
C136  C144  1.196006 T    
C17   C64   1.426501 A    
C19   C62   1.426498 A    
C108  O112  1.386345 S    
C74   N18   1.440592 S    
N18   O115  1.301393 A    
C124  C148  1.196869 T    
C73   N17   1.440641 S    
N31   O141  1.301344 A    
C127  C151  1.196584 T    
C27   O91   1.377723 S    
C128  C152  1.196873 T    
C98   O102  1.386256 S    
O9    C5    1.273663 A    
O11   C7    1.273541 A    
N22   O123  1.301369 A    
O16   Zn6   1.993594 S    
C107  O109  1.386355 S    
C22   C59   1.426488 A    
O36   C156  1.285630 A    
C86   C94   1.407955 A    
O107  H27   0.987657 S    
C28   O92   1.377779 S    
N13   O74   1.301429 A    
C106  O110  1.386372 S    
O6    Zn4   1.993594 S    
N32   O143  1.301351 A    
C78   C98   1.402255 A    
C36   C45   1.407985 A    
C26   C55   1.426507 A    
C27   C43   1.405767 A    
C40   N6    1.438665 S    
N23   O125  1.301352 A    
C47   N13   1.438649 S    
O36   Zn9   1.991961 S    
O21   Zn1   2.021441 S    
O33   Zn9   1.991772 S    
N1    O49   1.301374 A    
O23   C11   1.268927 A    
N6    O59   1.301371 A    
O13   C7    1.273512 A    
C76   N20   1.440613 S    
N13   O73   1.301374 A    
C17   C33   1.405752 A    
C82   C94   1.407918 A    
O2    Zn2   1.993659 S    
C76   C104  1.402038 A    
C21   C37   1.405742 A    
O7    C1    1.273681 A    
C76   C92   1.407981 A    
O28   C14   1.269027 A    
O26   C14   1.269000 A    
C34   C47   1.407969 A    
O29   C15   1.268949 A    
O38   C156  1.286129 A    
N5    O57   1.301376 A    
O30   C16   1.268974 A    
C104  O100  1.386349 S    
O29   Zn5   2.021441 S    
C90   C122  1.432165 S    
C79   N23   1.440613 S    
O85   H5    0.991309 S    
C56   C57   1.395904 A    
C131  C139  1.196064 T    
O109  H29   0.987656 S    
C129  C137  1.196057 T    
N26   O131  1.301381 A    
O19   Zn3   2.021443 S    
O34   Zn9   1.991804 S    
O43   C159  1.285570 A    
C64   C72   1.418589 A    
C37   C44   1.407953 A    
C110  O106  1.386222 S    
C100  O104  1.386240 S    
C116  C132  1.431928 S    
C81   C111  1.402072 A    
C83   C95   1.407994 A    
O15   Zn7   1.993768 S    
C104  C116  1.418276 A    
C31   O95   1.377774 S    
C85   N29   1.440379 S    
O93   H13   0.991305 S    
O34   C154  1.285617 A    
C57   C69   1.418576 A    
C82   C110  1.402259 A    
C99   C115  1.418303 A    
N27   O133  1.301297 A    
C43   N9    1.438743 S    
O91   H11   0.991305 S    
C89   C121  1.432247 S    
N7    O62   1.301439 A    
C30   O94   1.377710 S    
C102  C114  1.418277 A    
C105  O111  1.386243 S    
C7    C143  1.416739 S    
N16   O80   1.301441 A    
N3    O54   1.301432 A    
O32   Zn6   2.021367 S    
C21   C60   1.426456 A    
C22   O86   1.377751 S    
C32   O96   1.377707 S    
C152  C157  1.418564 S    
O35   Zn9   1.991766 S    
C29   C45   1.405767 A    
C18   C34   1.405746 A    
O22   Zn4   2.021520 S    
C21   O85   1.377664 S    
C22   C38   1.405768 A    
O23   Zn3   2.021438 S    
N14   O75   1.301372 A    
C39   C42   1.407996 A    
C106  C118  1.418248 A    
O12   C8    1.273690 A    
O1    C1    1.273665 A    
C44   N10   1.438633 S    
O14   C6    1.273697 A    
C6    C142  1.417229 S    
C98   C114  1.418336 A    
C31   C50   1.426510 A    
C79   C89   1.407998 A    
N30   O140  1.301396 A    
C77   C91   1.408000 A    
C133  C141  1.196061 T    
O30   Zn8   2.021520 S    
C2    C138  1.417222 S    
N24   O127  1.301347 A    
C49   C65   1.418553 A    
O88   H8    0.991308 S    
C95   C127  1.431505 S    
C109  O107  1.386377 S    
C146  C155  1.418553 S    
N29   O138  1.301326 A    
C60   C70   1.418507 A    
C58   C70   1.418485 A    
C82   N26   1.440647 S    
C62   C72   1.418572 A    
N7    O61   1.301372 A    
O22   C12   1.269010 A    
N2    O51   1.301372 A    
C112  C120  1.418322 A    
N15   O77   1.301372 A    
O38   Zn10  1.991807 S    
O10   C6    1.273691 A    
O18   C10   1.268970 A    
O47   Zn12  1.991769 S    
C111  C117  1.418291 A    
C45   N15   1.438679 S    
C88   C96   1.407983 A    
N20   O120  1.301371 A    
C103  C113  1.418334 A    
C59   C69   1.418566 A    
C63   C71   1.418498 A    
O95   H15   0.991304 S    
C51   C65   1.418526 A    
N28   O135  1.301346 A    
C121  C145  1.196920 T    
C38   C43   1.407993 A    
O31   Zn7   2.021438 S    
C30   C51   1.426461 A    
C125  C149  1.196919 T    
O86   H6    0.991306 S    
C94   C126  1.432153 S    
N21   O122  1.301358 A    
C12   C69   1.436720 S    
C132  C140  1.196010 T    
O45   C157  1.286111 A    
O104  H24   0.987815 S    
N25   O130  1.301368 A    
O81   H1    0.991305 S    
O21   C11   1.268923 A    
C24   C40   1.405711 A    
C134  C142  1.196014 T    
O13   Zn5   1.993768 S    
N17   O114  1.301373 A    
C84   C96   1.407930 A    
O100  H20   0.987698 S    
C28   C44   1.405742 A    
C80   N24   1.440642 S    
C39   N5    1.438736 S    
N18   O116  1.301376 A    
C85   C107  1.401768 A    
O94   H14   0.991310 S    
O3    Zn3   1.993703 S    
C101  C115  1.418347 A    
C23   C39   1.405765 A    
O46   Zn12  1.991807 S    
C18   O82   1.377674 S    
O40   C154  1.286135 A    
C73   C103  1.402284 A    
O96   H16   0.991308 S    
C92   C124  1.432163 S    
C77   N21   1.440625 S    
O89   H9    0.991307 S    
O28   Zn8   2.021369 S    
C93   C125  1.432249 S    
C148  C153  1.418561 S    
C25   C41   1.405703 A    
N19   O117  1.301327 A    
C99   O101  1.386337 S    
C91   C123  1.432243 S    
C15   C66   1.436799 S    
N22   O124  1.301386 A    
N8    O63   1.301376 A    
C38   N8    1.438677 S    
O41   C157  1.285596 A    
C55   C67   1.418610 A    
C52   C61   1.395850 A    
C31   C47   1.405747 A    
N9    O66   1.301438 A    
C29   O93   1.377769 S    
O9    Zn5   1.993703 S    
N32   O144  1.301374 A    
O11   Zn7   1.993703 S    
N10   O67   1.301370 A    
O44   C160  1.285719 A    
O48   C158  1.285623 A    
C110  C118  1.418309 A    
C88   C108  1.402040 A    
C87   C93   1.407941 A    
N23   O126  1.301369 A    
O5    C3    1.273667 A    
C61   C71   1.418502 A    
N12   O71   1.301373 A    
O7    Zn3   1.993768 S    
O110  H30   0.987679 S    
O112  H32   0.987705 S    
O103  H23   0.987706 S    
C101  O99   1.386234 S    
N6    O60   1.301431 A    
C86   N30   1.440562 S    
N4    O55   1.301374 A    
O17   Zn1   2.021440 S    
C50   C63   1.395853 A    
C48   N14   1.438691 S    
C50   C66   1.418621 A    
O106  H26   0.987841 S    
C147  C156  1.418653 S    
O99   H19   0.987805 S    
C113  C129  1.432014 S    
C37   N7    1.438735 S    
C145  C154  1.418650 S    
C42   N12   1.438683 S    
C117  C133  1.432015 S    
O48   Zn12  1.991958 S    
O14   Zn8   1.993594 S    
O102  H22   0.987824 S    
C83   C109  1.401766 A    
O2    C2    1.273683 A    
O111  H31   0.987820 S    
C34   N4    1.438735 S    
C107  C119  1.418326 A    
N26   O132  1.301402 A    
C86   C106  1.401993 A    
C55   C58   1.395835 A    
C4    C140  1.417215 S    
C75   C91   1.407944 A    
O101  H21   0.987700 S    
C5    C141  1.417295 S    
C54   C68   1.418523 A    
O8    C4    1.273692 A    
C73   C89   1.407946 A    
O4    Zn4   1.993659 S    
C78   C90   1.407919 A    
C74   C102  1.402020 A    
C26   O90   1.377779 S    
N11   O70   1.301427 A    
C111  O105  1.386349 S    
C123  C147  1.196927 T    
O32   C16   1.269002 A    
C88   N32   1.440612 S    
C16   C65   1.436725 S    
C84   N28   1.440642 S    
C84   C112  1.402248 A    
O16   C8    1.273691 A    
O98   H18   0.987686 S    
C119  C135  1.431467 S    
N27   O134  1.301322 A    
O47   C159  1.286109 A    
C32   C48   1.405739 A    
N31   O142  1.301372 A    
O25   Zn5   2.021440 S    
O6    C2    1.273705 A    
C87   N31   1.440642 S    
O27   Zn7   2.021443 S    
C79   C97   1.402068 A    
N14   O76   1.301436 A    
N16   O79   1.301374 A    
C122  C146  1.196863 T    
C96   C128  1.432162 S    
O87   H7    0.991306 S    
C126  C150  1.196848 T    
O42   Zn11  1.991804 S    
C10   C71   1.436664 S    
O35   C155  1.286107 A    
O19   C9    1.268957 A    
O33   C153  1.286108 A    
C75   N19   1.440650 S    
C14   C67   1.436803 S    
O83   H3    0.991304 S    
O24   C12   1.268970 A    
N5    O58   1.301441 A    
O24   Zn2   2.021367 S    
O12   Zn8   1.993659 S    
C80   C100  1.402252 A    
N19   O118  1.301364 A    
C100  C116  1.418327 A    
N24   O128  1.301376 A    
C49   C64   1.395871 A    
C51   C62   1.395835 A    
C20   C61   1.426450 A    
C30   C46   1.405769 A    
C19   C35   1.405773 A    
C23   O87   1.377689 S    
N29   O137  1.301303 A    
C150  C159  1.418521 S    
O46   C160  1.285704 A    
C80   C92   1.407929 A    
C40   C41   1.407908 A    
N2    O52   1.301440 A    
O4    C4    1.273692 A    
C28   C53   1.426525 A    
O43   Zn11  1.991766 S    
N1    O50   1.301431 A    
N15   O78   1.301431 A    
C53   C67   1.418637 A    
C32   C49   1.426476 A    
O20   Zn4   2.021369 S    
C24   O88   1.377723 S    
C54   C59   1.395827 A    
C19   O83   1.377759 S    
O20   C10   1.268975 A    
C112  O108  1.386241 S    
O39   C155  1.285591 A    
C78   N22   1.440641 S    
O105  H25   0.987700 S    
O10   Zn6   1.993659 S    
N28   O136  1.301375 A    
O37   C153  1.285599 A    
C149  C158  1.418652 S    
C103  O97   1.386235 S    
O90   H10   0.991306 S    
C115  C131  1.432008 S    
O15   C5    1.273680 A    
C35   N1    1.438682 S    
C18   C63   1.426458 A    
C81   C93   1.407995 A    
N21   O121  1.301335 A    
O1    Zn1   1.993703 S    
