data_mof_unit_25830.cif
_audit_creation_date              2012-12-11T18:06:55-0500
_audit_creation_method            fapswitch 2.2
_symmetry_space_group_name_H-M    P1
_symmetry_Int_Tables_number       1
_space_group_crystal_system       triclinic
_cell_length_a                    8.272817
_cell_length_b                    13.161959
_cell_length_c                    26.935162
_cell_angle_alpha                 97.67763
_cell_angle_beta                  93.99581
_cell_angle_gamma                 81.138511
_cell_volume                      2868.27583866

loop_
_atom_site_label
_atom_site_type_symbol
_atom_type_description
_atom_site_fract_x
_atom_site_fract_y
_atom_site_fract_z
_atom_type_partial_charge
Ba1   Ba    Ba6+2 0.859560 0.448380 0.523550 1.643069
Ba2   Ba    Ba6+2 0.330270 0.551530 0.476440 1.643586
C1    C     C_3   0.686954 0.089285 0.664658 -0.203966
C2    C     C_3   0.682384 0.190414 0.642081 0.206749
C3    C     C_3   0.532634 0.713918 0.628377 0.312722
C4    C     C_3   0.578124 0.740339 0.683852 -0.341287
C5    C     C_3   0.002354 0.793649 0.340172 0.338200
C6    C     C_3   0.931598 0.850830 0.295776 -0.229645
C7    C     C_3   0.507910 0.809614 0.334947 0.400919
C8    C     C_3   0.434488 0.885317 0.377482 -0.341375
C9    C     C_R   0.111021 0.496458 0.191712 0.618221
C10   C     C_R   0.826733 0.532015 0.166667 0.650728
C11   C     C_2   0.784030 0.595268 0.275749 -0.136378
C12   C     C_3   0.193236 0.253225 0.663717 0.300210
C13   C     C_3   0.747556 0.606550 0.330201 -0.078901
C14   C     C_1   0.982269 0.472931 0.341572 -0.025949
C15   C     C_2   0.993297 0.447721 0.291599 -0.052579
C16   C     C_2   0.906401 0.522942 0.256887 0.231887
C17   C     C_R   0.031855 0.511206 0.103793 -0.076815
C18   C     C_R   0.153679 0.481459 0.140631 -0.091070
C19   C     C_R   0.312590 0.437907 0.124921 -0.007585
C20   C     C_R   0.867281 0.535188 0.116990 -0.023576
C21   C     C_2   0.868958 0.545357 0.362225 -0.242631
C22   C     C_2   0.347451 0.479956 0.642592 -0.270778
C23   C     C_3   0.196772 0.241954 0.719934 -0.279417
C24   C     C_R   0.274517 0.481729 0.987929 0.030221
C25   C     C_R   0.991577 0.563448 0.968614 0.001870
C26   C     C_R   0.151275 0.521222 0.952927 0.043234
C27   C     C_R   0.433732 0.446479 0.970609 -0.114296
C28   C     C_R   0.470677 0.451550 0.921470 -0.066895
C29   C     C_R   0.350046 0.489449 0.886759 -0.027956
C30   C     C_R   0.189697 0.521338 0.902021 -0.084057
C31   C     C_R   0.069046 0.556681 0.866665 -0.044089
C32   C     C_R   0.105686 0.548413 0.815499 0.582946
C33   C     C_R   0.389032 0.500191 0.837661 0.588010
C34   C     C_3   0.170246 0.229770 0.424217 0.323546
C35   C     C_2   0.450592 0.463708 0.728826 -0.102269
C36   C     C_3   0.496630 0.479900 0.677333 -0.036986
C37   C     C_1   0.213897 0.539060 0.659134 0.019325
C38   C     C_2   0.188249 0.564545 0.707962 -0.098725
C39   C     C_2   0.306224 0.515540 0.746991 0.157982
C40   C     C_R   0.235610 0.480519 0.038836 -0.006070
C41   C     C_R   0.073061 0.514665 0.053386 0.061767
C42   C     C_R   0.949685 0.550413 0.017719 0.023937
C43   C     C_R   0.351497 0.440495 0.075135 -0.093814
C44   C     C_R   0.745144 0.558011 0.079765 -0.055792
C45   C     C_3   0.116766 0.123794 0.413345 -0.334126
C46   C     C_R   0.883307 0.619861 0.934573 0.040597
C47   C     C_R   0.917066 0.606503 0.883504 -0.014654
C48   C     C_R   0.785700 0.563861 0.031154 -0.123483
C49   C     C_R   0.748588 0.823661 0.477221 -0.259459
C50   C     C_R   0.440719 0.187008 0.522236 -0.258237
C51   C     C_R   0.412557 0.013692 0.537688 -0.072567
C52   C     C_R   0.353763 0.120252 0.542395 -0.006404
C53   C     C_R   0.579665 0.150482 0.494266 0.036652
C54   C     C_R   0.639971 0.040589 0.489152 -0.045844
C55   C     C_R   0.554695 0.971579 0.511328 -0.042244
C56   C     C_3   0.002567 0.768290 0.578240 0.332622
C57   C     C_R   0.612933 0.861918 0.505339 0.038182
C58   C     C_R   0.840672 0.889492 0.459697 0.001023
C59   C     C_R   0.784427 0.996957 0.464014 -0.102438
C60   C     C_3   0.003539 0.883515 0.592942 -0.254705
C61   C     C_3   0.550493 0.228413 0.366011 0.309169
C62   C     C_3   0.505785 0.119893 0.348678 -0.213450
H1    H     H_    0.785577 0.180465 0.616648 0.094974
H2    H     H_    0.184312 0.078395 0.382299 0.098390
H3    H     H_    0.138433 0.082637 0.447074 0.103752
H4    H     H_    0.986214 0.131573 0.400513 0.147415
H5    H     H_    0.885768 0.754469 0.558266 -0.035863
H6    H     H_    0.103652 0.738230 0.553360 0.084640
H7    H     H_    0.890310 0.915642 0.611950 0.092889
H8    H     H_    0.003587 0.921319 0.558507 0.090439
H9    H     H_    0.449434 0.278642 0.385160 0.080085
H10   H     H_    0.686274 0.026794 0.632853 0.029607
H11   H     H_    0.457037 0.096191 0.381706 0.056848
H12   H     H_    0.619290 0.065534 0.339720 0.104674
H13   H     H_    0.565576 0.205256 0.619639 -0.024816
H14   H     H_    0.404448 0.697379 0.623726 -0.042722
H15   H     H_    0.615888 0.643270 0.614441 0.073536
H16   H     H_    0.506642 0.815099 0.698953 0.155637
H17   H     H_    0.552545 0.678962 0.705370 0.062720
H18   H     H_    0.710618 0.747178 0.688978 0.146186
H19   H     H_    0.299912 0.278517 0.739451 0.005718
H20   H     H_    0.095600 0.726460 0.328123 0.092310
H21   H     H_    0.900447 0.763115 0.354558 -0.051121
H22   H     H_    0.839607 0.807680 0.274075 0.067924
H23   H     H_    0.867231 0.928237 0.310665 0.094694
H24   H     H_    0.636037 0.788558 0.348140 -0.180618
H25   H     H_    0.320812 0.929657 0.363843 0.113596
H26   H     H_    0.523936 0.936580 0.393435 0.026614
H27   H     H_    0.114504 0.326322 0.656315 0.066378
H28   H     H_    0.407756 0.842740 0.408018 0.175775
H29   H     H_    0.536203 0.413199 0.749964 0.167633
H30   H     H_    0.595678 0.425781 0.910757 0.134423
H31   H     H_    0.535165 0.416172 0.994149 0.077516
H32   H     H_    0.473319 0.406417 0.065290 0.116605
H33   H     H_    0.719687 0.652930 0.253477 0.135922
H34   H     H_    0.616818 0.572130 0.088104 0.121238
H35   H     H_    0.319672 0.258262 0.654140 -0.050484
H36   H     H_    0.831666 0.645927 0.857536 0.134130
H37   H     H_    0.100007 0.632193 0.719174 0.125837
H38   H     H_    0.686108 0.576364 0.003888 0.086056
H39   H     H_    0.864441 0.568045 0.402374 0.095640
H40   H     H_    0.339931 0.418032 0.611897 0.054147
H41   H     H_    0.343320 0.963935 0.553345 0.096021
H42   H     H_    0.855938 0.045513 0.448729 0.099967
H43   H     H_    0.791945 0.741176 0.472717 0.043823
H44   H     H_    0.393946 0.268971 0.526150 0.056631
H45   H     H_    0.217060 0.158823 0.725614 0.166599
H46   H     H_    0.299673 0.220815 0.437277 -0.096647
H47   H     H_    0.098027 0.273520 0.455019 0.116122
N1    N     N_R   0.948301 0.516774 0.204284 -0.407319
N2    N     N_R   0.266350 0.520391 0.800362 -0.421933
O1    O     O_2   0.907040 0.557650 0.617910 -0.450422
O2    O     O_3   0.693741 0.219891 0.397575 -0.637684
O3    O     O_3   0.136966 0.167029 0.634804 -0.610471
O4    O     O_2   0.282660 0.442310 0.382060 -0.458569
O5    O     O_3   0.050670 0.442340 0.442260 -0.500985
O6    O     O_3   0.504750 0.639360 0.411530 -0.475000
O7    O     O_3   0.153040 0.274691 0.379342 -0.675712
O8    O     O_3   0.618400 0.630290 0.524520 -0.480148
O9    O     O_3   0.090070 0.694820 0.435810 -0.481654
O10   O     O_2   0.177572 0.881422 0.469555 -0.495311
O11   O     O_3   0.072192 0.862509 0.376810 -0.611290
O12   O     O_3   0.139040 0.557570 0.557730 -0.501696
O13   O     O_3   0.571310 0.369620 0.475470 -0.478993
O14   O     O_2   0.348200 0.764910 0.523260 -0.482778
O15   O     O_3   0.548878 0.798922 0.603594 -0.630189
O16   O     O_2   0.433091 0.529762 0.323352 -0.436184
O17   O     O_3   0.415322 0.727287 0.324386 -0.562488
O18   O     O_2   0.218721 0.495006 0.225082 -0.589682
O19   O     O_2   0.533147 0.495474 0.829177 -0.594119
O20   O     O_2   0.682542 0.542848 0.176326 -0.563076
O21   O     O_2   0.992801 0.566253 0.784809 -0.598502
O22   O     O_3   0.684960 0.360550 0.588460 -0.485430
O23   O     O_2   0.835354 0.432204 0.672412 -0.470445
O24   O     O_3   0.016659 0.722564 0.622224 -0.636258
O25   O     O_3   0.698280 0.272454 0.680264 -0.601926
O26   O     O_2   0.841490 0.235060 0.476710 -0.467175
O27   O     O_3   0.099640 0.305100 0.564190 -0.488009
O28   O     O_2   0.011795 0.121510 0.543840 -0.500647
P1    P     P_3+3 0.072810 0.589830 0.610360 0.982483
P2    P     P_3+3 0.661990 0.251250 0.462170 0.968653
P3    P     P_3+3 0.153799 0.174831 0.570794 0.926832
P4    P     P_3+3 0.116900 0.410080 0.389630 0.958570
P5    P     P_3+3 0.044174 0.831157 0.436416 0.934341
P6    P     P_3+3 0.676473 0.388256 0.653579 0.975373
P7    P     P_3+3 0.535614 0.764145 0.538519 0.940473
P8    P     P_3+3 0.527569 0.618591 0.346773 1.015437
C63   C     C_3   0.152688 0.906483 0.627588 -0.189156
C64   C     C_3   0.149911 0.878876 0.681177 -0.297317
H48   H     H_    0.023213 0.881248 0.692622 0.159380
H49   H     H_    0.216106 0.799811 0.684067 0.105976
H50   H     H_    0.211426 0.933798 0.708163 0.158901
H51   H     H_    0.264778 0.865942 0.610361 0.157103
H52   H     H_    0.159565 0.989281 0.629812 0.176486
C65   C     C_3   0.584670 0.277529 0.320211 -0.161762
C66   C     C_3   0.689948 0.360243 0.334679 -0.299434
H53   H     H_    0.643309 0.412543 0.368010 0.127021
H54   H     H_    0.691873 0.402434 0.301882 0.101643
H55   H     H_    0.815065 0.323013 0.344644 0.087376
H56   H     H_    0.653787 0.219573 0.292644 0.100959
H57   H     H_    0.467509 0.311677 0.302137 0.114079
C67   C     C_3   0.375398 0.112458 0.304373 -0.241651
C68   C     C_3   0.441474 0.099187 0.251593 -0.370702
H58   H     H_    0.571911 0.063505 0.250872 0.133088
H59   H     H_    0.368503 0.049173 0.225414 0.159153
H60   H     H_    0.428791 0.175032 0.236907 0.130352
H61   H     H_    0.311844 0.045371 0.306788 0.105156
H62   H     H_    0.281435 0.181284 0.307731 0.157717
C69   C     C_2   0.538432 0.090175 0.693472 0.557250
H63   H     H_    0.518629 0.143274 0.727593 0.042640
O29   O     O_2   0.443066 0.028860 0.679680 -0.618294
C70   C     C_2   0.840562 0.068891 0.697436 0.535238
H64   H     H_    0.956616 0.078011 0.683864 0.043257
O30   O     O_2   0.837473 0.043310 0.739316 -0.547967
C71   C     C_3   0.060297 0.865613 0.260218 -0.186884
C72   C     C_3   0.110923 0.767238 0.224359 -0.315825
H65   H     H_    0.179212 0.705546 0.245171 0.194181
H66   H     H_    0.001680 0.738936 0.204096 0.089653
H67   H     H_    0.190995 0.784100 0.196033 0.171742
H68   H     H_    0.007023 0.928142 0.237382 0.117033
H69   H     H_    0.168604 0.891038 0.282025 0.160551
C73   C     C_2   0.517402 0.857974 0.288254 0.468282
H70   H     H_    0.585296 0.921508 0.289638 -0.063131
O31   O     O_2   0.459708 0.822358 0.247930 -0.580267
C74   C     C_2   0.030069 0.336734 0.270453 0.484636
H71   H     H_    0.041885 0.276636 0.294491 -0.007885
O32   O     O_2   0.039360 0.310363 0.225446 -0.569976
C75   C     C_2   0.433260 0.376407 0.157316 0.597840
H72   H     H_    0.396360 0.350106 0.190643 0.046051
O33   O     O_2   0.575199 0.349669 0.145877 -0.561298
C76   C     C_3   0.762210 0.715394 0.952039 -0.228809
C77   C     C_3   0.586445 0.710911 0.930843 -0.391749
H73   H     H_    0.579530 0.703237 0.889272 0.155207
H74   H     H_    0.536038 0.645904 0.942962 0.134774
H75   H     H_    0.507461 0.783795 0.944755 0.130566
H76   H     H_    0.763569 0.733364 0.993420 0.119500
H77   H     H_    0.803476 0.783595 0.939162 0.118913
C78   C     C_2   0.044305 0.294831 0.744599 0.532338
H78   H     H_    0.009152 0.377317 0.744767 0.079797
O34   O     O_2   0.963003 0.246740 0.766508 -0.517498

loop_
_geom_bond_atom_site_label_1
_geom_bond_atom_site_label_2
_ccdc_geom_bond_type
C25   C46   A    
C56   C60   S    
C52   P3    S    
C69   H63   S    
O6    P8    S    
C75   H72   S    
C4    H18   S    
C46   C76   S    
C67   H62   S    
C17   C18   A    
C13   P8    S    
C5    O11   S    
C62   C67   S    
C72   H65   S    
Ba2   O5    S    
C12   H35   S    
C5    H21   S    
C51   C52   A    
C54   C55   A    
C32   N2    Am   
C76   C77   S    
C69   O29   D    
C68   H58   S    
C11   C16   D    
C35   C39   D    
O1    P1    D    
C67   C68   S    
C35   C36   S    
Ba1   O12   S    
C7    H24   S    
C28   C29   A    
C53   C54   A    
C55   C57   A    
C77   H75   S    
C32   O21   D    
C31   C47   A    
C71   H68   S    
C10   C20   A    
O13   P2    S    
C22   C37   D    
C73   H70   S    
C3    O15   S    
C34   C45   S    
O4    P4    D    
Ba1   Ba2   S    
C64   H50   S    
C1    H10   S    
C70   H64   S    
Ba1   P1    S    
C66   H55   S    
C38   H37   S    
O3    P3    S    
O26   P2    D    
C25   C42   A    
C65   C66   S    
C21   H39   S    
C8    H25   S    
C50   C52   A    
C78   H78   S    
C22   C36   S    
C64   H48   S    
O10   P5    D    
C3    H15   S    
C7    C8    S    
O25   P6    S    
C45   H2    S    
C6    H22   S    
Ba1   O26   S    
C50   C53   A    
C23   H45   S    
O14   P7    D    
C61   O2    S    
Ba2   O14   S    
C13   C21   S    
C5    H20   S    
C44   H34   S    
C8    H28   S    
O7    P4    S    
C68   H59   S    
C4    H17   S    
C63   H52   S    
C64   H49   S    
C66   H54   S    
C67   H61   S    
C58   P5    S    
O17   P8    S    
C6    C71   S    
C45   H3    S    
Ba2   O4    S    
C17   C41   A    
C31   C32   A    
C19   C43   A    
Ba2   O9    S    
C36   P6    S    
O2    P2    S    
C9    C18   A    
O24   P1    S    
C53   P2    S    
C35   H29   S    
O23   P6    D    
C5    C6    S    
C17   C20   A    
Ba1   O13   S    
C7    O17   S    
O28   P3    D    
C39   N2    S    
C37   C38   D    
C27   H31   S    
C51   C55   A    
C14   C15   D    
C61   H9    S    
C71   H69   S    
O11   P5    S    
C14   P4    S    
Ba2   P4    S    
C40   C43   A    
C41   C42   A    
O16   P8    D    
C27   C28   A    
Ba1   P2    S    
C1    C70   S    
C4    H16   S    
C29   C30   A    
C37   P1    S    
C26   C30   A    
O12   P1    S    
C34   H47   S    
C15   C16   S    
C62   H12   S    
O8    P7    S    
C60   H8    S    
C70   O30   D    
C59   H42   S    
C8    H26   S    
Ba1   O27   S    
Ba2   O13   S    
C56   O24   S    
C78   O34   D    
C38   C39   S    
C20   C44   A    
C48   H38   S    
C68   H60   S    
O22   P6    S    
C10   O20   D    
C11   C13   S    
C34   H46   S    
C66   H53   S    
C29   C33   A    
C49   C57   A    
Ba1   O1    S    
C61   C65   S    
C1    C2    S    
C77   H74   S    
C45   H4    S    
C10   N1    Am   
C24   C40   A    
C23   H19   S    
Ba2   O8    S    
C42   C48   A    
C65   H57   S    
C46   C47   A    
C75   O33   D    
C60   C63   S    
C9    N1    Am   
C63   C64   S    
O5    P4    S    
C56   H6    S    
O27   P3    S    
C16   N1    S    
C9    O18   D    
C72   H66   S    
Ba2   O6    S    
C56   H5    S    
C14   C21   D    
C44   C48   A    
C24   C26   A    
C63   H51   S    
C6    H23   S    
C30   C31   A    
C74   H71   S    
C28   H30   S    
C23   C78   S    
C76   H77   S    
C57   P7    S    
C47   H36   S    
C77   H73   S    
C1    C69   S    
C19   C75   S    
C3    C4    S    
C15   C74   S    
C12   O3    S    
C65   H56   S    
C2    H1    S    
C62   H11   S    
C73   O31   D    
C60   H7    S    
C33   N2    Am   
O15   P7    S    
Ba1   O5    S    
O9    P5    S    
C12   C23   S    
C11   H33   S    
C34   O7    S    
Ba1   O8    S    
C12   H27   S    
C74   O32   D    
C72   H67   S    
C2    O25   S    
C61   C62   S    
Ba2   O12   S    
C51   H41   S    
C2    H13   S    
C18   C19   A    
C50   H44   S    
C24   C27   A    
C49   H43   S    
C71   C72   S    
C40   C41   A    
C25   C26   A    
C7    C73   S    
C54   C59   A    
C58   C59   A    
C49   C58   A    
C22   H40   S    
C3    H14   S    
Ba1   O22   S    
C43   H32   S    
C33   O19   D    
C76   H76   S    
