data_mof_unit_65130.cif
_audit_creation_date              2013-03-05T15:42:14-0500
_audit_creation_method            fapswitch 2.2
_symmetry_space_group_name_H-M    P1
_symmetry_Int_Tables_number       1
_space_group_crystal_system       triclinic
_cell_length_a                    33.440332
_cell_length_b                    33.440323
_cell_length_c                    33.44009
_cell_angle_alpha                 60.512508
_cell_angle_beta                  60.512792
_cell_angle_gamma                 60.511956
_cell_volume                      26748.1392208

loop_
_atom_site_label
_atom_site_type_symbol
_atom_site_description
_atom_site_fract_x
_atom_site_fract_y
_atom_site_fract_z
_atom_type_partial_charge
O1    O     O_R   0.004220 0.489210 0.937580 -0.549710
O2    O     O_R   0.995780 0.510790 0.062420 -0.542038
O3    O     O_R   0.489210 0.937580 0.004220 -0.549466
O4    O     O_R   0.510790 0.062420 0.995780 -0.541919
O5    O     O_R   0.937580 0.004220 0.489210 -0.549529
O6    O     O_R   0.062420 0.995780 0.510790 -0.542049
O7    O     O_R   0.062420 0.510790 0.995780 -0.554818
O8    O     O_R   0.937580 0.489210 0.004220 -0.549496
O9    O     O_R   0.995780 0.062420 0.510790 -0.554853
O10   O     O_R   0.004220 0.937580 0.489210 -0.549677
O11   O     O_R   0.510790 0.995780 0.062420 -0.555036
O12   O     O_R   0.489210 0.004220 0.937580 -0.549706
O13   O     O_R   0.937800 0.570650 0.004280 -0.566854
O14   O     O_R   0.062200 0.429350 0.995720 -0.572161
O15   O     O_R   0.570650 0.004280 0.937800 -0.566986
O16   O     O_R   0.429350 0.995720 0.062200 -0.572256
O17   O     O_R   0.004280 0.937800 0.570650 -0.566959
O18   O     O_R   0.995720 0.062200 0.429350 -0.572158
O19   O     O_R   0.995720 0.429350 0.062200 -0.562973
O20   O     O_R   0.004280 0.570650 0.937800 -0.565194
O21   O     O_R   0.062200 0.995720 0.429350 -0.562997
O22   O     O_R   0.937800 0.004280 0.570650 -0.565031
O23   O     O_R   0.429350 0.062200 0.995720 -0.562899
O24   O     O_R   0.570650 0.937800 0.004280 -0.564982
Cu1   Cu    Cu3+1 0.039320 0.500000 0.960680 1.150142
Cu2   Cu    Cu3+1 0.960680 0.500000 0.039320 1.162257
Cu3   Cu    Cu3+1 0.500000 0.960680 0.039320 1.150162
Cu4   Cu    Cu3+1 0.500000 0.039320 0.960680 1.162216
Cu5   Cu    Cu3+1 0.960680 0.039320 0.500000 1.150205
Cu6   Cu    Cu3+1 0.039320 0.960680 0.500000 1.162158
C1    C     C_R   0.961312 0.593530 0.961404 0.873962
C2    C     C_R   0.038614 0.406400 0.038508 0.878132
C3    C     C_R   0.593531 0.961406 0.961315 0.874218
C4    C     C_R   0.406402 0.038510 0.038615 0.878138
C5    C     C_R   0.961406 0.961314 0.593530 0.874251
C6    C     C_R   0.038509 0.038614 0.406400 0.878271
C7    C     C_R   0.038115 0.515928 0.038092 0.906400
C8    C     C_R   0.961791 0.484350 0.961783 0.911332
C9    C     C_R   0.515942 0.038085 0.038109 0.906050
C10   C     C_R   0.484382 0.961769 0.961775 0.911972
C11   C     C_R   0.038092 0.038116 0.515928 0.906366
C12   C     C_R   0.961771 0.961778 0.484377 0.911864
C13   C     C_R   0.870013 0.462269 0.797476 0.060136
C14   C     C_R   0.127363 0.545043 0.199099 0.046791
C15   C     C_R   0.462233 0.797482 0.870024 0.060107
C16   C     C_R   0.545022 0.199105 0.127369 0.046782
C17   C     C_R   0.797481 0.870022 0.462242 0.060113
C18   C     C_R   0.199099 0.127362 0.545043 0.046791
C19   C     C_R   0.202380 0.538288 0.129813 0.060449
C20   C     C_R   0.800755 0.455469 0.872510 0.046697
C21   C     C_R   0.129813 0.202380 0.538287 0.060450
C22   C     C_R   0.872519 0.800766 0.455442 0.046712
C23   C     C_R   0.538267 0.129819 0.202385 0.060461
C24   C     C_R   0.455434 0.872521 0.800769 0.046717
C25   C     C_R   0.875492 0.452614 0.871605 0.134985
C26   C     C_R   0.128197 0.547998 0.124333 0.135164
C27   C     C_R   0.452571 0.871607 0.875515 0.134950
C28   C     C_R   0.547973 0.124344 0.128201 0.135179
C29   C     C_R   0.871607 0.875511 0.452579 0.134956
C30   C     C_R   0.124333 0.128196 0.547998 0.135164
C31   C     C_R   0.820910 0.464705 0.821699 0.440749
C32   C     C_R   0.178168 0.535846 0.178915 0.441120
C33   C     C_R   0.464670 0.821710 0.820920 0.440760
C34   C     C_R   0.535825 0.178921 0.178175 0.441113
C35   C     C_R   0.821708 0.820919 0.464679 0.440755
C36   C     C_R   0.178915 0.178167 0.535845 0.441118
C37   C     C_R   0.829357 0.447555 0.897266 -0.074201
C38   C     C_R   0.177529 0.543135 0.103213 -0.101434
C39   C     C_R   0.447519 0.897273 0.829377 -0.074347
C40   C     C_R   0.543111 0.103222 0.177532 -0.101464
C41   C     C_R   0.897272 0.829374 0.447525 -0.074323
C42   C     C_R   0.103213 0.177528 0.543134 -0.101434
C43   C     C_R   0.102579 0.552978 0.170508 -0.072788
C44   C     C_R   0.896604 0.457487 0.822293 -0.099707
C45   C     C_R   0.170508 0.102577 0.552979 -0.072784
C46   C     C_R   0.822295 0.896619 0.457455 -0.099659
C47   C     C_R   0.552955 0.170517 0.102583 -0.072706
C48   C     C_R   0.457446 0.822295 0.896622 -0.099655
H1    H     H_    0.814436 0.440982 0.936074 0.197147
H2    H     H_    0.197078 0.541124 0.066682 0.178741
H3    H     H_    0.440949 0.936080 0.814458 0.197147
H4    H     H_    0.541102 0.066691 0.197081 0.178731
H5    H     H_    0.936079 0.814455 0.440953 0.197150
H6    H     H_    0.066683 0.197078 0.541122 0.178739
H7    H     H_    0.063782 0.559465 0.185494 0.197011
H8    H     H_    0.933126 0.459522 0.802746 0.179038
H9    H     H_    0.185494 0.063781 0.559466 0.197013
H10   H     H_    0.802744 0.933140 0.459492 0.179050
H11   H     H_    0.559443 0.185504 0.063787 0.197012
H12   H     H_    0.459483 0.802743 0.933143 0.179053
C49   C     C_R   0.901404 0.431510 0.729001 0.285008
C50   C     C_R   0.103149 0.569385 0.270771 0.290760
C51   C     C_R   0.431485 0.729001 0.901413 0.285029
C52   C     C_R   0.569370 0.270771 0.103158 0.290758
C53   C     C_R   0.729001 0.901413 0.431491 0.285025
C54   C     C_R   0.270771 0.103150 0.569384 0.290761
C55   C     C_R   0.270954 0.568994 0.098234 0.285020
C56   C     C_R   0.729238 0.430915 0.896702 0.290679
C57   C     C_R   0.098231 0.270953 0.568995 0.285021
C58   C     C_R   0.896711 0.729242 0.430897 0.290674
C59   C     C_R   0.568980 0.098238 0.270954 0.285010
C60   C     C_R   0.430891 0.896717 0.729241 0.290677
C61   C     C_R   0.923765 0.437036 0.679079 0.298986
C62   C     C_R   0.083084 0.560569 0.321521 0.292764
C63   C     C_R   0.437018 0.679077 0.923773 0.298970
C64   C     C_R   0.560559 0.321520 0.083091 0.292767
C65   C     C_R   0.679077 0.923773 0.437022 0.298970
C66   C     C_R   0.321521 0.083086 0.560568 0.292770
C67   C     C_R   0.320907 0.563362 0.075911 0.298608
C68   C     C_R   0.678509 0.439621 0.916774 0.292999
C69   C     C_R   0.075908 0.320907 0.563363 0.298599
C70   C     C_R   0.916778 0.678511 0.439611 0.293007
C71   C     C_R   0.563352 0.075914 0.320907 0.298613
C72   C     C_R   0.439607 0.916784 0.678510 0.293002
C73   C     C_R   0.939841 0.477222 0.645916 -0.299816
C74   C     C_R   0.056584 0.527723 0.352276 -0.300406
C75   C     C_R   0.477207 0.645918 0.939844 -0.299804
C76   C     C_R   0.527718 0.352277 0.056586 -0.300409
C77   C     C_R   0.645917 0.939843 0.477211 -0.299808
C78   C     C_R   0.352276 0.056584 0.527723 -0.300405
C79   C     C_R   0.354037 0.523019 0.060081 -0.299552
C80   C     C_R   0.647703 0.472329 0.943421 -0.300424
C81   C     C_R   0.060082 0.354037 0.523018 -0.299558
C82   C     C_R   0.943423 0.647706 0.472321 -0.300424
C83   C     C_R   0.523011 0.060083 0.354038 -0.299560
C84   C     C_R   0.472321 0.943423 0.647706 -0.300422
C85   C     C_R   0.932679 0.512287 0.662478 0.196002
C86   C     C_R   0.047012 0.507017 0.330974 0.213544
C87   C     C_R   0.512272 0.662483 0.932675 0.196012
C88   C     C_R   0.507011 0.330979 0.047011 0.213539
C89   C     C_R   0.662481 0.932673 0.512278 0.196010
C90   C     C_R   0.330974 0.047009 0.507020 0.213543
C91   C     C_R   0.337428 0.487887 0.067498 0.196100
C92   C     C_R   0.668932 0.492993 0.953123 0.213770
C93   C     C_R   0.067501 0.337428 0.487884 0.196096
C94   C     C_R   0.953129 0.668939 0.492979 0.213771
C95   C     C_R   0.487878 0.067498 0.337432 0.196094
C96   C     C_R   0.492982 0.953124 0.668941 0.213775
C97   C     C_R   0.908528 0.508248 0.711737 0.237337
C98   C     C_R   0.072131 0.510930 0.281674 0.236996
C99   C     C_R   0.508228 0.711743 0.908522 0.237291
C100  C     C_R   0.510917 0.281681 0.072132 0.236989
C101  C     C_R   0.711742 0.908522 0.508235 0.237305
C102  C     C_R   0.281674 0.072127 0.510933 0.236999
C103  C     C_R   0.288146 0.492010 0.091649 0.236870
C104  C     C_R   0.718166 0.489300 0.927908 0.236584
C105  C     C_R   0.091652 0.288146 0.492007 0.236878
C106  C     C_R   0.927919 0.718176 0.489277 0.236611
C107  C     C_R   0.491997 0.091650 0.288150 0.236892
C108  C     C_R   0.489276 0.927916 0.718179 0.236617
C109  C     C_R   0.893477 0.467498 0.745237 -0.193004
C110  C     C_R   0.100525 0.541886 0.251243 -0.184783
C111  C     C_R   0.467472 0.745241 0.893481 -0.192993
C112  C     C_R   0.541870 0.251248 0.100532 -0.184780
C113  C     C_R   0.745240 0.893480 0.467478 -0.192997
C114  C     C_R   0.251243 0.100523 0.541888 -0.184783
C115  C     C_R   0.254655 0.532957 0.106376 -0.192931
C116  C     C_R   0.748663 0.458458 0.899400 -0.185044
C117  C     C_R   0.106375 0.254655 0.532956 -0.192934
C118  C     C_R   0.899412 0.748672 0.458433 -0.185045
C119  C     C_R   0.532941 0.106379 0.254658 -0.192939
C120  C     C_R   0.458428 0.899414 0.748673 -0.185048
C121  C     C_R   0.900621 0.506385 0.880091 0.238856
C122  C     C_R   0.066924 0.579435 0.083816 0.245557
C123  C     C_R   0.506387 0.880107 0.900572 0.238917
C124  C     C_R   0.579419 0.083857 0.066901 0.245519
C125  C     C_R   0.880109 0.900576 0.506389 0.238907
C126  C     C_R   0.083816 0.066925 0.579434 0.245560
C127  C     C_R   0.120707 0.494646 0.097827 0.236386
C128  C     C_R   0.917199 0.420836 0.931870 0.244204
C129  C     C_R   0.097827 0.120706 0.494645 0.236383
C130  C     C_R   0.931828 0.917262 0.420823 0.244273
C131  C     C_R   0.494646 0.097792 0.120725 0.236348
C132  C     C_R   0.420822 0.931824 0.917270 0.244286
C133  C     C_R   0.920883 0.514289 0.902673 0.220090
C134  C     C_R   0.044641 0.571364 0.063068 0.212077
C135  C     C_R   0.514344 0.902712 0.920773 0.219857
C136  C     C_R   0.571360 0.063110 0.044608 0.212125
C137  C     C_R   0.902709 0.920788 0.514335 0.219900
C138  C     C_R   0.063068 0.044642 0.571364 0.212077
C139  C     C_R   0.098412 0.486822 0.077231 0.227936
C140  C     C_R   0.938017 0.428832 0.954119 0.216652
C141  C     C_R   0.077231 0.098411 0.486822 0.227937
C142  C     C_R   0.954061 0.938077 0.428840 0.216550
C143  C     C_R   0.486848 0.077169 0.098439 0.228078
C144  C     C_R   0.428843 0.954055 0.938084 0.216545
C145  C     C_R   0.939708 0.475621 0.939429 -0.326401
C146  C     C_R   0.060412 0.524916 0.060054 -0.326906
C147  C     C_R   0.475659 0.939412 0.939689 -0.326456
C148  C     C_R   0.524930 0.060047 0.060406 -0.326877
C149  C     C_R   0.939415 0.939693 0.475652 -0.326436
C150  C     C_R   0.060054 0.060413 0.524915 -0.326887
O25   O     O_R   0.569970 0.489460 0.004060 -0.533125
O26   O     O_R   0.430030 0.510540 0.995940 -0.541888
O27   O     O_R   0.489460 0.004060 0.569970 -0.533121
O28   O     O_R   0.510540 0.995940 0.430030 -0.541885
O29   O     O_R   0.004060 0.569970 0.489460 -0.533121
O30   O     O_R   0.995940 0.430030 0.510540 -0.541883
O31   O     O_R   0.995940 0.510540 0.430030 -0.533077
O32   O     O_R   0.004060 0.489460 0.569970 -0.541892
O33   O     O_R   0.430030 0.995940 0.510540 -0.533076
O34   O     O_R   0.569970 0.004060 0.489460 -0.541896
O35   O     O_R   0.510540 0.430030 0.995940 -0.533082
O36   O     O_R   0.489460 0.569970 0.004060 -0.541898
O37   O     O_R   0.488380 0.571220 0.937240 -0.560484
O38   O     O_R   0.511620 0.428780 0.062760 -0.547900
O39   O     O_R   0.571220 0.937240 0.488380 -0.560479
O40   O     O_R   0.428780 0.062760 0.511620 -0.547900
O41   O     O_R   0.937240 0.488380 0.571220 -0.560473
O42   O     O_R   0.062760 0.511620 0.428780 -0.547898
O43   O     O_R   0.062760 0.428780 0.511620 -0.560540
O44   O     O_R   0.937240 0.571220 0.488380 -0.548059
O45   O     O_R   0.511620 0.062760 0.428780 -0.560540
O46   O     O_R   0.488380 0.937240 0.571220 -0.548054
O47   O     O_R   0.428780 0.511620 0.062760 -0.560544
O48   O     O_R   0.571220 0.488380 0.937240 -0.548059
C151  C     C_R   0.898698 0.459627 0.894625 -0.215996
C152  C     C_R   0.105137 0.541032 0.101091 -0.214466
C153  C     C_R   0.459607 0.894614 0.898717 -0.216101
C154  C     C_R   0.541018 0.101098 0.105137 -0.214408
C155  C     C_R   0.894617 0.898713 0.459611 -0.216086
C156  C     C_R   0.101091 0.105137 0.541032 -0.214470
Cu7   Cu    Cu3+1 0.500680 0.500680 0.039070 1.223305
Cu8   Cu    Cu3+1 0.499320 0.499320 0.960930 1.223216
Cu9   Cu    Cu3+1 0.500680 0.039070 0.500680 1.223302
Cu10  Cu    Cu3+1 0.499320 0.960930 0.499320 1.223219
Cu11  Cu    Cu3+1 0.039070 0.500680 0.500680 1.223310
Cu12  Cu    Cu3+1 0.960930 0.499320 0.499320 1.223214
C157  C     C_R   0.484386 0.593509 0.961811 0.904851
C158  C     C_R   0.516277 0.406037 0.037720 0.893178
C159  C     C_R   0.593509 0.961810 0.484388 0.904856
C160  C     C_R   0.406037 0.037719 0.516278 0.893166
C161  C     C_R   0.961809 0.484393 0.593508 0.904840
C162  C     C_R   0.037719 0.516277 0.406037 0.893176
C163  C     C_R   0.038147 0.406473 0.515722 0.905262
C164  C     C_R   0.962294 0.593962 0.483702 0.892681
C165  C     C_R   0.515719 0.038148 0.406474 0.905251
C166  C     C_R   0.483702 0.962294 0.593962 0.892704
C167  C     C_R   0.406473 0.515722 0.038147 0.905253
C168  C     C_R   0.593961 0.483703 0.962294 0.892712
C169  C     C_R   0.796950 0.867604 0.866723 0.456019
C170  C     C_R   0.202067 0.131287 0.132360 0.453048
C171  C     C_R   0.867599 0.866726 0.796949 0.456022
C172  C     C_R   0.131292 0.132357 0.202061 0.453031
C173  C     C_R   0.866723 0.796952 0.867600 0.456020
C174  C     C_R   0.132360 0.202058 0.131284 0.453030
N1    N     N_R   0.821045 0.890043 0.820167 -0.277973
N2    N     N_R   0.177838 0.108997 0.178903 -0.277879
N3    N     N_R   0.890039 0.820170 0.821045 -0.277971
N4    N     N_R   0.108999 0.178897 0.177828 -0.277860
N5    N     N_R   0.820169 0.821050 0.890040 -0.277978
N6    N     N_R   0.178903 0.177829 0.108995 -0.277864
C175  C     C_R   0.712695 0.925670 0.863954 0.397281
C176  C     C_R   0.285772 0.071400 0.135816 0.394424
C177  C     C_R   0.925667 0.863955 0.712695 0.397298
C178  C     C_R   0.071354 0.135817 0.285753 0.394382
C179  C     C_R   0.863951 0.712702 0.925683 0.397292
C180  C     C_R   0.135817 0.285752 0.071353 0.394342
C181  C     C_R   0.117118 0.056812 0.273775 0.393465
C182  C     C_R   0.883658 0.942072 0.726401 0.396321
C183  C     C_R   0.273767 0.117079 0.056822 0.393466
C184  C     C_R   0.726403 0.883662 0.942070 0.396343
C185  C     C_R   0.056815 0.273770 0.117104 0.393515
C186  C     C_R   0.942073 0.726398 0.883646 0.396341
C187  C     C_R   0.663983 0.948548 0.887176 -0.133012
C188  C     C_R   0.334604 0.048749 0.112747 -0.132124
C189  C     C_R   0.948547 0.887176 0.663984 -0.132978
C190  C     C_R   0.048701 0.112747 0.334583 -0.132100
C191  C     C_R   0.887172 0.663990 0.948562 -0.132750
C192  C     C_R   0.112747 0.334583 0.048702 -0.132094
C193  C     C_R   0.095382 0.034366 0.323335 -0.134643
C194  C     C_R   0.905832 0.964789 0.677064 -0.140836
C195  C     C_R   0.323327 0.095346 0.034374 -0.134575
C196  C     C_R   0.677066 0.905834 0.964788 -0.140889
C197  C     C_R   0.034368 0.323332 0.095371 -0.134700
C198  C     C_R   0.964790 0.677060 0.905818 -0.140839
C199  C     C_R   0.645678 0.938492 0.937573 -0.138498
C200  C     C_R   0.353991 0.061048 0.062065 -0.167314
C201  C     C_R   0.938492 0.937572 0.645678 -0.138540
C202  C     C_R   0.061043 0.062062 0.353986 -0.167354
C203  C     C_R   0.937571 0.645678 0.938490 -0.138751
C204  C     C_R   0.062062 0.353985 0.061040 -0.167389
C205  C     C_R   0.745058 0.892794 0.891071 -0.082070
C206  C     C_R   0.254121 0.106090 0.108181 -0.085223
C207  C     C_R   0.892789 0.891072 0.745056 -0.082085
C208  C     C_R   0.106090 0.108177 0.254115 -0.085215
C209  C     C_R   0.891071 0.745059 0.892791 -0.082118
C210  C     C_R   0.108179 0.254112 0.106082 -0.085228
H13   H     H_    0.639804 0.973120 0.865841 0.210406
H14   H     H_    0.357987 0.022466 0.134626 0.233752
H15   H     H_    0.973120 0.865840 0.639805 0.210438
H16   H     H_    0.022379 0.134633 0.357952 0.233802
H17   H     H_    0.865834 0.639816 0.973147 0.210581
H18   H     H_    0.134632 0.357954 0.022386 0.233810
H19   H     H_    0.104688 0.995131 0.337754 0.229620
H20   H     H_    0.898226 0.003768 0.663380 0.207759
H21   H     H_    0.337736 0.104620 0.995142 0.229643
H22   H     H_    0.663382 0.898228 0.003768 0.207734
H23   H     H_    0.995132 0.337750 0.104673 0.229640
H24   H     H_    0.003771 0.663372 0.898201 0.207793
Cl1   Cl    Cl    0.783956 0.485169 0.787052 -0.434194
Cl2   Cl    Cl    0.212837 0.515413 0.215838 -0.433988
Cl3   Cl    Cl    0.485137 0.787067 0.783961 -0.434190
Cl4   Cl    Cl    0.515393 0.215842 0.212844 -0.433991
Cl5   Cl    Cl    0.787064 0.783961 0.485148 -0.434195
Cl6   Cl    Cl    0.215837 0.212836 0.515412 -0.433992
Cl7   Cl    Cl    0.729837 0.937502 0.801187 -0.397308
Cl8   Cl    Cl    0.267818 0.056690 0.199264 -0.396498
Cl9   Cl    Cl    0.937499 0.801188 0.729838 -0.397249
Cl10  Cl    Cl    0.056585 0.199275 0.267789 -0.396587
Cl11  Cl    Cl    0.801178 0.729850 0.937535 -0.397228
Cl12  Cl    Cl    0.199275 0.267789 0.056587 -0.396614
Cl13  Cl    Cl    0.156303 0.018497 0.237915 -0.407998
Cl14  Cl    Cl    0.846380 0.979309 0.763436 -0.414714
Cl15  Cl    Cl    0.237886 0.156211 0.018523 -0.407942
Cl16  Cl    Cl    0.763439 0.846386 0.979306 -0.414727
Cl17  Cl    Cl    0.018504 0.237907 0.156278 -0.407913
Cl18  Cl    Cl    0.979316 0.763425 0.846352 -0.414714
Cl19  Cl    Cl    0.934742 0.391748 0.658551 -0.393044
Cl20  Cl    Cl    0.085425 0.595845 0.345613 -0.390125
Cl21  Cl    Cl    0.391733 0.658543 0.934754 -0.393072
Cl22  Cl    Cl    0.595837 0.345607 0.085437 -0.390101
Cl23  Cl    Cl    0.658544 0.934755 0.391735 -0.393063
Cl24  Cl    Cl    0.345612 0.085432 0.595842 -0.390130
Cl25  Cl    Cl    0.341532 0.608677 0.064695 -0.393496
Cl26  Cl    Cl    0.654524 0.404357 0.914273 -0.389864
Cl27  Cl    Cl    0.064688 0.341531 0.608680 -0.393492
Cl28  Cl    Cl    0.914274 0.654519 0.404355 -0.389884
Cl29  Cl    Cl    0.608670 0.064698 0.341528 -0.393481
Cl30  Cl    Cl    0.404348 0.914286 0.654516 -0.389890
N7    N     N_R   0.947400 0.553877 0.628614 0.152831
O49   O     O_R   0.914610 0.596539 0.619435 -0.249800
O50   O     O_R   0.992772 0.550070 0.613421 -0.225216
N8    N     N_R   0.010043 0.484322 0.358056 0.183569
O51   O     O_R   0.964773 0.511262 0.371664 -0.239336
O52   O     O_R   0.019154 0.442682 0.356037 -0.152108
N9    N     N_R   0.553865 0.628621 0.947392 0.152850
O53   O     O_R   0.596523 0.619430 0.914600 -0.249845
O54   O     O_R   0.550066 0.613437 0.992761 -0.225213
N10   N     N_R   0.484323 0.358062 0.010034 0.183567
O55   O     O_R   0.511270 0.371665 0.964767 -0.239330
O56   O     O_R   0.442682 0.356050 0.019139 -0.152114
N11   N     N_R   0.628618 0.947387 0.553873 0.152843
O57   O     O_R   0.619432 0.914592 0.596530 -0.249821
O58   O     O_R   0.613428 0.992756 0.550075 -0.225221
N12   N     N_R   0.358056 0.010035 0.484329 0.183569
O59   O     O_R   0.371664 0.964767 0.511273 -0.239329
O60   O     O_R   0.356039 0.019142 0.442690 -0.152106
N13   N     N_R   0.371282 0.446160 0.053020 0.153025
O61   O     O_R   0.380669 0.403653 0.085958 -0.250765
O62   O     O_R   0.386451 0.449688 0.007738 -0.225121
N14   N     N_R   0.641902 0.515258 0.990433 0.183405
O63   O     O_R   0.628514 0.487962 0.035581 -0.239675
O64   O     O_R   0.643717 0.556864 0.981714 -0.151997
N15   N     N_R   0.053027 0.371283 0.446156 0.153022
O65   O     O_R   0.085967 0.380670 0.403650 -0.250756
O66   O     O_R   0.007745 0.386456 0.449679 -0.225127
N16   N     N_R   0.990439 0.641910 0.515244 0.183405
O67   O     O_R   0.035586 0.628517 0.487949 -0.239673
O68   O     O_R   0.981720 0.643729 0.556848 -0.151990
N17   N     N_R   0.446152 0.053020 0.371287 0.153014
O69   O     O_R   0.403644 0.085957 0.380670 -0.250747
O70   O     O_R   0.449682 0.007736 0.386461 -0.225122
N18   N     N_R   0.515257 0.990425 0.641911 0.183405
O71   O     O_R   0.487971 0.035576 0.628513 -0.239682
O72   O     O_R   0.556862 0.981696 0.643734 -0.151991
N19   N     N_R   0.887530 0.389074 0.763250 0.188152
O73   O     O_R   0.859890 0.377018 0.757138 -0.162644
O74   O     O_R   0.901641 0.362894 0.801261 -0.237471
N20   N     N_R   0.124730 0.607234 0.238879 0.188081
O75   O     O_R   0.113672 0.638016 0.199611 -0.233033
O76   O     O_R   0.156304 0.610495 0.248175 -0.160522
N21   N     N_R   0.389046 0.763246 0.887543 0.188157
O77   O     O_R   0.376990 0.757133 0.859903 -0.162657
O78   O     O_R   0.362864 0.801257 0.901654 -0.237462
N22   N     N_R   0.607217 0.238875 0.124742 0.188079
O79   O     O_R   0.637998 0.199607 0.113684 -0.233014
O80   O     O_R   0.610479 0.248170 0.156318 -0.160518
N23   N     N_R   0.763247 0.887544 0.389051 0.188156
O81   O     O_R   0.757135 0.859905 0.376994 -0.162656
O82   O     O_R   0.801256 0.901656 0.362871 -0.237463
N24   N     N_R   0.238878 0.124732 0.607233 0.188079
O83   O     O_R   0.199611 0.113674 0.638016 -0.233033
O84   O     O_R   0.248173 0.156308 0.610494 -0.160526
N25   N     N_R   0.236751 0.611541 0.111924 0.188239
O85   O     O_R   0.242875 0.623729 0.139452 -0.162841
O86   O     O_R   0.198723 0.637640 0.097839 -0.238125
N26   N     N_R   0.761215 0.393140 0.875033 0.188037
O87   O     O_R   0.800488 0.362386 0.886090 -0.233015
O88   O     O_R   0.751966 0.389890 0.843418 -0.160275
N27   N     N_R   0.111919 0.236750 0.611544 0.188237
O89   O     O_R   0.139445 0.242873 0.623735 -0.162844
O90   O     O_R   0.097834 0.198722 0.637641 -0.238128
N28   N     N_R   0.875043 0.761215 0.393121 0.188036
O91   O     O_R   0.886100 0.800487 0.362364 -0.233041
O92   O     O_R   0.843427 0.751965 0.389873 -0.160281
N29   N     N_R   0.611526 0.111929 0.236749 0.188235
O93   O     O_R   0.623716 0.139457 0.242872 -0.162832
O94   O     O_R   0.637623 0.097844 0.198721 -0.238131
N30   N     N_R   0.393112 0.875053 0.761213 0.188037
O95   O     O_R   0.362356 0.886111 0.800485 -0.233045
O96   O     O_R   0.389863 0.843440 0.751962 -0.160279
N31   N     N_R   0.897925 0.546469 0.727361 0.171050
O97   O     O_R   0.853196 0.568342 0.749724 -0.200717
O98   O     O_R   0.932011 0.562726 0.715075 -0.194284
N32   N     N_R   0.069608 0.482232 0.262815 0.155330
O99   O     O_R   0.029424 0.492098 0.257350 -0.256386
O100  O     O_R   0.105534 0.442686 0.256948 -0.183470
N33   N     N_R   0.546454 0.727368 0.897905 0.171063
O101  O     O_R   0.568314 0.749734 0.853171 -0.200706
O102  O     O_R   0.562744 0.715057 0.931974 -0.194173
N34   N     N_R   0.482218 0.262826 0.069606 0.155344
O103  O     O_R   0.492080 0.257368 0.029421 -0.256326
O104  O     O_R   0.442686 0.256933 0.105543 -0.183517
N35   N     N_R   0.727367 0.897907 0.546460 0.171063
O105  O     O_R   0.749735 0.853175 0.568321 -0.200710
O106  O     O_R   0.715059 0.931979 0.562745 -0.194202
N36   N     N_R   0.262816 0.069600 0.482237 0.155327
O107  O     O_R   0.257352 0.029415 0.492105 -0.256381
O108  O     O_R   0.256947 0.105525 0.442690 -0.183472
N37   N     N_R   0.272514 0.453631 0.102682 0.171463
O109  O     O_R   0.250056 0.432099 0.147523 -0.201024
O110  O     O_R   0.285326 0.436570 0.069024 -0.191158
N38   N     N_R   0.736846 0.518185 0.930375 0.155690
O111  O     O_R   0.742837 0.508033 0.970368 -0.257730
O112  O     O_R   0.740994 0.558597 0.895139 -0.179700
N39   N     N_R   0.102686 0.272514 0.453627 0.171466
O113  O     O_R   0.147528 0.250053 0.432099 -0.201024
O114  O     O_R   0.069031 0.285329 0.436563 -0.191155
N40   N     N_R   0.930390 0.736861 0.518155 0.155660
O115  O     O_R   0.970383 0.742858 0.507992 -0.257815
O116  O     O_R   0.895175 0.740976 0.558587 -0.179657
N41   N     N_R   0.453619 0.102677 0.272519 0.171460
O117  O     O_R   0.432082 0.147517 0.250063 -0.201023
O118  O     O_R   0.436571 0.069013 0.285322 -0.191191
N42   N     N_R   0.518154 0.930383 0.736866 0.155653
O119  O     O_R   0.507995 0.970377 0.742861 -0.257832
O120  O     O_R   0.558583 0.895164 0.740985 -0.179663
N43   N     N_R   0.919798 0.562477 0.890016 0.142554
O121  O     O_R   0.878445 0.597789 0.895085 -0.244953
O122  O     O_R   0.960157 0.571851 0.870396 -0.296304
N44   N     N_R   0.008011 0.611108 0.042551 0.146576
O123  O     O_R   0.965471 0.607965 0.056836 -0.298343
O124  O     O_R   0.016598 0.651273 0.010594 -0.247581
N45   N     N_R   0.562584 0.890135 0.919526 0.142472
O125  O     O_R   0.597953 0.894546 0.878198 -0.243095
O126  O     O_R   0.571967 0.871091 0.959784 -0.298025
N46   N     N_R   0.611102 0.042636 0.007947 0.146583
O127  O     O_R   0.607929 0.056931 0.965418 -0.298262
O128  O     O_R   0.651290 0.010704 0.016497 -0.247574
N47   N     N_R   0.890121 0.919567 0.562567 0.142486
O129  O     O_R   0.894652 0.878232 0.597925 -0.243421
O130  O     O_R   0.870978 0.959841 0.571950 -0.297753
N48   N     N_R   0.042550 0.008014 0.611108 0.146564
O131  O     O_R   0.056834 0.965473 0.607966 -0.298360
O132  O     O_R   0.010593 0.016602 0.651273 -0.247593
N49   N     N_R   0.113085 0.439268 0.075728 0.143772
O133  O     O_R   0.108163 0.402689 0.115939 -0.243944
O134  O     O_R   0.135699 0.431615 0.034206 -0.310702
N50   N     N_R   0.959490 0.388854 0.989955 0.148248
O135  O     O_R   0.945284 0.391051 0.032904 -0.321102
O136  O     O_R   0.991979 0.349294 0.980365 -0.244281
N51   N     N_R   0.075730 0.113083 0.439267 0.143772
O137  O     O_R   0.115940 0.108164 0.402688 -0.243937
O138  O     O_R   0.034208 0.135692 0.431614 -0.310726
N52   N     N_R   0.989850 0.959614 0.388860 0.148230
O139  O     O_R   0.032819 0.945413 0.391008 -0.321216
O140  O     O_R   0.980200 0.992147 0.349342 -0.244299
N53   N     N_R   0.439324 0.075584 0.113152 0.143746
O141  O     O_R   0.402769 0.115782 0.107911 -0.244836
O142  O     O_R   0.431669 0.034049 0.136045 -0.309875
N54   N     N_R   0.388865 0.989842 0.959625 0.148216
O143  O     O_R   0.391007 0.032815 0.945416 -0.321246
O144  O     O_R   0.349352 0.980187 0.992167 -0.244316
N55   N     N_R   0.881663 0.546297 0.842501 0.176621
O145  O     O_R   0.836968 0.558168 0.846209 -0.209554
O146  O     O_R   0.907242 0.573997 0.807199 -0.181300
N56   N     N_R   0.050273 0.626424 0.087803 0.172776
O147  O     O_R   0.081253 0.647027 0.074508 -0.242722
O148  O     O_R   0.003967 0.648801 0.104863 -0.208769
N57   N     N_R   0.546258 0.842479 0.881651 0.176694
O149  O     O_R   0.558165 0.846189 0.836947 -0.209394
O150  O     O_R   0.573888 0.807127 0.907284 -0.181522
N58   N     N_R   0.626393 0.087882 0.050235 0.172739
O151  O     O_R   0.647014 0.074583 0.081203 -0.242715
O152  O     O_R   0.648740 0.104982 0.003927 -0.208780
N59   N     N_R   0.842491 0.881644 0.546267 0.176686
O153  O     O_R   0.846203 0.836942 0.558164 -0.209432
O154  O     O_R   0.807148 0.907265 0.573912 -0.181486
N60   N     N_R   0.087802 0.050274 0.626424 0.172778
O155  O     O_R   0.074508 0.081255 0.647027 -0.242721
O156  O     O_R   0.104862 0.003968 0.648802 -0.208763
N61   N     N_R   0.158807 0.454926 0.116105 0.173995
O157  O     O_R   0.154980 0.441971 0.161071 -0.208564
O158  O     O_R   0.194454 0.428121 0.089753 -0.180773
N62   N     N_R   0.914325 0.373528 0.947628 0.173451
O159  O     O_R   0.927636 0.353712 0.915983 -0.243329
O160  O     O_R   0.898211 0.350092 0.993787 -0.208277
N63   N     N_R   0.116105 0.158805 0.454926 0.173995
O161  O     O_R   0.161071 0.154978 0.441970 -0.208561
O162  O     O_R   0.089753 0.194453 0.428121 -0.180783
N64   N     N_R   0.947562 0.914447 0.373493 0.173503
O163  O     O_R   0.915899 0.927752 0.353701 -0.243340
O164  O     O_R   0.993718 0.898393 0.350014 -0.208255
N65   N     N_R   0.454908 0.116083 0.158810 0.173949
O165  O     O_R   0.441964 0.161047 0.154982 -0.208635
O166  O     O_R   0.428076 0.089752 0.194438 -0.180642
N66   N     N_R   0.373488 0.947558 0.914462 0.173511
O167  O     O_R   0.353697 0.915895 0.927767 -0.243343
O168  O     O_R   0.350005 0.993714 0.898414 -0.208248

loop_
_geom_bond_atom_site_label_1
_geom_bond_atom_site_label_2
_geom_bond_distance
_ccdc_geom_bond_type
C90   C102  1.404695 A    
N39   O113  1.300674 A    
O22   Cu5   1.979340 S    
C66   Cl24  1.770694 S    
C136  N46   1.436823 S    
N49   O133  1.300958 A    
C66   C78   1.413630 A    
O27   C166  1.281006 A    
Cu7   Cu8   2.658565 S    
O24   Cu3   1.979341 S    
C130  N64   1.438338 S    
C99   N33   1.435691 S    
C26   C152  1.482590 S    
N9    O53   1.300782 A    
C54   N24   1.439738 S    
C143  C148  1.404174 A    
N53   O141  1.301248 A    
C188  C200  1.398720 A    
C47   H11   1.082245 S    
C58   N28   1.439700 S    
C56   C68   1.413596 A    
C129  C141  1.404832 A    
N31   O98   1.301015 A    
C17   C46   1.400299 A    
C70   C82   1.413536 A    
N29   O94   1.301163 A    
C23   C34   1.408060 A    
C24   C33   1.413350 A    
C30   C42   1.395934 A    
C59   C71   1.408618 A    
O11   C9    1.289104 A    
C106  C118  1.409955 A    
C197  C204  1.398496 A    
C130  C155  1.412252 A    
C129  N63   1.436129 S    
C62   C74   1.413634 A    
C25   C44   1.395275 A    
C94   N16   1.438645 S    
C70   Cl28  1.770660 S    
O33   C160  1.281125 A    
N63   O162  1.300981 A    
C137  C149  1.405479 A    
C173  N5    1.358777 A    
C15   C48   1.400301 A    
C19   C32   1.408069 A    
C190  H16   1.082956 S    
C98   C110  1.410009 A    
C191  H17   1.083810 S    
C77   C159  1.469944 S    
C127  C152  1.415901 A    
C178  C190  1.397421 A    
C64   Cl22  1.770692 S    
C64   C76   1.413628 A    
C187  H13   1.083811 S    
O17   Cu6   1.979341 S    
C132  N66   1.438341 S    
O8    C8    1.289262 A    
C169  C205  1.492968 S    
O19   C2    1.292366 A    
C170  C206  1.494978 S    
O29   C164  1.281006 A    
C143  N53   1.434571 S    
C134  C146  1.412865 A    
O34   Cu9   1.945829 S    
C184  C196  1.401857 A    
N64   O164  1.301201 A    
C183  Cl15  1.763361 S    
N51   O137  1.300957 A    
C184  Cl16  1.763075 S    
C37   H1    1.082183 S    
N10   O55   1.301201 A    
C124  N58   1.438294 S    
C126  C156  1.413021 A    
C28   C40   1.395927 A    
C79   C167  1.470046 S    
C108  C120  1.409956 A    
C21   C36   1.408065 A    
O12   C10   1.289252 A    
O48   Cu8   2.021535 S    
C52   C64   1.413636 A    
C60   C72   1.413616 A    
N55   O146  1.301060 A    
C183  C206  1.421928 A    
C103  C115  1.408152 A    
O10   Cu6   1.920560 S    
C184  C205  1.420703 A    
O11   Cu3   1.920553 S    
N58   O152  1.301201 A    
N14   O63   1.301217 A    
C142  C149  1.412717 A    
N59   O154  1.301055 A    
C103  N37   1.435605 S    
O32   C161  1.286123 A    
C97   N31   1.435703 S    
C42   H6    1.084257 S    
O40   C160  1.298389 A    
C93   C105  1.401017 A    
N30   O96   1.301242 A    
O6    Cu6   1.920560 S    
N50   O136  1.301128 A    
N61   O158  1.300982 A    
N32   O100  1.299979 A    
C91   C103  1.401017 A    
N60   O155  1.301284 A    
C84   C166  1.489826 S    
C58   C118  1.416635 A    
C14   C110  1.492838 S    
C89   C101  1.400919 A    
N42   O119  1.301475 A    
C13   C31   1.408140 A    
C177  C207  1.419668 A    
C176  C188  1.397427 A    
C26   C43   1.398677 A    
O37   Cu8   2.021525 S    
C169  N1    1.358778 A    
C59   N29   1.437290 S    
C27   C48   1.395275 A    
C49   C61   1.408414 A    
C16   C47   1.408984 A    
C44   H8    1.084259 S    
O9    C11   1.289105 A    
C195  C200  1.398496 A    
C92   C104  1.404469 A    
C14   C32   1.413370 A    
N46   O127  1.300654 A    
C51   C111  1.414499 A    
C127  N61   1.436130 S    
C36   Cl6   1.770367 S    
C67   C79   1.407790 A    
C54   C114  1.416587 A    
C177  Cl9   1.764077 S    
C65   Cl23  1.768514 S    
O43   C163  1.282671 A    
O35   Cu8   1.945831 S    
N45   O125  1.300967 A    
C40   H4    1.084257 S    
N40   O116  1.299979 A    
N28   O91   1.301225 A    
C50   C62   1.413647 A    
C82   C164  1.489821 S    
C178  Cl10  1.764456 S    
N52   O139  1.300605 A    
N33   O101  1.300679 A    
C22   C35   1.413348 A    
C175  C205  1.419670 A    
O34   C159  1.286122 A    
N25   O86   1.301165 A    
C176  C206  1.420810 A    
C22   C118  1.492717 S    
C172  C208  1.495025 S    
N13   O61   1.300778 A    
C57   C117  1.414557 A    
C173  C209  1.492983 S    
C123  C135  1.405752 A    
O37   C157  1.282731 A    
C169  N5    1.358450 A    
C121  C133  1.405590 A    
C78   C160  1.490055 S    
C107  N41   1.435608 S    
N20   O75   1.301233 A    
C57   N27   1.437292 S    
C20   C116  1.492682 S    
N39   O114  1.300994 A    
C131  C143  1.404764 A    
C186  C198  1.401853 A    
C86   N8    1.438540 S    
N34   O103  1.301482 A    
O46   C166  1.298403 A    
O30   C163  1.286270 A    
N43   O122  1.300975 A    
C69   Cl27  1.768435 S    
C72   C84   1.413540 A    
C98   N32   1.433060 S    
C133  N43   1.436402 S    
N18   O71   1.301218 A    
C126  N60   1.438294 S    
C131  C154  1.415939 A    
C104  N38   1.432870 S    
C80   C92   1.420292 A    
C28   C47   1.398671 A    
O16   C4    1.289272 A    
C28   C154  1.482580 S    
C80   C168  1.489787 S    
C105  N39   1.435602 S    
N26   O87   1.301225 A    
C175  Cl7   1.764078 S    
C77   C89   1.404016 A    
N35   O106  1.301013 A    
C176  Cl8   1.764455 S    
N48   O131  1.300652 A    
O41   Cu12  2.021521 S    
C75   C87   1.404007 A    
O31   Cu12  1.945829 S    
C88   N10   1.438536 S    
C102  N36   1.433059 S    
O16   Cu3   1.979336 S    
C57   C69   1.408621 A    
C128  C140  1.413708 A    
C19   C115  1.477777 S    
N58   O151  1.301287 A    
O44   C164  1.298407 A    
N22   O80   1.301247 A    
C41   H5    1.082180 S    
O28   C165  1.286267 A    
C172  N4    1.358470 A    
N65   O166  1.300978 A    
O27   Cu9   1.945831 S    
C95   N17   1.425959 S    
O48   C168  1.298388 A    
C122  N56   1.438297 S    
N54   O143  1.300605 A    
N8    O51   1.301201 A    
Cu1   Cu2   2.650094 S    
C26   C38   1.395933 A    
C50   N20   1.439739 S    
C170  N2    1.358464 A    
C20   C37   1.408848 A    
C81   C93   1.403619 A    
C102  C114  1.410012 A    
C181  C208  1.421949 A    
N56   O148  1.301201 A    
C72   Cl30  1.770657 S    
Cu5   Cu6   2.650071 S    
C192  H18   1.082958 S    
C55   C67   1.408624 A    
O39   Cu10  2.021529 S    
N12   O60   1.300356 A    
O23   C4    1.292350 A    
C43   H7    1.082244 S    
N62   O160  1.301208 A    
N57   O149  1.299521 A    
O7    C7    1.289109 A    
C178  C208  1.420831 A    
C188  H14   1.082966 S    
O18   Cu5   1.979341 S    
O23   Cu4   1.979341 S    
C192  C204  1.398717 A    
N16   O68   1.300318 A    
C193  H19   1.083406 S    
C94   C106  1.404480 A    
C35   Cl5   1.770357 S    
C121  C151  1.416093 A    
C45   H9    1.082244 S    
N38   O111  1.301472 A    
N15   O66   1.300400 A    
C185  C197  1.401755 A    
N11   O58   1.300405 A    
O36   Cu7   1.945832 S    
O13   Cu2   1.979332 S    
C179  C191  1.398019 A    
C181  C193  1.401750 A    
C49   N19   1.437277 S    
N27   O90   1.301164 A    
N15   O65   1.300779 A    
C173  N3    1.358455 A    
C96   N18   1.438643 S    
N30   O95   1.301225 A    
C144  N54   1.436614 S    
O35   C158  1.281115 A    
C104  C116  1.409951 A    
O47   C167  1.282664 A    
C90   N12   1.438540 S    
C170  N6    1.358155 A    
O3    Cu3   1.920551 S    
C86   C98   1.404697 A    
N29   O93   1.300997 A    
C99   C111  1.408024 A    
C177  C189  1.398022 A    
C75   C157  1.469942 S    
C4    C200  1.477521 S    
N56   O147  1.301284 A    
C88   C100  1.404689 A    
C195  H21   1.083405 S    
C135  N45   1.436705 S    
C123  C153  1.416027 A    
C133  C145  1.405276 A    
N47   O129  1.301066 A    
C182  Cl14  1.763074 S    
N59   O153  1.299530 A    
C20   C31   1.413337 A    
C100  C112  1.410010 A    
C18   C36   1.413370 A    
N44   O123  1.300654 A    
N44   O124  1.301148 A    
C29   C46   1.395275 A    
C106  N40   1.432859 S    
N66   O167  1.301281 A    
C125  C137  1.405724 A    
O5    C12   1.289052 A    
N24   O83   1.301234 A    
C171  N3    1.358780 A    
C19   C38   1.400449 A    
O10   C12   1.289251 A    
C196  C199  1.398588 A    
N34   O104  1.299976 A    
C191  C203  1.398951 A    
C141  C150  1.404281 A    
N23   O81   1.300994 A    
C25   C151  1.481482 S    
C48   H12   1.084261 S    
N17   O70   1.300400 A    
N37   O109  1.300672 A    
C93   N15   1.425961 S    
O12   Cu4   1.920558 S    
N66   O168  1.301202 A    
N10   O56   1.300359 A    
N21   O78   1.301162 A    
C136  C148  1.412841 A    
C87   C99   1.400915 A    
O20   Cu1   1.979326 S    
O36   C157  1.286125 A    
O19   Cu2   1.979332 S    
C128  N62   1.438337 S    
C6    C202  1.477560 S    
C198  H24   1.083584 S    
C174  C210  1.495028 S    
C12   C149  1.469650 S    
C139  N49   1.434690 S    
C10   C147  1.469656 S    
C56   C116  1.416628 A    
C197  H23   1.083406 S    
N41   O118  1.300994 A    
N14   O64   1.300317 A    
C134  N44   1.436821 S    
C124  C136  1.414468 A    
C67   Cl25  1.768436 S    
C128  C151  1.412327 A    
C18   C114  1.492837 S    
C55   N25   1.437295 S    
N61   O157  1.299575 A    
C63   Cl21  1.768510 S    
N49   O134  1.300359 A    
C63   C75   1.407782 A    
N60   O156  1.301199 A    
C2    C204  1.477557 S    
C23   C40   1.400449 A    
C65   C77   1.407776 A    
N9    O54   1.300405 A    
C139  C146  1.404277 A    
N42   O120  1.299985 A    
N53   O142  1.300405 A    
O33   Cu10  1.945824 S    
C16   C112  1.492820 S    
C61   Cl19  1.768513 S    
C82   C94   1.420296 A    
C87   N9    1.426082 S    
C32   Cl2   1.770366 S    
C138  N48   1.436823 S    
C174  N6    1.358459 A    
C142  N52   1.436615 S    
C83   C95   1.403627 A    
C69   C81   1.407785 A    
C172  N2    1.358161 A    
C121  N55   1.436358 S    
C182  C194  1.401853 A    
C61   C73   1.407779 A    
N43   O121  1.301578 A    
O25   C168  1.280995 A    
C76   C88   1.420405 A    
C141  N51   1.434694 S    
C60   C120  1.416636 A    
N19   O74   1.301161 A    
C137  N47   1.436653 S    
C127  C139  1.404830 A    
N28   O92   1.301243 A    
O1    C8    1.289042 A    
C171  C207  1.492972 S    
C81   C163  1.470037 S    
C181  Cl13  1.763364 S    
C193  C202  1.398497 A    
O3    C10   1.289058 A    
C58   C70   1.413613 A    
N52   O140  1.301117 A    
C107  C119  1.408148 A    
C21   C42   1.400449 A    
C89   N11   1.426082 S    
C124  C154  1.413056 A    
C73   C161  1.469958 S    
C13   C109  1.477417 S    
N25   O85   1.300996 A    
C122  C152  1.413022 A    
N64   O163  1.301282 A    
C185  C210  1.421948 A    
C1    C203  1.476104 S    
C52   N22   1.439737 S    
O13   C1    1.289109 A    
N36   O108  1.299977 A    
O14   C2    1.289282 A    
C30   C156  1.482590 S    
N20   O76   1.301250 A    
C186  Cl18  1.763076 S    
O21   Cu6   1.979339 S    
C190  C202  1.398718 A    
C30   C45   1.398677 A    
O24   C3    1.291783 A    
O7    Cu1   1.920554 S    
C101  C113  1.408021 A    
C144  C147  1.412724 A    
C189  H15   1.083810 S    
C22   C41   1.408870 A    
C126  C138  1.414471 A    
C68   C80   1.413529 A    
C23   C119  1.477758 S    
C187  C199  1.398953 A    
O15   Cu4   1.979336 S    
C24   C39   1.408868 A    
C51   N21   1.437275 S    
C189  C201  1.398949 A    
C125  N59   1.436307 S    
N18   O72   1.300321 A    
C122  C134  1.414469 A    
O42   C162  1.298377 A    
O14   Cu1   1.979333 S    
C14   C43   1.408994 A    
C180  C192  1.397416 A    
C39   H3    1.082182 S    
O44   Cu12  2.021526 S    
O25   Cu7   1.945841 S    
C71   C83   1.407787 A    
N50   O135  1.300607 A    
N26   O88   1.301242 A    
C198  C203  1.398584 A    
N32   O99   1.301479 A    
N48   O132  1.301147 A    
C132  C153  1.412243 A    
O17   C5    1.289096 A    
C131  N65   1.436162 S    
O18   C6    1.289276 A    
O32   Cu11  1.945835 S    
N63   O161  1.299577 A    
N46   O128  1.301148 A    
C34   Cl4   1.770366 S    
N47   O130  1.300601 A    
C38   H2    1.084259 S    
C91   N13   1.425958 S    
N11   O57   1.300783 A    
C33   Cl3   1.770359 S    
O38   C158  1.298376 A    
O42   Cu11  2.021521 S    
N31   O97   1.300677 A    
N7    O49   1.300783 A    
C105  C117  1.408154 A    
C123  N57   1.436296 S    
N27   O89   1.301000 A    
O21   C6    1.292360 A    
C3    C199  1.476098 S    
C96   C108  1.404488 A    
O22   C5    1.291776 A    
N65   O165  1.299572 A    
C5    C201  1.476101 S    
C108  N42   1.432856 S    
N54   O144  1.301118 A    
O45   C165  1.282671 A    
C196  H22   1.083585 S    
N8    O52   1.300355 A    
N23   O82   1.301164 A    
C7    C146  1.470612 S    
C183  C195  1.401745 A    
C68   Cl26  1.770664 S    
C53   N23   1.437275 S    
C8    C145  1.469599 S    
C179  C209  1.419679 A    
C73   C85   1.404036 A    
C180  C210  1.420833 A    
C97   C109  1.408014 A    
N45   O126  1.300552 A    
N40   O115  1.301471 A    
C185  Cl17  1.763359 S    
C29   C155  1.481503 S    
C51   C63   1.408417 A    
C31   Cl1   1.770358 S    
C125  C155  1.416035 A    
Cu11  Cu12  2.658584 S    
O6    C11   1.289808 A    
C50   C110  1.416582 A    
O26   C167  1.286266 A    
N33   O102  1.301013 A    
C46   H10   1.084259 S    
C92   N14   1.438646 S    
C182  C207  1.420701 A    
O9    Cu5   1.920560 S    
C13   C44   1.400308 A    
N38   O112  1.299973 A    
N13   O62   1.300398 A    
O43   Cu11  2.021519 S    
C17   C35   1.408144 A    
O1    Cu1   1.920554 S    
C18   C45   1.408998 A    
C95   C107  1.401013 A    
C85   C97   1.400919 A    
O4    Cu4   1.920554 S    
O5    Cu5   1.920561 S    
O8    Cu2   1.920551 S    
O28   Cu10  1.945824 S    
C135  C147  1.405526 A    
C62   Cl20  1.770694 S    
C83   C165  1.470038 S    
O45   Cu9   2.021519 S    
O2    Cu2   1.920553 S    
C138  C150  1.412864 A    
O31   C162  1.281130 A    
N55   O145  1.299526 A    
C9    C148  1.470567 S    
C27   C153  1.481507 S    
C100  N34   1.433063 S    
C15   C33   1.408145 A    
C16   C34   1.413364 A    
C55   C115  1.414555 A    
C71   Cl29  1.768437 S    
O40   Cu9   2.021525 S    
N19   O73   1.300998 A    
C130  C142  1.413691 A    
N35   O105  1.300678 A    
O4    C9    1.289802 A    
O38   Cu7   2.021529 S    
C52   C112  1.416582 A    
Cu9   Cu10  2.658585 S    
C56   N26   1.439695 S    
C24   C120  1.492722 S    
C101  N35   1.435694 S    
N7    O50   1.300405 A    
C53   C65   1.408417 A    
C140  N50   1.436623 S    
O29   Cu11  1.945825 S    
C194  H20   1.083586 S    
C194  C201  1.398586 A    
C74   C162  1.490054 S    
C129  C156  1.415900 A    
N22   O79   1.301234 A    
O26   Cu8   1.945839 S    
N36   O107  1.301481 A    
C174  N4    1.358160 A    
C84   C96   1.420297 A    
N24   O84   1.301250 A    
C11   C150  1.470615 S    
C78   C90   1.420402 A    
C186  C209  1.420707 A    
C85   N7    1.426085 S    
O47   Cu7   2.021530 S    
C25   C37   1.398500 A    
N17   O69   1.300779 A    
C171  N1    1.358454 A    
C79   C91   1.403616 A    
C59   C119  1.414552 A    
C179  Cl11  1.764081 S    
C180  Cl12  1.764461 S    
N21   O77   1.300999 A    
C132  C144  1.413680 A    
C49   C109  1.414499 A    
O2    C7    1.289814 A    
O39   C159  1.282742 A    
N12   O59   1.301201 A    
C17   C113  1.477418 S    
C76   C158  1.490037 S    
C21   C117  1.477770 S    
N62   O159  1.301283 A    
N57   O150  1.301055 A    
C175  C187  1.398018 A    
C53   C113  1.414499 A    
C140  C145  1.412681 A    
N16   O67   1.301218 A    
O46   Cu10  2.021519 S    
O41   C161  1.282754 A    
C15   C111  1.477420 S    
N37   O110  1.300998 A    
N41   O117  1.300672 A    
C74   C86   1.420400 A    
O30   Cu12  1.945821 S    
Cu3   Cu4   2.650083 S    
N51   O138  1.300355 A    
C54   C66   1.413648 A    
C60   N30   1.439696 S    
C27   C39   1.398518 A    
O15   C3    1.289093 A    
C29   C41   1.398516 A    
O20   C1    1.291780 A    
