data_mof_unit_8217.cif
_audit_creation_date              2012-12-10T17:25:29-0500
_audit_creation_method            fapswitch 2.2
_symmetry_space_group_name_H-M    P1
_symmetry_Int_Tables_number       1
_space_group_crystal_system       triclinic
_cell_length_a                    10.15524
_cell_length_b                    10.80687
_cell_length_c                    23.328254
_cell_angle_alpha                 90.23545
_cell_angle_beta                  80.469244
_cell_angle_gamma                 96.706066
_cell_volume                      2507.27494587

loop_
_atom_site_label
_atom_site_type_symbol
_atom_type_description
_atom_site_fract_x
_atom_site_fract_y
_atom_site_fract_z
_atom_type_partial_charge
C1    C     C_R   0.557388 0.732689 0.497541 0.939481
C2    C     C_R   0.398391 0.494788 0.300646 -0.362191
C3    C     C_R   0.653897 0.548006 0.746200 0.455958
C4    C     C_R   0.408743 0.501333 0.240456 0.463087
C5    C     C_R   0.539368 0.535023 0.789395 0.107628
C6    C     C_R   0.536132 0.528080 0.205844 0.059242
C7    C     C_2   0.591556 0.865542 0.492332 -0.487393
C8    C     C_2   0.408262 0.134555 0.507817 -0.490032
C9    C     C_2   0.497697 0.938842 0.513368 0.424156
C10   C     C_2   0.501853 0.061125 0.486679 0.421999
C11   C     C_2   0.928596 0.514811 0.502845 0.346618
C12   C     C_R   0.442588 0.267339 0.502520 0.950033
C13   C     C_2   0.070909 0.484491 0.497710 0.352226
C14   C     C_R   0.499882 0.500163 0.610915 0.898066
C15   C     C_R   0.502694 0.505968 0.389296 0.903969
C16   C     C_R   0.525012 0.413410 0.117571 0.633315
C17   C     C_R   0.608154 0.635679 0.873771 0.650850
C18   C     C_R   0.595773 0.632185 0.112706 0.607095
C19   C     C_R   0.526358 0.418911 0.878190 0.636870
C20   C     C_R   0.625909 0.629803 0.051979 -0.187944
C21   C     C_R   0.547703 0.409104 0.935910 -0.193759
C22   C     C_R   0.591139 0.517712 0.023876 -0.132915
C23   C     C_R   0.408964 0.516231 0.775545 0.427638
C24   C     C_R   0.592630 0.518985 0.963479 -0.134611
C25   C     C_R   0.546785 0.406378 0.056549 -0.201623
C26   C     C_R   0.630130 0.632261 0.931541 -0.196704
C27   C     C_R   0.686529 0.736530 0.018516 0.403064
C28   C     C_R   0.522276 0.294080 0.967256 0.402530
C29   C     C_R   0.686756 0.738504 0.958509 0.396807
C30   C     C_R   0.523293 0.292617 0.027308 0.405093
C31   C     C_3   0.867936 0.820285 0.058038 0.119078
C32   C     C_3   0.950911 0.944771 0.064157 -0.796956
C33   C     C_3   0.593236 0.134631 0.909745 0.118175
C34   C     C_R   0.651341 0.558749 0.231237 0.426462
C35   C     C_3   0.543932 0.029602 0.872120 -0.601574
C36   C     C_3   0.870094 0.843799 0.902285 0.152889
C37   C     C_3   0.914537 0.950518 0.858477 -0.812103
C38   C     C_3   0.601458 0.134491 0.071909 0.111843
C39   C     C_3   0.557069 0.029326 0.116544 -0.590306
C40   C     C_3   0.884859 0.618407 0.720945 0.123977
C41   C     C_3   0.005890 0.664492 0.749047 -0.766786
C42   C     C_3   0.241538 0.581078 0.204692 0.081514
C43   C     C_3   0.132797 0.551327 0.167414 -0.754429
C44   C     C_3   0.581536 0.069215 0.388534 0.063609
C45   C     C_R   0.391916 0.499150 0.717182 0.286036
C46   C     C_3   0.552188 0.181920 0.355847 -0.764526
C47   C     C_3   0.415345 0.931598 0.611325 0.062332
C48   C     C_3   0.442104 0.819335 0.645003 -0.782421
C49   C     C_3   0.066983 0.273382 0.491169 0.109679
C50   C     C_3   0.106334 0.168379 0.450582 -0.793616
C51   C     C_3   0.930314 0.725592 0.511761 0.119350
C52   C     C_3   0.888304 0.827831 0.553528 -0.830109
C53   C     C_R   0.638597 0.564444 0.291921 0.302880
C54   C     C_R   0.506978 0.509986 0.673204 -0.243892
C55   C     C_R   0.512711 0.523594 0.326615 -0.280998
C56   C     C_R   0.635703 0.534857 0.688234 -0.419702
H1    H     H_    0.123036 0.614394 0.553833 0.163446
H2    H     H_    0.050021 0.929005 0.075129 0.225533
H3    H     H_    0.967271 0.998863 0.022697 0.254904
H4    H     H_    0.653389 0.096088 0.939375 0.151226
H5    H     H_    0.660440 0.205664 0.880754 0.129408
H6    H     H_    0.477773 0.063624 0.843716 0.252464
H7    H     H_    0.630805 0.994946 0.844187 0.230356
H8    H     H_    0.486773 0.951748 0.900027 0.262116
H9    H     H_    0.885430 0.754639 0.879338 0.144600
H10   H     H_    0.935585 0.855415 0.935955 0.139641
H11   H     H_    0.897084 0.040756 0.879654 0.246901
H12   H     H_    0.877360 0.385603 0.446238 0.175172
H13   H     H_    0.023370 0.952266 0.841078 0.211872
H14   H     H_    0.857553 0.937926 0.821760 0.265271
H15   H     H_    0.668097 0.207161 0.090848 0.129511
H16   H     H_    0.661412 0.097012 0.033089 0.151344
H17   H     H_    0.499498 0.950554 0.097365 0.261840
H18   H     H_    0.646456 0.996428 0.130505 0.234957
H19   H     H_    0.492539 0.062405 0.155350 0.254035
H20   H     H_    0.215924 0.493515 0.805562 0.372617
H21   H     H_    0.846750 0.601560 0.218485 0.374464
H22   H     H_    0.268138 0.404778 0.674303 0.345676
H23   H     H_    0.722462 0.542063 0.654221 0.216680
H24   H     H_    0.717995 0.660340 0.350365 0.335614
H25   H     H_    0.854804 0.699836 0.699177 0.145273
H26   H     H_    0.916438 0.547527 0.688414 0.161090
H27   H     H_    0.033835 0.587740 0.774327 0.272257
H28   H     H_    0.092550 0.698127 0.714989 0.221382
H29   H     H_    0.982004 0.742484 0.778459 0.239177
H30   H     H_    0.319076 0.652667 0.180856 0.149402
H31   H     H_    0.195791 0.620315 0.246514 0.153103
H32   H     H_    0.052239 0.481500 0.190043 0.271119
H33   H     H_    0.088604 0.637439 0.159061 0.205014
H34   H     H_    0.301398 0.465422 0.326885 0.225961
H35   H     H_    0.176677 0.513224 0.125151 0.257536
H36   H     H_    0.497114 0.992666 0.389190 0.119835
H37   H     H_    0.672272 0.033982 0.363684 0.167095
H38   H     H_    0.638023 0.256667 0.352811 0.273742
H39   H     H_    0.536924 0.155002 0.311218 0.216387
H40   H     H_    0.459777 0.217790 0.378603 0.229556
H41   H     H_    0.324290 0.967956 0.635267 0.160275
H42   H     H_    0.500294 0.007533 0.610911 0.122465
H43   H     H_    0.534810 0.782594 0.623126 0.230734
H44   H     H_    0.455613 0.846933 0.689754 0.211676
H45   H     H_    0.316444 0.099184 0.536679 0.148014
H46   H     H_    0.355826 0.745117 0.647677 0.277522
H47   H     H_    0.955955 0.259266 0.504423 0.109776
H48   H     H_    0.111436 0.265791 0.531279 0.159265
H49   H     H_    0.080431 0.077520 0.474131 0.197595
H50   H     H_    0.051637 0.167152 0.413074 0.253335
H51   H     H_    0.216012 0.181777 0.434046 0.259435
H52   H     H_    0.886820 0.734734 0.471520 0.168118
H53   H     H_    0.041322 0.741569 0.498903 0.113453
H54   H     H_    0.778379 0.812664 0.569411 0.260277
H55   H     H_    0.941694 0.827261 0.591396 0.240769
H56   H     H_    0.683507 0.901107 0.463598 0.149533
H57   H     H_    0.913678 0.920068 0.531195 0.206486
H58   H     H_    0.927024 0.765515 0.024586 0.092560
H59   H     H_    0.853409 0.768774 0.100112 0.214773
H60   H     H_    0.897915 0.999346 0.099274 0.252937
N1    N     N_R   0.550056 0.524742 0.143846 -0.314781
N2    N     N_R   0.556636 0.530473 0.848925 -0.308245
N3    N     N_2   0.842710 0.448880 0.476480 -0.215375
N4    N     N_2   0.157290 0.551120 0.523520 -0.223320
O1    O     O_R   0.431060 0.692470 0.504730 -0.548965
O2    O     O_2   0.634385 0.743265 0.842709 -0.548962
O3    O     O_2   0.607503 0.741218 0.140840 -0.564729
O4    O     O_2   0.473101 0.318956 0.851410 -0.524623
O5    O     O_3   0.742422 0.842086 0.043548 -0.581891
O6    O     O_3   0.480549 0.183737 0.941629 -0.543960
O7    O     O_3   0.734298 0.848212 0.927585 -0.572720
O8    O     O_3   0.485973 0.180341 0.057380 -0.545208
O9    O     O_3   0.301460 0.508755 0.820850 -0.741722
O10   O     O_3   0.774064 0.584348 0.195074 -0.778409
O11   O     O_3   0.263830 0.468300 0.705050 -0.785548
O12   O     O_R   0.568940 0.307530 0.495270 -0.549782
O13   O     O_3   0.749437 0.611263 0.315847 -0.769029
O14   O     O_3   0.779704 0.563685 0.764016 -0.605668
O15   O     O_3   0.295820 0.470543 0.215181 -0.561110
O16   O     O_3   0.610141 0.104627 0.444142 -0.608205
O17   O     O_3   0.388825 0.894979 0.555562 -0.607689
O18   O     O_3   0.113334 0.389070 0.462094 -0.587181
O19   O     O_3   0.885255 0.608302 0.539493 -0.609370
O20   O     O_R   0.651120 0.659650 0.489640 -0.612405
O21   O     O_R   0.348880 0.340350 0.510360 -0.609073
O22   O     O_R   0.389950 0.516450 0.591390 -0.610078
O23   O     O_R   0.610050 0.483550 0.408610 -0.595343
O24   O     O_R   0.610020 0.483630 0.576300 -0.578849
O25   O     O_R   0.389980 0.516370 0.423700 -0.575695
O26   O     O_2   0.476506 0.311142 0.150782 -0.509128
Zn1   Zn    Zn3+2 0.353060 0.521920 0.510080 0.987406
Zn2   Zn    Zn3+2 0.646940 0.478080 0.489920 0.994119

loop_
_geom_bond_atom_site_label_1
_geom_bond_atom_site_label_2
_ccdc_geom_bond_type
C44   O16   S    
C14   O22   A    
C23   C45   A    
C37   H13   S    
C27   C29   A    
C11   C13   S    
C32   H2    S    
O24   Zn2   S    
C11   N3    D    
O20   Zn2   S    
C49   H48   S    
C52   H57   S    
C12   O21   A    
C43   H33   S    
C47   H42   S    
C43   H32   S    
C36   C37   S    
C19   C21   A    
C10   O16   S    
C2    C55   A    
H12   N3    S    
C38   C39   S    
C36   H10   S    
C41   H27   S    
C25   C30   A    
C7    H56   S    
C23   O9    S    
C16   O26   S    
C3    C56   A    
C39   H18   S    
C2    H34   S    
C11   O19   S    
C44   H37   S    
C9    O17   S    
C30   O8    S    
C46   H39   S    
C47   C48   S    
C19   N2    A    
C28   O6    S    
C51   H52   S    
C22   C25   A    
C46   H38   S    
C50   H49   S    
O1    Zn1   S    
C35   H8    S    
C42   H30   S    
C39   H19   S    
C12   O12   A    
C8    H45   S    
C6    N1    S    
C44   H36   S    
C18   O3    S    
C51   H53   S    
C49   O18   S    
C40   H25   S    
C31   H59   S    
O25   Zn1   S    
C44   C46   S    
C38   H16   S    
C53   C55   A    
O23   Zn2   S    
C48   H44   S    
C14   O24   A    
C19   O4    S    
C51   C52   S    
O12   Zn2   S    
C40   H26   S    
C53   O13   S    
C4    C6    A    
C15   O25   A    
C36   H9    S    
C52   H55   S    
N3    Zn2   S    
C41   H28   S    
C40   O14   S    
C43   H35   S    
H24   O13   S    
C6    C34   A    
C42   O15   S    
C15   C55   S    
C2    C4    A    
H22   O11   S    
H20   O9    S    
C31   C32   S    
C5    C23   A    
C52   H54   S    
C8    C12   S    
C48   H46   S    
C47   O17   S    
C32   H60   S    
C56   H23   S    
C18   N1    A    
C1    O20   A    
C17   N2    A    
C26   C29   A    
C4    O15   S    
C15   O23   A    
C33   H5    S    
C40   C41   S    
C14   C54   S    
C21   C28   A    
C20   C22   A    
C45   C54   A    
C45   O11   S    
C33   H4    S    
H1    N4    S    
C50   H51   S    
C22   C24   A    
C36   O7    S    
C42   C43   S    
C17   C26   A    
C13   N4    D    
C9    C10   S    
C16   C25   A    
C7    C9    D    
C48   H43   S    
C38   H15   S    
C31   H58   S    
C1    C7    S    
O22   Zn1   S    
C24   C26   A    
C3    C5    A    
C49   H47   S    
C38   O8    S    
C54   C56   A    
C20   C27   A    
C41   H29   S    
C47   H41   S    
C5    N2    S    
C3    O14   S    
C13   O18   S    
C28   C30   A    
C29   O7    S    
C16   N1    A    
C27   O5    S    
C37   H11   S    
C33   O6    S    
C33   C35   S    
C35   H6    S    
C18   C20   A    
H21   O10   S    
C39   H17   S    
C1    O1    A    
O21   Zn1   S    
C17   O2    S    
C46   H40   S    
C34   O10   S    
C34   C53   A    
C8    C10   D    
C49   C50   S    
C21   C24   A    
C50   H50   S    
C31   O5    S    
C35   H7    S    
C42   H31   S    
C32   H3    S    
C37   H14   S    
N4    Zn1   S    
C51   O19   S    
