data_mof_unit_47752.cif
_audit_creation_date              2013-03-05T15:43:42-0500
_audit_creation_method            fapswitch 2.2
_symmetry_space_group_name_H-M    P1
_symmetry_Int_Tables_number       1
_space_group_crystal_system       triclinic
_cell_length_a                    14.992975
_cell_length_b                    10.705351
_cell_length_c                    10.016201
_cell_angle_alpha                 88.783486
_cell_angle_beta                  89.951704
_cell_angle_gamma                 90.06965
_cell_volume                      1607.28679209

loop_
_atom_site_label
_atom_site_type_symbol
_atom_site_description
_atom_site_fract_x
_atom_site_fract_y
_atom_site_fract_z
_atom_type_partial_charge
O1    O     O_R   0.499990 0.319060 0.613040 -0.611020
O2    O     O_R   0.500010 0.319100 0.386900 -0.622379
C1    C     C_R   0.494202 0.262898 0.501495 0.959975
O3    O     O_R   0.367830 0.499950 0.613080 -0.631473
O4    O     O_R   0.367860 0.499990 0.386940 -0.599055
C2    C     C_R   0.326636 0.500783 0.500004 0.924227
Zn1   Zn    Zn3+2 0.499980 0.499970 0.650990 1.005149
Zn2   Zn    Zn3+2 0.500020 0.500030 0.349010 1.002921
O5    O     O_R   0.499990 0.680900 0.613100 -0.577228
O6    O     O_R   0.500010 0.680940 0.386960 -0.600326
O7    O     O_R   0.632140 0.500010 0.613060 -0.619970
O8    O     O_R   0.632170 0.500050 0.386920 -0.626080
C3    C     C_R   0.500632 0.737444 0.498264 0.936426
C4    C     C_R   0.673328 0.500794 0.499907 0.909820
C5    C     C_R   0.814445 0.539966 0.614646 -0.182850
C6    C     C_R   0.769160 0.504995 0.499398 -0.065767
C7    C     C_R   0.815284 0.475893 0.382910 -0.223532
C8    C     C_R   0.907480 0.479936 0.381369 0.114999
C9    C     C_R   0.953609 0.514494 0.497860 0.071682
C10   C     C_R   0.906732 0.545208 0.614538 0.053167
C11   C     C_R   0.954061 0.448703 0.265782 -0.167890
C12   C     C_R   0.046571 0.449364 0.266012 -0.124397
C13   C     C_R   0.092787 0.481930 0.381537 0.117955
C14   C     C_R   0.046459 0.516317 0.498057 0.027859
C15   C     C_R   0.092940 0.549998 0.615049 -0.017213
C16   C     C_R   0.045390 0.586386 0.730061 0.306758
C17   C     C_R   0.952364 0.581231 0.729036 -0.257250
C18   C     C_R   0.184820 0.478575 0.382862 -0.181619
C19   C     C_R   0.230768 0.506516 0.499478 -0.070690
C20   C     C_R   0.185551 0.541770 0.614758 -0.159602
H1    H     H_    0.779569 0.448602 0.293962 0.166399
H2    H     H_    0.919008 0.422448 0.175995 0.163055
H3    H     H_    0.082000 0.423079 0.176536 0.182997
H4    H     H_    0.223150 0.561043 0.704071 0.206865
H5    H     H_    0.915475 0.607608 0.817231 0.188871
C21   C     C_2   0.453724 0.935151 0.406958 0.192640
C22   C     C_2   0.508885 0.869721 0.490140 0.014579
C23   C     C_2   0.463313 0.069329 0.395557 -0.151527
C24   C     C_2   0.474711 0.132887 0.506839 -0.298023
H6    H     H_    0.460676 0.114591 0.297502 0.199257
H7    H     H_    0.469931 0.087415 0.604816 0.180321
C25   C     C_2   0.554969 0.566434 0.923376 -0.085929
N1    N     N_2   0.500970 0.501330 0.852150 -0.190942
H8    H     H_    0.449969 0.453804 0.898999 0.172158
C26   C     C_2   0.551256 0.572055 0.073362 -0.088403
N2    N     N_2   0.500990 0.501360 0.147810 -0.187657
H9    H     H_    0.594820 0.638339 0.121519 0.169526
H10   H     H_    0.777923 0.564063 0.704037 0.164631
N3    N     N_R   0.587192 0.923571 0.550134 0.185290
O9    O     O_R   0.613073 0.884855 0.667867 -0.373854
O10   O     O_R   0.641292 0.992348 0.478142 -0.371047
H11   H     H_    0.605365 0.622428 0.872333 0.179314
H12   H     H_    0.463341 0.433662 0.103698 0.168572
H13   H     H_    0.220569 0.451358 0.293865 0.168152
N4    N     N_R   0.089759 0.630669 0.847174 0.205684
O11   O     O_R   0.149551 0.718519 0.836202 -0.348648
O12   O     O_R   0.058626 0.601523 0.965090 -0.399485
N5    N     N_R   0.381009 0.878016 0.336123 0.221912
O13   O     O_R   0.356242 0.924261 0.220845 -0.344648
O14   O     O_R   0.329614 0.796438 0.396244 -0.382656

loop_
_geom_bond_atom_site_label_1
_geom_bond_atom_site_label_2
_geom_bond_distance
_ccdc_geom_bond_type
O4    Zn2   2.017249 S    
Zn1   O7    2.017246 S    
N1    H8    1.025707 S    
Zn1   O5    1.965827 S    
C19   C20   1.397528 A    
C10   C17   1.396947 A    
Zn1   N1    2.015287 S    
C8    C11   1.398409 A    
C22   N3    1.444326 S    
C3    C22   1.421919 S    
C9    C10   1.408325 A    
Zn2   O8    2.017692 S    
N4    O11   1.301388 A    
C16   N4    1.437844 S    
N3    O10   1.301925 A    
C21   C23   1.445510 S    
C7    C8    1.382968 A    
C15   C16   1.416128 A    
C18   H13   1.085076 S    
C1    C24   1.421703 S    
C24   H7    1.088429 S    
O1    Zn1   1.981558 S    
C13   C18   1.380420 A    
C23   H6    1.086672 S    
C16   C17   1.395821 A    
C23   C24   1.329205 D    
C5    H10   1.085069 S    
O3    Zn1   2.017695 S    
N2    H12   1.025716 S    
Zn2   O6    1.981558 S    
C18   C19   1.394301 A    
C11   H2    1.084051 S    
O8    C4    1.289629 A    
C9    C14   1.392218 A    
C21   N5    1.443670 S    
N4    O12   1.301238 A    
O4    C2    1.289896 A    
C7    H1    1.085032 S    
O7    C4    1.290089 A    
C4    C6    1.437462 S    
C6    C7    1.396873 A    
C25   N1    1.292634 D    
C20   H4    1.081218 S    
C13   C14   1.413354 A    
N5    O14   1.301659 A    
C5    C6    1.397390 A    
C26   N2    1.292480 D    
C2    C19   1.438743 S    
C14   C15   1.416871 A    
O3    C2    1.290370 A    
C8    C9    1.412686 A    
C26   H9    1.084760 S    
C15   C20   1.391415 A    
N3    O9    1.301290 A    
C12   H3    1.083889 S    
O5    C3    1.288377 A    
C12   C13   1.399469 A    
C21   C22   1.358886 D    
O2    C1    1.287406 A    
Zn2   N2    2.015048 S    
C17   H5    1.084495 S    
N5    O13   1.301188 A    
C11   C12   1.387009 A    
O6    C3    1.279653 A    
O2    Zn2   1.965825 S    
C25   H11   1.084829 S    
C5    C10   1.384720 A    
O1    C1    1.282899 A    
C25   C26   1.505754 S    
