data_mof_unit_18021.cif
_audit_creation_date              2012-12-10T19:52:21-0500
_audit_creation_method            fapswitch 2.2
_symmetry_space_group_name_H-M    P1
_symmetry_Int_Tables_number       1
_space_group_crystal_system       triclinic
_cell_length_a                    15.005936
_cell_length_b                    14.146978
_cell_length_c                    10.699081
_cell_angle_alpha                 90.105573
_cell_angle_beta                  90.177382
_cell_angle_gamma                 90.079989
_cell_volume                      2271.27645195

loop_
_atom_site_label
_atom_site_type_symbol
_atom_type_description
_atom_site_fract_x
_atom_site_fract_y
_atom_site_fract_z
_atom_type_partial_charge
C1    C     C_R   0.327576 0.499892 0.500037 0.870845
C2    C     C_R   0.905413 0.543028 0.396326 -0.123657
C3    C     C_R   0.814928 0.455196 0.594793 -0.017625
C4    C     C_R   0.812875 0.544717 0.396995 -0.009557
C5    C     C_R   0.767766 0.500369 0.497132 -0.198468
C6    C     C_R   0.951737 0.497885 0.491937 -0.004301
C7    C     C_R   0.424356 0.104845 0.462080 -0.248126
C8    C     C_R   0.452496 0.894629 0.409098 -0.259296
C9    C     C_R   0.497125 0.499588 0.257788 0.819493
C10   C     C_R   0.425796 0.204201 0.462772 0.091863
C11   C     C_R   0.453390 0.795266 0.410757 0.027805
C12   C     C_3   0.576603 0.554808 0.931065 -0.420134
C13   C     C_R   0.574047 0.204512 0.537685 0.097089
C14   C     C_R   0.546383 0.795607 0.589473 0.031446
C15   C     C_R   0.575410 0.105152 0.538546 -0.242843
C16   C     C_R   0.547185 0.894970 0.591342 -0.260381
C17   C     C_R   0.499878 0.053226 0.500283 0.114198
C18   C     C_R   0.499852 0.946567 0.500242 0.137711
C19   C     C_R   0.671967 0.500117 0.499038 0.811980
C20   C     C_R   0.498716 0.499791 0.742504 0.857127
C21   C     C_3   0.412350 0.558054 0.071430 -0.233199
C22   C     C_3   0.488800 0.393460 0.071421 -0.218123
C23   C     C_R   0.093185 0.583982 0.480155 -0.140128
C24   C     C_3   0.406373 0.544321 0.927296 -0.185629
C25   C     C_3   0.499253 0.393736 0.928470 -0.229583
C26   C     C_3   0.580025 0.544278 0.073302 -0.421424
C27   C     C_3   0.492452 0.498020 0.121663 -0.009791
C28   C     C_3   0.495796 0.498791 0.879059 -0.055368
C29   C     C_2   0.769147 0.412408 0.704131 0.400389
C30   C     C_2   0.764919 0.590753 0.291387 0.389033
C31   C     C_2   0.324552 0.541063 0.138405 0.353953
C32   C     C_2   0.405223 0.339858 0.107958 0.420590
C33   C     C_2   0.382159 0.637472 0.866448 0.492218
C34   C     C_R   0.093585 0.412956 0.503902 -0.147585
C35   C     C_2   0.583918 0.341399 0.893515 0.448027
C36   C     C_R   0.185171 0.584691 0.483405 -0.137987
C37   C     C_R   0.185532 0.413495 0.506865 -0.174323
C38   C     C_R   0.231519 0.499436 0.497160 -0.029512
C39   C     C_R   0.047660 0.498182 0.490951 0.121776
C40   C     C_R   0.907335 0.454037 0.590127 -0.122131
H1    H     H_    0.428696 0.633426 0.092054 0.129725
H2    H     H_    0.583625 0.930896 0.664856 0.149433
H3    H     H_    0.352277 0.493167 0.903986 0.190144
H4    H     H_    0.442548 0.354283 0.884949 0.170762
H5    H     H_    0.590306 0.615546 0.115281 0.200018
H6    H     H_    0.638378 0.500005 0.099737 0.176038
H7    H     H_    0.570687 0.630913 0.906558 0.183346
H8    H     H_    0.640182 0.529743 0.889571 0.166193
H9    H     H_    0.057470 0.650154 0.471133 0.145016
H10   H     H_    0.058198 0.346397 0.511539 0.144806
H11   H     H_    0.219749 0.651655 0.475255 0.163865
H12   H     H_    0.546093 0.354577 0.113964 0.183003
H13   H     H_    0.220347 0.346931 0.517235 0.154265
H14   H     H_    0.945402 0.421126 0.664525 0.188060
H15   H     H_    0.942048 0.575764 0.320638 0.189966
H16   H     H_    0.698261 0.421714 0.717259 0.058776
H17   H     H_    0.692975 0.590398 0.286809 0.075615
H18   H     H_    0.322075 0.545662 0.239389 0.065684
H19   H     H_    0.340867 0.359905 0.070426 0.104513
H20   H     H_    0.425402 0.698535 0.876937 0.046422
H21   H     H_    0.648083 0.365753 0.927694 0.091390
H22   H     H_    0.363890 0.068944 0.433514 0.144288
H23   H     H_    0.415972 0.930288 0.335704 0.147645
H24   H     H_    0.367186 0.242648 0.433373 0.146637
H25   H     H_    0.416874 0.756178 0.340216 0.118896
H26   H     H_    0.632598 0.243210 0.567393 0.151449
H27   H     H_    0.582806 0.756790 0.660061 0.123889
H28   H     H_    0.635815 0.069488 0.567312 0.148330
N1    N     N_R   0.499980 0.252470 0.500000 -0.103770
N2    N     N_R   0.499980 0.747530 0.500000 -0.093467
O1    O     O_R   0.369070 0.579480 0.500010 -0.611985
O2    O     O_2   0.805542 0.629728 0.207158 -0.562464
O3    O     O_2   0.255463 0.525282 0.081376 -0.540317
O4    O     O_2   0.409898 0.271002 0.176223 -0.565810
O5    O     O_2   0.313776 0.644765 0.805103 -0.541777
O6    O     O_2   0.580464 0.269723 0.829966 -0.556746
O7    O     O_R   0.369070 0.420520 0.500010 -0.639189
O8    O     O_R   0.499990 0.579480 0.314790 -0.649373
O9    O     O_R   0.499990 0.420520 0.314790 -0.589835
O10   O     O_R   0.630940 0.579480 0.499990 -0.621468
O11   O     O_R   0.630940 0.420520 0.499990 -0.628318
O12   O     O_R   0.500020 0.579480 0.685200 -0.626633
O13   O     O_R   0.500020 0.420520 0.685200 -0.600626
O14   O     O_2   0.810376 0.366631 0.781760 -0.563046
Zn1   Zn    Zn3+2 0.500010 0.606140 0.500000 0.953102
Zn2   Zn    Zn3+2 0.500010 0.393860 0.500000 0.987177

loop_
_geom_bond_atom_site_label_1
_geom_bond_atom_site_label_2
_ccdc_geom_bond_type
C7    C10   A    
C20   O12   A    
C34   C37   A    
C1    O7    A    
C12   H8    S    
C11   N2    A    
C25   C28   S    
C21   C31   S    
C26   C27   S    
C1    O1    A    
C22   C32   S    
C12   C28   S    
C31   H18   S    
C37   C38   A    
C2    H15   S    
C32   O4    D    
C31   O3    D    
C30   H17   S    
C9    O9    A    
C3    C29   S    
C26   H5    S    
O1    Zn1   S    
C33   O5    D    
C7    C17   A    
C22   C25   S    
C14   H27   S    
O11   Zn2   S    
C37   H13   S    
C21   C27   S    
C14   N2    A    
C2    C6    A    
C12   H7    S    
C25   H4    S    
C13   H26   S    
C35   O6    D    
C34   H10   S    
C34   C39   A    
C29   O14   D    
C20   C28   S    
C8    C18   A    
C12   C26   S    
C2    C4    A    
C7    H22   S    
O10   Zn1   S    
C17   C18   S    
C35   H21   S    
C36   H11   S    
C1    C38   S    
C25   C35   S    
C21   H1    S    
O8    Zn1   S    
C3    C40   A    
C33   H20   S    
C40   H14   S    
C22   C27   S    
C13   C15   A    
C6    C40   A    
C20   O13   A    
C16   H2    S    
C9    C27   S    
C22   H12   S    
C15   C17   A    
C10   H24   S    
C24   C28   S    
C4    C5    A    
C3    C5    A    
O7    Zn2   S    
C30   O2    D    
C5    C19   S    
C29   H16   S    
O12   Zn1   S    
C24   C33   S    
C36   C38   A    
C13   N1    A    
C8    C11   A    
C23   C39   A    
C15   H28   S    
C14   C16   A    
C9    O8    A    
C19   O10   A    
C23   H9    S    
C26   H6    S    
C8    H23   S    
C10   N1    A    
O13   Zn2   S    
C16   C18   A    
C23   C36   A    
C21   C24   S    
C24   H3    S    
C6    C39   S    
C32   H19   S    
C19   O11   A    
N2    Zn1   S    
O9    Zn2   S    
C4    C30   S    
N1    Zn2   S    
C11   H25   S    
