data_mof_unit_13892.cif
_audit_creation_date              2012-12-11T15:36:04-0500
_audit_creation_method            fapswitch 2.2
_symmetry_space_group_name_H-M    P1
_symmetry_Int_Tables_number       1
_space_group_crystal_system       triclinic
_cell_length_a                    7.02963
_cell_length_b                    11.905003
_cell_length_c                    35.760114
_cell_angle_alpha                 90.019954
_cell_angle_beta                  91.368336
_cell_angle_gamma                 90.488283
_cell_volume                      2991.72156651

loop_
_atom_site_label
_atom_site_type_symbol
_atom_type_description
_atom_site_fract_x
_atom_site_fract_y
_atom_site_fract_z
_atom_type_partial_charge
O1    O     O_R   0.379730 0.148600 0.662710 -0.543012
O2    O     O_R   0.620270 0.851400 0.337290 -0.530066
O3    O     O_R   0.120270 0.648600 0.337290 -0.544521
O4    O     O_R   0.879730 0.351400 0.662710 -0.529667
O5    O     O_R   0.722480 0.134490 0.741330 -0.546550
O6    O     O_R   0.277520 0.865510 0.258670 -0.541169
O7    O     O_R   0.777520 0.634490 0.258670 -0.539593
O8    O     O_R   0.222480 0.365510 0.741330 -0.539370
O9    O     O_R   0.892880 0.345890 0.741600 -0.540241
O10   O     O_R   0.107120 0.654110 0.258400 -0.536307
O11   O     O_R   0.607120 0.845890 0.258400 -0.534848
O12   O     O_R   0.392880 0.154110 0.741600 -0.538715
C1    C     C_R   0.554343 0.116511 0.755415 0.693873
C2    C     C_R   0.445932 0.884591 0.244782 0.692174
C3    C     C_R   0.945350 0.612780 0.245640 0.687524
C4    C     C_R   0.055739 0.381142 0.755914 0.692606
O13   O     O_R   0.709490 0.135560 0.662990 -0.532898
O14   O     O_R   0.290510 0.864440 0.337010 -0.545427
O15   O     O_R   0.790510 0.635560 0.337010 -0.533656
O16   O     O_R   0.209490 0.364440 0.662990 -0.544116
C5    C     C_R   0.538537 0.107118 0.651235 0.713904
C6    C     C_R   0.460659 0.892433 0.348903 0.705207
C7    C     C_R   0.960561 0.607041 0.348759 0.706045
C8    C     C_R   0.040245 0.392324 0.651042 0.711392
O17   O     O_3   0.552800 0.316610 0.702160 -0.368279
O18   O     O_3   0.447200 0.683390 0.297840 -0.369096
O19   O     O_3   0.947200 0.816610 0.297840 -0.367659
O20   O     O_3   0.052800 0.183390 0.702160 -0.370529
V1    V     V_3+5 0.827630 0.234380 0.702160 1.429534
V2    V     V_3+5 0.172370 0.765620 0.297840 1.421697
V3    V     V_3+5 0.672370 0.734380 0.297840 1.447450
V4    V     V_3+5 0.327630 0.265620 0.702160 1.419858
C9    C     C_R   0.037636 0.603903 0.927726 0.563720
C10   C     C_R   0.034313 0.308087 0.092946 0.525989
C11   C     C_R   0.501555 0.154903 0.081629 0.538234
C12   C     C_R   0.533019 0.872159 0.923104 0.561277
O21   O     O_2   0.028668 0.492561 0.934356 -0.551057
O22   O     O_2   0.083965 0.415143 0.085455 -0.555423
O23   O     O_2   0.476249 0.045866 0.072466 -0.556384
O24   O     O_2   0.537883 0.982995 0.930863 -0.552407
N1    N     N_R   0.046277 0.642805 0.891534 -0.542889
N2    N     N_R   0.993656 0.275090 0.129052 -0.544271
N3    N     N_R   0.502417 0.187974 0.118596 -0.545532
N4    N     N_R   0.530313 0.836354 0.886550 -0.540831
C13   C     C_R   0.058999 0.756281 0.885124 0.546006
C14   C     C_R   0.972046 0.161167 0.135876 0.544198
C15   C     C_R   0.517879 0.301146 0.126904 0.558319
C16   C     C_R   0.523221 0.723544 0.878693 0.578287
C17   C     C_R   0.913155 0.590993 0.828855 -0.097539
C18   C     C_R   0.016261 0.336062 0.197461 -0.075796
C19   C     C_R   0.373411 0.132617 0.180297 -0.071198
C20   C     C_R   0.681006 0.899656 0.828383 -0.124912
C21   C     C_R   0.917581 0.530479 0.795504 -0.187245
C22   C     C_R   0.009473 0.418795 0.225057 -0.194765
C23   C     C_R   0.358301 0.060653 0.210939 -0.183425
C24   C     C_R   0.684725 0.964488 0.796048 -0.190476
C25   C     C_R   0.169605 0.416761 0.821883 -0.204006
C26   C     C_R   0.901693 0.552781 0.179111 -0.217069
C27   C     C_R   0.559631 0.928263 0.180221 -0.195242
C28   C     C_R   0.411638 0.066344 0.817144 -0.213861
C29   C     C_R   0.158788 0.475196 0.855932 -0.077311
C30   C     C_R   0.912352 0.470615 0.151189 -0.064560
C31   C     C_R   0.567684 0.999472 0.148892 -0.053784
C32   C     C_R   0.412392 0.002529 0.850195 -0.050720
C33   C     C_R   0.036833 0.567364 0.859300 0.369527
C34   C     C_R   0.975088 0.359872 0.159130 0.372932
C35   C     C_R   0.480507 0.105868 0.148945 0.359752
C36   C     C_R   0.543014 0.915076 0.855557 0.378783
C37   C     C_R   0.032838 0.796628 0.951371 -0.040999
C38   C     C_R   0.016659 0.115039 0.070340 -0.016348
C39   C     C_R   0.523598 0.350180 0.060949 -0.024817
C40   C     C_R   0.540171 0.677558 0.944808 -0.049155
C41   C     C_R   0.035957 0.680268 0.958285 -0.033538
C42   C     C_R   0.030896 0.230472 0.063032 -0.046497
C43   C     C_R   0.521258 0.234717 0.052578 -0.040391
C44   C     C_R   0.532252 0.793235 0.952802 -0.040230
C45   C     C_R   0.033219 0.643130 0.995404 -0.120071
C46   C     C_R   0.047925 0.266426 0.026023 -0.112176
C47   C     C_R   0.531905 0.201294 0.015231 -0.110332
C48   C     C_R   0.527342 0.827298 0.990164 -0.120039
C49   C     C_R   0.036093 0.833978 0.914213 -0.052709
C50   C     C_R   0.999876 0.080292 0.107489 -0.016098
C51   C     C_R   0.515142 0.383117 0.098463 -0.000548
C52   C     C_R   0.544376 0.643460 0.907309 -0.052786
C53   C     C_R   0.050405 0.445322 0.791213 -0.037846
C54   C     C_R   0.953920 0.527579 0.216051 -0.010759
C55   C     C_R   0.455624 0.958948 0.211676 -0.040641
C56   C     C_R   0.547260 0.046791 0.789567 -0.047947
H1    H     H_    0.268441 0.347911 0.819705 0.108939
H2    H     H_    0.853274 0.636279 0.171783 0.097419
H3    H     H_    0.633026 0.848643 0.179718 0.105630
H4    H     H_    0.307476 0.132152 0.813445 0.116220
H5    H     H_    0.246750 0.449017 0.879281 0.142961
H6    H     H_    0.866317 0.495109 0.123513 0.153649
H7    H     H_    0.646941 0.971942 0.125317 0.152264
H8    H     H_    0.310808 0.020961 0.871248 0.133512
H9    H     H_    0.034517 0.554260 0.001769 0.160524
H10   H     H_    0.062356 0.354777 0.019420 0.166614
H11   H     H_    0.529902 0.113245 0.007751 0.169711
H12   H     H_    0.523115 0.915487 0.997338 0.166522
C57   C     C_R   0.021229 0.917558 0.048874 0.058720
C58   C     C_R   0.023061 0.992859 0.973343 0.042844
C59   C     C_R   0.553915 0.479616 0.965154 0.060745
C60   C     C_R   0.524401 0.549025 0.040972 0.042689
C61   C     C_R   0.028826 0.072512 0.003096 0.008796
C62   C     C_R   0.026579 0.837390 0.018995 0.019774
C63   C     C_R   0.530518 0.631318 0.011885 0.022032
C64   C     C_R   0.545024 0.397406 0.994126 0.013688
C65   C     C_R   0.022014 0.034630 0.040652 0.097616
C66   C     C_R   0.027426 0.875842 0.981398 0.068323
C67   C     C_R   0.541850 0.595876 0.974104 0.067567
C68   C     C_R   0.531636 0.432565 0.031898 0.068518
C69   C     C_R   0.017612 0.885521 0.086985 -0.165765
C70   C     C_R   0.008490 0.026161 0.935453 -0.103233
C71   C     C_R   0.575708 0.449894 0.927202 -0.112250
C72   C     C_R   0.507043 0.578655 0.079051 -0.170315
C73   C     C_R   0.007335 0.965161 0.115527 -0.155942
C74   C     C_R   0.014448 0.948139 0.906641 -0.142271
C75   C     C_R   0.570526 0.530246 0.899009 -0.159690
C76   C     C_R   0.502499 0.497509 0.107032 -0.114665
O25   O     O_2   0.918540 0.123991 0.169585 -0.545327
O26   O     O_2   0.100971 0.794393 0.850743 -0.526262
O27   O     O_2   0.489081 0.688529 0.843253 -0.521669
O28   O     O_2   0.540247 0.335795 0.162667 -0.538059
C77   C     C_R   0.029222 0.719569 0.025097 -0.161802
C78   C     C_R   0.045329 0.189574 0.996676 -0.161893
C79   C     C_R   0.544411 0.280378 0.986670 -0.165835
C80   C     C_R   0.525937 0.748543 0.019061 -0.153862
H13   H     H_    0.045416 0.397183 0.253797 0.100858
H14   H     H_    0.820644 0.552343 0.772698 0.132236
H15   H     H_    0.793368 0.948617 0.775768 0.141241
H16   H     H_    0.274936 0.086090 0.234534 0.122804
H17   H     H_    0.054503 0.254627 0.207723 0.146514
H18   H     H_    0.815001 0.658294 0.830605 0.152863
H19   H     H_    0.784983 0.835892 0.831976 0.155358
H20   H     H_    0.302831 0.211167 0.180947 0.144284
H21   H     H_    0.001861 0.935674 0.144149 0.154097
H22   H     H_    0.999430 0.977838 0.878117 0.141993
H23   H     H_    0.584646 0.502604 0.870348 0.151586
H24   H     H_    0.489565 0.525263 0.135713 0.155259
H25   H     H_    0.020027 0.799148 0.095867 0.111402
H26   H     H_    0.988270 0.112133 0.926994 0.115452
H27   H     H_    0.596883 0.364888 0.918066 0.115108
H28   H     H_    0.495895 0.664180 0.088434 0.112383
H29   H     H_    0.028065 0.683006 0.052617 0.138308
H30   H     H_    0.062654 0.224901 0.969233 0.142780
H31   H     H_    0.549046 0.246201 0.958851 0.143097
H32   H     H_    0.521971 0.783098 0.046836 0.141223
C81   C     C_R   0.972136 0.526816 0.379401 -0.063219
C82   C     C_R   0.030462 0.471239 0.620030 -0.064635
C83   C     C_R   0.525257 0.026722 0.620607 -0.065805
C84   C     C_R   0.472116 0.971285 0.379963 -0.062544
C85   C     C_R   0.933566 0.339738 0.403454 -0.146448
C86   C     C_R   0.981244 0.657475 0.596052 -0.145710
C87   C     C_R   0.565797 0.840269 0.596440 -0.146151
C88   C     C_R   0.519333 0.158132 0.404031 -0.146393
C89   C     C_R   0.927815 0.413872 0.373434 -0.187029
C90   C     C_R   0.991609 0.584099 0.626231 -0.183246
C91   C     C_R   0.570492 0.914324 0.626505 -0.183489
C92   C     C_R   0.509949 0.084670 0.373812 -0.186447
C93   C     C_R   0.020002 0.565340 0.415258 -0.133979
C94   C     C_R   0.057690 0.431951 0.583822 -0.137581
C95   C     C_R   0.477728 0.064870 0.584752 -0.134873
C96   C     C_R   0.444573 0.931661 0.416132 -0.136798
C97   C     C_R   0.994805 0.496042 0.446838 0.085342
C98   C     C_R   0.018690 0.500646 0.552397 0.087195
C99   C     C_R   0.504039 0.996036 0.553145 0.086543
C100  C     C_R   0.482613 0.000768 0.447597 0.086095
C101  C     C_R   0.964681 0.380141 0.440060 0.058574
C102  C     C_R   0.992986 0.616546 0.559297 0.059309
C103  C     C_R   0.534896 0.880470 0.559860 0.058409
C104  C     C_R   0.507551 0.116990 0.440770 0.059397
C105  C     C_R   0.996300 0.537758 0.484443 -0.132244
C106  C     C_R   0.003424 0.458598 0.514832 -0.131316
C107  C     C_R   0.503259 0.037928 0.515575 -0.131512
C108  C     C_R   0.497309 0.958808 0.485138 -0.132285
C109  C     C_R   0.980550 0.340974 0.506838 0.479299
C110  C     C_R   0.976073 0.655054 0.492521 0.474014
C111  C     C_R   0.520436 0.841426 0.493076 0.477799
C112  C     C_R   0.523351 0.155487 0.507593 0.476109
C113  C     C_R   0.959156 0.305186 0.469576 -0.294997
C114  C     C_R   0.973185 0.691114 0.529823 -0.298766
C115  C     C_R   0.541503 0.805731 0.530306 -0.294896
C116  C     C_R   0.526435 0.191718 0.470301 -0.298801
H33   H     H_    0.930323 0.217599 0.463340 0.139134
H34   H     H_    0.947778 0.778543 0.536182 0.139215
H35   H     H_    0.570666 0.718440 0.536474 0.139241
H36   H     H_    0.551473 0.279450 0.463982 0.139099
H37   H     H_    0.113184 0.348308 0.581360 0.149269
H38   H     H_    0.077492 0.649332 0.417421 0.150193
H39   H     H_    0.388947 0.847476 0.418525 0.149032
H40   H     H_    0.420300 0.148302 0.582594 0.150314
H41   H     H_    0.974002 0.615584 0.654355 0.107663
H42   H     H_    0.893560 0.382950 0.345560 0.106017
H43   H     H_    0.527123 0.116469 0.345701 0.107048
H44   H     H_    0.605128 0.883752 0.654354 0.108211
H45   H     H_    0.907487 0.251215 0.398204 0.126766
H46   H     H_    0.958853 0.745949 0.601385 0.125504
H47   H     H_    0.592809 0.752087 0.601634 0.126005
H48   H     H_    0.540772 0.246921 0.398742 0.126418
O29   O     O_3   0.944616 0.265769 0.535730 -0.529536
C117  C     C_3   0.020763 0.157729 0.529998 -0.207792
H49   H     H_    0.154115 0.159790 0.514173 0.103090
H50   H     H_    0.914506 0.102739 0.515448 0.149802
H51   H     H_    0.053397 0.119468 0.557662 0.153347
O30   O     O_3   0.924119 0.729262 0.464032 -0.529120
C118  C     C_3   0.006964 0.837252 0.468294 -0.208125
H52   H     H_    0.151282 0.834740 0.481265 0.105911
H53   H     H_    0.914053 0.892282 0.484823 0.146107
H54   H     H_    0.019650 0.875698 0.440207 0.155440
O31   O     O_3   0.556837 0.766631 0.464193 -0.529546
C119  C     C_3   0.478621 0.658229 0.469696 -0.205727
H55   H     H_    0.344910 0.659612 0.485389 0.102861
H56   H     H_    0.583519 0.603519 0.484281 0.150202
H57   H     H_    0.446018 0.620102 0.441950 0.153005
O32   O     O_3   0.575069 0.230034 0.536184 -0.528987
C120  C     C_3   0.494084 0.337650 0.531834 -0.210309
H58   H     H_    0.349966 0.334479 0.518740 0.106329
H59   H     H_    0.588334 0.393026 0.515394 0.146093
H60   H     H_    0.481392 0.376141 0.559903 0.155677

loop_
_geom_bond_atom_site_label_1
_geom_bond_atom_site_label_2
_ccdc_geom_bond_type
C26   C30   A    
C17   H18   S    
C84   C92   A    
O1    C5    A    
C111  O31   S    
O13   V1    S    
O29   C117  S    
O3    C7    A    
C10   N2    A    
C40   C44   A    
O15   V3    S    
C16   O27   S    
C28   C56   A    
C87   H47   S    
C105  C106  A    
C102  C114  A    
C120  H60   S    
C16   C52   A    
C62   C77   A    
C11   C43   A    
C18   C22   A    
C43   C47   A    
C17   C33   A    
C61   C78   A    
C87   C103  A    
C25   H1    S    
C32   C36   A    
C103  C115  A    
O20   V1    S    
O9    C4    A    
C63   C80   A    
C86   C90   A    
O10   C3    A    
N4    C36   S    
N2    C14   A    
C86   H46   S    
O11   C2    A    
C17   C21   A    
C24   C56   A    
C85   H45   S    
C97   C105  A    
C109  C113  A    
C31   H7    S    
C57   C69   A    
C86   C102  A    
C58   C61   A    
C59   C67   A    
C19   H20   S    
O10   V2    S    
C47   C79   A    
C12   C44   A    
C14   C50   A    
C108  C111  A    
O16   C8    A    
C25   C53   A    
C23   C55   A    
C117  H51   S    
C46   H10   S    
C118  H54   S    
C112  C116  A    
C14   O25   S    
C45   H9    S    
C95   H40   S    
C76   H24   S    
C15   C51   A    
C96   H39   S    
C11   N3    A    
O5    V1    S    
O4    V1    S    
C20   C36   A    
O9    V1    S    
C112  O32   S    
O17   V4    S    
O7    C3    A    
C7    C81   S    
C40   C67   A    
O11   V3    S    
O18   V3    S    
O8    C4    A    
C60   C72   A    
O12   V4    S    
O19   V2    S    
C116  H36   S    
C21   C53   A    
C88   H48   S    
O14   C6    A    
C73   H21   S    
C26   C54   A    
O16   V4    S    
C111  C115  A    
C28   H4    S    
C97   C101  A    
C91   H44   S    
C82   C94   A    
C6    C84   S    
C98   C106  A    
C90   H41   S    
O7    V3    S    
C117  H49   S    
C30   C34   A    
C87   C91   A    
C118  H52   S    
O8    V4    S    
C12   O24   S    
O32   C120  S    
C32   H8    S    
C72   H28   S    
C4    C53   S    
C22   C54   A    
C113  H33   S    
O30   C118  S    
C80   H32   S    
N1    C33   S    
C48   C80   A    
C120  H58   S    
O19   V3    S    
C49   C74   A    
C88   C104  A    
O1    V4    S    
O13   C5    A    
C72   C76   A    
C40   C52   A    
O2    V3    S    
C83   C91   A    
C51   C76   A    
O3    V2    S    
C11   O23   S    
C89   H42   S    
C31   C35   A    
C38   C42   A    
C59   C71   A    
C58   C70   A    
C38   C65   A    
C115  H35   S    
O6    C2    A    
C26   H2    S    
C37   C66   A    
C104  C116  A    
C107  C108  A    
C119  H57   S    
O20   V4    S    
C95   C99   A    
C8    C82   S    
C39   C68   A    
C58   C66   A    
C70   C74   A    
O12   C1    A    
C37   C41   A    
C18   C34   A    
C106  C109  A    
C101  C113  A    
C60   C63   A    
C110  C114  A    
C117  H50   S    
C10   C42   A    
C3    C54   S    
C69   C73   A    
C96   C100  A    
C9    C41   A    
O6    V2    S    
C119  H56   S    
C98   C102  A    
N3    C15   A    
C83   C95   A    
C92   H43   S    
C93   C97   A    
O14   V2    S    
C109  O29   S    
C27   H3    S    
C12   N4    A    
C81   C93   A    
C46   C78   A    
C70   H26   S    
C45   C77   A    
O15   C7    A    
C60   C68   A    
C62   C66   A    
C47   H11   S    
C57   C62   A    
C100  C108  A    
C22   H13   S    
C61   C65   A    
N1    C13   A    
C82   C90   A    
C10   O22   S    
C63   C67   A    
C13   C49   A    
C44   C48   A    
C118  H53   S    
C93   H38   S    
C84   C96   A    
C18   H17   S    
C2    C55   S    
C29   C33   A    
C25   C29   A    
C107  C112  A    
C88   C92   A    
C13   O26   S    
C120  H59   S    
C71   C75   A    
C78   H30   S    
C99   C103  A    
C9    O21   S    
C28   C32   A    
C9    N1    A    
C30   H6    S    
C75   H23   S    
C77   H29   S    
O2    C6    A    
C39   C43   A    
O17   V1    S    
C15   O28   S    
C19   C35   A    
C20   C24   A    
C105  C110  A    
C52   C75   A    
O4    C8    A    
O5    C1    A    
C1    C56   S    
C114  H34   S    
C71   H27   S    
C69   H25   S    
C27   C31   A    
C94   C98   A    
C99   C107  A    
C19   C23   A    
C5    C83   S    
C64   C79   A    
C85   C89   A    
C38   C50   A    
C27   C55   A    
C24   H15   S    
C37   C49   A    
O31   C119  S    
C64   C68   A    
C100  C104  A    
C119  H55   S    
N3    C35   S    
C23   H16   S    
C42   C46   A    
C110  O30   S    
C85   C101  A    
N2    C34   S    
C20   H19   S    
C41   C45   A    
C59   C64   A    
C39   C51   A    
C21   H14   S    
C50   C73   A    
C81   C89   A    
C74   H22   S    
C29   H5    S    
C57   C65   A    
C94   H37   S    
C48   H12   S    
N4    C16   A    
C79   H31   S    
O18   V2    S    
