data_mof_unit_61697.cif
_audit_creation_date              2013-03-05T16:08:08-0500
_audit_creation_method            fapswitch 2.2
_symmetry_space_group_name_H-M    P1
_symmetry_Int_Tables_number       1
_space_group_crystal_system       triclinic
_cell_length_a                    13.136656
_cell_length_b                    14.429619
_cell_length_c                    17.148712
_cell_angle_alpha                 89.999367
_cell_angle_beta                  86.053556
_cell_angle_gamma                 90.001785
_cell_volume                      3242.94948633

loop_
_atom_site_label
_atom_site_type_symbol
_atom_site_description
_atom_site_fract_x
_atom_site_fract_y
_atom_site_fract_z
_atom_type_partial_charge
O1    O     O_R   0.421720 0.623950 0.500010 -0.543811
O2    O     O_R   0.578280 0.376050 0.499990 -0.565006
O3    O     O_R   0.578280 0.623950 0.499990 -0.543836
O4    O     O_R   0.421720 0.376050 0.500010 -0.565098
C1    C     C_R   0.500001 0.671295 0.499999 0.898918
C2    C     C_R   0.499999 0.328695 0.499999 0.811647
O5    O     O_R   0.412660 0.500000 0.613600 -0.585216
O6    O     O_R   0.587340 0.500000 0.386400 -0.585001
O7    O     O_R   0.569190 0.500000 0.613590 -0.525194
O8    O     O_R   0.430810 0.500000 0.386410 -0.525366
C3    C     C_R   0.487469 0.499574 0.652543 0.863453
C4    C     C_R   0.512532 0.499540 0.347467 0.863721
Cu1   Cu    Cu3+1 0.407320 0.500000 0.500010 1.048271
Cu2   Cu    Cu3+1 0.592680 0.500000 0.499990 1.048559
C5    C     C_R   0.479397 0.515210 0.737213 -0.322310
C6    C     C_R   0.520628 0.515061 0.262798 -0.322048
C7    C     C_R   0.530748 0.591928 0.767029 0.262850
C8    C     C_R   0.470116 0.592247 0.232975 0.262937
C9    C     C_R   0.517348 0.614125 0.846556 0.239044
C10   C     C_R   0.483630 0.614278 0.153418 0.239233
C11   C     C_R   0.455498 0.557388 0.897129 -0.156961
C12   C     C_R   0.544750 0.556942 0.102846 -0.157138
C13   C     C_R   0.401845 0.482013 0.867395 0.345937
C14   C     C_R   0.597566 0.481069 0.132595 0.346072
C15   C     C_R   0.412942 0.460819 0.786848 -0.181054
C16   C     C_R   0.586368 0.460019 0.213166 -0.181245
C17   C     C_2   0.456074 0.568839 0.982518 -0.035520
C18   C     C_2   0.544275 0.568416 0.017454 -0.035599
H1    H     H_    0.615930 0.563215 0.982190 0.209914
H2    H     H_    0.384362 0.564318 0.017783 0.209938
C19   C     C_1   0.500004 0.772854 0.499998 -0.093042
C20   C     C_1   0.499997 0.227119 0.499996 -0.172893
C21   C     C_1   0.500003 0.857665 0.499996 0.079689
C22   C     C_1   0.499998 0.142300 0.499995 0.040731
C23   C     C_1   0.500002 0.957569 0.499995 0.069561
C24   C     C_1   0.500000 0.042388 0.499994 0.061865
N1    N     N_1   0.731930 0.500000 0.499980 -0.114136
N2    N     N_1   0.268070 0.500000 0.500020 -0.114233
C25   C     C_1   0.826390 0.500013 0.499990 0.222769
C26   C     C_1   0.173610 0.500013 0.500011 0.222400
C27   C     C_1   0.949316 0.500022 0.499998 -0.006847
C28   C     C_1   0.050683 0.500023 0.500003 -0.006866
N3    N     N_R   0.590553 0.651976 0.715385 0.150966
O9    O     O_R   0.557647 0.734793 0.700831 -0.315947
O10   O     O_R   0.683150 0.628673 0.691474 -0.288905
N4    N     N_R   0.411113 0.652877 0.284637 0.150430
O11   O     O_R   0.444780 0.735543 0.298782 -0.315596
O12   O     O_R   0.318478 0.630240 0.309006 -0.289337
C29   C     C_2   0.641238 0.379972 0.245908 0.531483
H3    H     H_    0.611723 0.347239 0.299771 0.029706
O13   O     O_2   0.721107 0.350932 0.214394 -0.437706
C30   C     C_2   0.357228 0.381258 0.754152 0.531748
H4    H     H_    0.386640 0.348006 0.700494 0.030228
O14   O     O_2   0.276787 0.353221 0.785472 -0.437887
N5    N     N_R   0.342650 0.422812 0.920244 0.162807
O15   O     O_R   0.259216 0.453404 0.956670 -0.273088
O16   O     O_R   0.372309 0.338253 0.932079 -0.255581
N6    N     N_R   0.655955 0.421273 0.079744 0.162840
O17   O     O_R   0.739786 0.450980 0.043310 -0.272991
O18   O     O_R   0.625119 0.337086 0.067875 -0.255465
N7    N     N_R   0.436404 0.695886 0.124238 0.160865
O19   O     O_R   0.340073 0.712394 0.141331 -0.241692
O20   O     O_R   0.490915 0.756128 0.083332 -0.227546
N8    N     N_R   0.565430 0.695317 0.875704 0.160821
O21   O     O_R   0.661970 0.710923 0.858714 -0.241605
O22   O     O_R   0.511530 0.756077 0.916500 -0.227631

loop_
_geom_bond_atom_site_label_1
_geom_bond_atom_site_label_2
_geom_bond_distance
_ccdc_geom_bond_type
C1    C19   1.465458 S    
O5    C3    1.225625 A    
O7    Cu2   1.951293 S    
C7    N3    1.434064 S    
C13   N5    1.434826 S    
C9    C11   1.409083 A    
O7    C3    1.224757 A    
C27   C28   1.331629 T    
C10   N7    1.436923 S    
C22   C24   1.441685 S    
C23   C24   1.223900 T    
O5    Cu1   1.954002 S    
C9    N8    1.436950 S    
O6    C4    1.225509 A    
N8    O21   1.301187 A    
N5    O15   1.300834 A    
C11   C13   1.410368 A    
C11   C17   1.474150 S    
C15   C30   1.491467 S    
C20   C22   1.223910 T    
C14   N6    1.434778 S    
N1    C25   1.240895 T    
C12   C18   1.474123 S    
Cu1   Cu2   2.434987 S    
C17   H2    1.085828 S    
N2    C26   1.240896 T    
N3    O10   1.300860 A    
C14   C16   1.412432 A    
Cu1   N2    1.829266 S    
O2    C2    1.234653 A    
O3    Cu2   1.798533 S    
O8    C4    1.224696 A    
O1    C1    1.234575 A    
C8    N4    1.434093 S    
O4    C2    1.234660 A    
C18   H1    1.085839 S    
C7    C9    1.400149 A    
C30   O14   1.220922 D    
C8    C10   1.400193 A    
N5    O16   1.301022 A    
N3    O9    1.300793 A    
C6    C16   1.414193 A    
N7    O19   1.301171 A    
O2    Cu2   1.798521 S    
C12   C14   1.410339 A    
C5    C15   1.414314 A    
O1    Cu1   1.798521 S    
C19   C21   1.223785 T    
N6    O18   1.300985 A    
N4    O12   1.300838 A    
C4    C6    1.465730 S    
C17   C18   1.340537 D    
C13   C15   1.412451 A    
C30   H4    1.085034 S    
C25   C27   1.614857 S    
C6    C8    1.410345 A    
C29   H3    1.085034 S    
C16   C29   1.491551 S    
O4    Cu1   1.798533 S    
N7    O20   1.300496 A    
N4    O11   1.300785 A    
C2    C20   1.465702 S    
O6    Cu2   1.954005 S    
C21   C23   1.441587 S    
N6    O17   1.300819 A    
C5    C7    1.410468 A    
C3    C5    1.466009 S    
C29   O13   1.220841 D    
Cu2   N1    1.829269 S    
C10   C12   1.409069 A    
C26   C28   1.614857 S    
O3    C1    1.234578 A    
O8    Cu1   1.951293 S    
N8    O22   1.300505 A    
