data_mof_unit_47140.cif
_audit_creation_date              2012-12-11T17:47:32-0500
_audit_creation_method            fapswitch 2.2
_symmetry_space_group_name_H-M    P1
_symmetry_Int_Tables_number       1
_space_group_crystal_system       triclinic
_cell_length_a                    14.903884
_cell_length_b                    15.074448
_cell_length_c                    15.223815
_cell_angle_alpha                 109.888758
_cell_angle_beta                  109.300986
_cell_angle_gamma                 108.317091
_cell_volume                      2661.62365891

loop_
_atom_site_label
_atom_site_type_symbol
_atom_type_description
_atom_site_fract_x
_atom_site_fract_y
_atom_site_fract_z
_atom_type_partial_charge
C1    C     C_R   0.910562 0.197453 0.995943 -0.143513
C2    C     C_R   0.025472 0.751032 0.938354 -0.119420
C3    C     C_R   0.306806 0.853358 0.311106 0.080559
C4    C     C_R   0.678203 0.226906 0.677449 0.071970
C5    C     C_R   0.323896 0.497893 0.048148 0.169112
C6    C     C_R   0.693325 0.496920 0.057241 0.209163
C7    C     C_R   0.048299 0.496045 0.319621 0.047948
C8    C     C_R   0.055521 0.506014 0.696921 0.081706
C9    C     C_R   0.945387 0.870669 0.849763 -0.227440
C10   C     C_R   0.839590 0.968189 0.927623 -0.200136
C11   C     C_R   0.112116 0.035481 0.713528 -0.201534
C12   C     C_R   0.838969 0.943149 0.202167 -0.178315
C13   C     C_R   0.028710 0.992191 0.733395 -0.247845
C14   C     C_R   0.878529 0.938786 0.130588 -0.237509
C15   C     C_R   0.696767 0.275427 0.177439 0.605968
C16   C     C_R   0.411242 0.829775 0.844600 0.572163
C17   C     C_R   0.792323 0.351135 0.274223 -0.182975
C18   C     C_R   0.337326 0.726454 0.756662 -0.198824
C19   C     C_R   0.873993 0.325062 0.312739 0.003991
C20   C     C_R   0.226625 0.694939 0.705074 0.034360
C21   C     C_R   0.858767 0.221632 0.254382 -0.179322
C22   C     C_R   0.191129 0.769878 0.738286 -0.227272
C23   C     C_R   0.302257 0.797834 0.213886 -0.140257
C24   C     C_R   0.686075 0.248298 0.777292 -0.093438
C25   C     C_R   0.764772 0.146869 0.156031 -0.169368
C26   C     C_R   0.263350 0.870625 0.829430 -0.155123
C27   C     C_R   0.684551 0.173894 0.116897 -0.304268
C28   C     C_R   0.373113 0.900717 0.882969 -0.290762
C29   C     C_R   0.981724 0.418552 0.506275 -0.266321
C30   C     C_R   0.148583 0.575354 0.513943 -0.267197
C31   C     C_R   0.066074 0.505754 0.604948 0.069384
C32   C     C_R   0.061929 0.488759 0.415430 0.074528
C33   C     C_R   0.148954 0.588321 0.609053 0.067991
C34   C     C_R   0.977351 0.408670 0.411728 0.063106
C35   C     C_R   0.050556 0.020291 0.838176 0.116339
C36   C     C_R   0.807676 0.871648 0.019891 0.046047
C37   C     C_R   0.241347 0.130551 0.902650 -0.163171
C38   C     C_R   0.657036 0.818068 0.053277 -0.090887
C39   C     C_R   0.113346 0.929207 0.462766 -0.387944
C40   C     C_R   0.854221 0.071314 0.562684 -0.376577
C41   C     C_R   0.207997 0.994209 0.466598 0.469950
C42   C     C_R   0.750329 0.049677 0.549406 0.511426
C43   C     C_R   0.302579 0.986193 0.510644 -0.063510
C44   C     C_R   0.690777 0.085723 0.490734 -0.040673
C45   C     C_R   0.224083 0.407938 0.975155 -0.027431
C46   C     C_R   0.785018 0.588384 0.090867 -0.073563
C47   C     C_R   0.305606 0.921957 0.560205 0.138280
C48   C     C_R   0.732725 0.138058 0.440957 0.097985
C49   C     C_R   0.211449 0.861346 0.558139 -0.318205
C50   C     C_R   0.835037 0.154474 0.452363 -0.323519
C51   C     C_R   0.114386 0.861404 0.507614 0.251264
C52   C     C_R   0.896978 0.123444 0.514304 0.269897
C53   C     C_R   0.480963 0.123967 0.567925 -0.254436
C54   C     C_R   0.495947 0.985530 0.403643 -0.251319
C55   C     C_R   0.581724 0.146633 0.573776 0.029355
C56   C     C_R   0.396365 0.958583 0.400485 0.046018
C57   C     C_R   0.588450 0.076103 0.489290 0.152074
C58   C     C_R   0.390126 0.026445 0.487031 0.187489
C59   C     C_R   0.219602 0.101008 0.796812 0.329968
C60   C     C_R   0.727679 0.882846 0.163707 0.274467
C61   C     C_R   0.845596 0.885520 0.945778 0.042577
C62   C     C_R   0.963350 0.969713 0.857903 0.031882
C63   C     C_R   0.157131 0.090169 0.923208 -0.206196
C64   C     C_R   0.697008 0.810790 0.981606 -0.054045
C65   C     C_R   0.905188 0.838870 0.911237 0.062887
C66   C     C_R   0.912053 0.021998 0.901175 0.041900
C67   C     C_R   0.061648 0.588205 0.311946 -0.143291
C68   C     C_R   0.001390 0.413983 0.700052 -0.171474
C69   C     C_3   0.490933 0.390220 0.016578 -0.475532
C70   C     C_3   0.533165 0.598411 0.117358 -0.534120
C71   C     C_3   0.435006 0.444148 0.966611 0.406953
C72   C     C_3   0.589742 0.544638 0.168017 0.459789
C73   C     C_3   0.424149 0.496196 0.065654 -0.072489
C74   C     C_3   0.600193 0.493145 0.068812 -0.036352
C75   C     C_3   0.480788 0.444096 0.116738 0.493741
C76   C     C_3   0.541708 0.543891 0.017199 0.446870
C77   C     C_R   0.314013 0.589536 0.064774 -0.148770
C78   C     C_R   0.697118 0.408216 0.998817 -0.148066
C79   C     C_R   0.983982 0.408971 0.217721 -0.099432
C80   C     C_R   0.089976 0.593010 0.792240 -0.148546
C81   C     C_R   0.210218 0.793066 0.303266 -0.117094
C82   C     C_R   0.781949 0.266151 0.692601 -0.113639
C83   C     C_R   0.999968 0.198475 0.904327 -0.132298
C84   C     C_R   0.930085 0.746793 0.025709 -0.118101
C85   C     C_R   0.942623 0.135599 0.934797 0.079533
C86   C     C_R   0.947419 0.777244 0.953551 0.062237
H1    H     H_    0.852842 0.170759 0.021401 0.107516
H2    H     H_    0.060629 0.763441 0.889339 0.095192
H3    H     H_    0.092735 0.017113 0.632846 0.152872
H4    H     H_    0.894493 0.995984 0.287110 0.123156
H5    H     H_    0.323218 0.182547 0.968930 0.157306
H6    H     H_    0.570552 0.774591 0.022566 0.136769
H7    H     H_    0.612576 0.115858 0.040268 0.107250
H8    H     H_    0.428322 0.979937 0.952444 0.120302
H9    H     H_    0.803168 0.430448 0.319479 0.155699
H10   H     H_    0.366317 0.671277 0.727836 0.140739
H11   H     H_    0.921720 0.200878 0.282777 0.124674
H12   H     H_    0.106224 0.747411 0.697226 0.126770
H13   H     H_    0.754376 0.068257 0.109761 0.146774
H14   H     H_    0.234394 0.925804 0.857750 0.162867
H15   H     H_    0.912205 0.363034 0.502455 0.130377
H16   H     H_    0.210899 0.638286 0.516069 0.137224
H17   H     H_    0.947001 0.936644 0.667461 0.138917
H18   H     H_    0.963751 0.989708 0.160945 0.150940
H19   H     H_    0.355985 0.827856 0.185404 0.090176
H20   H     H_    0.621039 0.228190 0.795755 0.081528
H21   H     H_    0.175014 0.111462 0.004801 0.152903
H22   H     H_    0.641224 0.761904 0.896207 0.163593
H23   H     H_    0.038928 0.928988 0.421139 0.145677
H24   H     H_    0.901242 0.046121 0.609223 0.140243
H25   H     H_    0.212650 0.809322 0.591901 0.164319
H26   H     H_    0.866569 0.190540 0.412126 0.157053
H27   H     H_    0.475512 0.174632 0.634171 0.134519
H28   H     H_    0.505039 0.930390 0.343920 0.129129
H29   H     H_    0.981677 0.830497 0.811879 0.124324
H30   H     H_    0.791713 0.000967 0.952372 0.132477
H31   H     H_    0.479238 0.308086 0.979710 0.184813
H32   H     H_    0.543523 0.679379 0.157240 0.193978
H33   H     H_    0.205932 0.324677 0.941187 0.123794
H34   H     H_    0.809864 0.670178 0.146613 0.106827
H35   H     H_    0.106630 0.669695 0.376655 0.110786
H36   H     H_    0.975131 0.332591 0.644337 0.136323
H37   H     H_    0.377326 0.672297 0.113093 0.099550
H38   H     H_    0.643446 0.325171 0.970630 0.119752
H39   H     H_    0.965541 0.327036 0.193968 0.122756
H40   H     H_    0.148719 0.674837 0.828484 0.128540
H41   H     H_    0.176415 0.810433 0.353603 0.117295
H42   H     H_    0.807111 0.274622 0.636506 0.101577
H43   H     H_    0.018638 0.172597 0.840667 0.114113
H44   H     H_    0.872826 0.749141 0.053124 0.135146
N1    N     N_R   0.947560 0.293820 0.002910 -0.043910
N2    N     N_R   0.052440 0.706180 0.997090 -0.042301
N3    N     N_R   0.208960 0.706170 0.152110 -0.040199
N4    N     N_R   0.791040 0.293830 0.847890 -0.041445
N5    N     N_R   0.154330 0.443160 0.946140 -0.057252
N6    N     N_R   0.845670 0.556840 0.053860 -0.060260
N7    N     N_R   0.002190 0.556820 0.208880 -0.040454
N8    N     N_R   0.997810 0.443180 0.791120 -0.039786
N9    N     N_R   0.210550 0.556810 0.002910 -0.046899
N10   N     N_R   0.789450 0.443190 0.997090 -0.052274
N11   N     N_R   0.945970 0.443180 0.152110 -0.043854
N12   N     N_R   0.054030 0.556820 0.847890 -0.040406
N13   N     N_R   0.151530 0.706170 0.208880 -0.045806
N14   N     N_R   0.848470 0.293830 0.791120 -0.039888
N15   N     N_R   0.004980 0.293810 0.946140 -0.047679
N16   N     N_R   0.995020 0.706190 0.053860 -0.045499
Ni1   Ni    Ni4+2 0.869690 0.369690 0.000000 0.222725
Ni2   Ni    Ni4+2 0.130310 0.630310 0.000000 0.217522
Ni3   Ni    Ni4+2 0.001390 0.369680 0.869810 0.221239
Ni4   Ni    Ni4+2 0.998610 0.630320 0.130190 0.222176
O1    O     O_3   0.616692 0.302453 0.144716 -0.793113
H45   H     H_    0.550785 0.236944 0.081971 0.290138
O2    O     O_3   0.519806 0.859589 0.889623 -0.807093
H46   H     H_    0.561008 0.933543 0.951451 0.301698
O3    O     O_3   0.444706 0.393787 0.169518 -0.753054
H47   H     H_    0.505288 0.384812 0.210114 0.358701
O4    O     O_3   0.573786 0.590412 0.960205 -0.768867
H48   H     H_    0.508833 0.589498 0.912700 0.318031
C87   C     C_3   0.015772 0.787055 0.504416 -0.367262
C88   C     C_3   0.910869 0.786897 0.445975 -0.864520
H49   H     H_    0.920099 0.868595 0.483828 0.236052
H50   H     H_    0.887241 0.757569 0.360106 0.278289
H51   H     H_    0.846005 0.732856 0.452377 0.286397
H52   H     H_    0.002202 0.703361 0.465898 0.197640
H53   H     H_    0.032799 0.810332 0.587850 0.195996
C89   C     C_3   0.005478 0.139467 0.523060 -0.429687
C90   C     C_3   0.100365 0.223046 0.635728 -0.783169
H54   H     H_    0.119065 0.305527 0.649976 0.259387
H55   H     H_    0.083011 0.212265 0.698038 0.251119
H56   H     H_    0.173576 0.214707 0.643372 0.253466
H57   H     H_    0.005202 0.061499 0.500964 0.176071
H58   H     H_    0.018940 0.164546 0.465774 0.190189
O5    O     O_3   0.207376 0.058031 0.419597 -0.749981
H59   H     H_    0.135011 0.053859 0.391802 0.309490
O6    O     O_3   0.707232 0.998019 0.596683 -0.759458
H60   H     H_    0.759889 0.980208 0.636481 0.314146
C91   C     C_3   0.405962 0.912577 0.612545 -0.339980
C92   C     C_3   0.407916 0.817481 0.535540 -0.814358
H61   H     H_    0.325608 0.747059 0.481391 0.238064
H62   H     H_    0.441240 0.839691 0.486588 0.269822
H63   H     H_    0.461265 0.794019 0.582026 0.256528
H64   H     H_    0.481407 0.987747 0.646736 0.206241
H65   H     H_    0.408079 0.901212 0.681439 0.198590
C93   C     C_3   0.673921 0.183885 0.383109 -0.306671
C94   C     C_3   0.587319 0.100277 0.266995 -0.883993
H66   H     H_    0.622904 0.063281 0.222163 0.257308
H67   H     H_    0.520812 0.036125 0.261821 0.251550
H68   H     H_    0.551587 0.139882 0.227603 0.259303
H69   H     H_    0.636563 0.220045 0.426535 0.187758
H70   H     H_    0.732183 0.250487 0.382833 0.192544
O7    O     O_3   0.352117 0.396205 0.861288 -0.778671
H71   H     H_    0.387520 0.389987 0.816302 0.316858
O8    O     O_3   0.672407 0.593314 0.273045 -0.766454
H72   H     H_    0.642216 0.620370 0.318759 0.321200
C95   C     C_3   0.309559 0.136872 0.771427 -0.390514
C96   C     C_3   0.390635 0.098458 0.808203 -0.969825
H73   H     H_    0.430246 0.130866 0.895865 0.242257
H74   H     H_    0.348313 0.010027 0.769275 0.290953
H75   H     H_    0.453992 0.124235 0.785920 0.250890
H76   H     H_    0.276534 0.106105 0.684196 0.196823
H77   H     H_    0.351746 0.224748 0.809236 0.223540
C97   C     C_3   0.683767 0.891158 0.239782 -0.433452
C98   C     C_3   0.731568 0.854343 0.316565 -0.884165
H78   H     H_    0.727937 0.776765 0.272461 0.291009
H79   H     H_    0.817799 0.913633 0.373826 0.252182
H80   H     H_    0.686889 0.845854 0.361402 0.264426
H81   H     H_    0.704479 0.975030 0.284902 0.225958
H82   H     H_    0.593930 0.845537 0.196813 0.172037

loop_
_geom_bond_atom_site_label_1
_geom_bond_atom_site_label_2
_ccdc_geom_bond_type
C16   C28   A    
C39   C51   A    
C98   H78   S    
C91   H65   S    
C1    H1    S    
O4    H48   S    
C22   H12   S    
C18   H10   S    
C3    C23   A    
N6    N10   A    
C66   C85   S    
C15   O1    S    
C92   H61   S    
C65   C86   S    
C90   H55   S    
O5    H59   S    
C89   H58   S    
N4    Ni1   S    
C98   H79   S    
C74   C76   S    
C23   N3    A    
C12   H4    S    
C19   C21   A    
C84   C86   A    
C13   C35   A    
C42   O6    S    
C96   H75   S    
C14   C36   A    
C71   C76   S    
C4    C24   A    
C92   H62   S    
C94   H67   S    
C91   H64   S    
C23   H19   S    
C38   H6    S    
C51   C87   S    
C93   C94   S    
C28   H8    S    
C2    C86   A    
C69   H31   S    
C69   C71   S    
N7    N11   A    
C43   C58   S    
C52   C89   S    
C83   N15   A    
C68   N8    A    
C25   H13   S    
N13   Ni4   S    
O6    H60   S    
C49   C51   A    
C16   O2    S    
C3    C81   A    
C2    N2    A    
O1    H45   S    
C31   C33   A    
C2    H2    S    
C17   H9    S    
C13   H17   S    
C78   H38   S    
C49   H25   S    
C45   H33   S    
C10   C66   A    
C79   H39   S    
C89   H57   S    
C97   H82   S    
C81   H41   S    
C41   C43   A    
C42   C44   A    
C72   C75   S    
C11   C59   A    
C67   H35   S    
N10   Ni1   S    
C37   C63   A    
C82   N14   A    
C53   H27   S    
C6    C74   S    
C90   H56   S    
C38   C64   A    
C53   C55   A    
N8    Ni3   S    
C1    C85   A    
C15   C27   A    
N9    Ni2   S    
C98   H80   S    
C54   C56   A    
C76   O4    S    
C45   N5    A    
N3    N13   A    
C97   C98   S    
C37   H5    S    
C46   H34   S    
C9    C62   A    
C9    H29   S    
C88   H51   S    
N12   Ni2   S    
C72   C74   S    
C21   C25   A    
N8    N12   A    
C68   H36   S    
C90   H54   S    
C48   C93   S    
C62   C66   A    
C96   H73   S    
C94   H68   S    
C40   H24   S    
C59   C95   S    
C40   C52   A    
C5    C45   A    
C29   C34   A    
C70   C72   S    
C14   H18   S    
O7    H71   S    
C46   N6    A    
C32   C34   A    
N5    N9    A    
N14   Ni3   S    
C77   H37   S    
C61   C65   A    
C21   H11   S    
C3    C56   S    
C11   H3    S    
C50   C52   A    
C87   C88   S    
C39   H23   S    
C44   C57   S    
C30   H16   S    
C70   C73   S    
C50   H26   S    
C29   H15   S    
C69   C74   S    
N3    Ni2   S    
N1    Ni1   S    
C48   C50   A    
C82   H42   S    
C37   C59   A    
C91   C92   S    
C38   C60   A    
C20   C33   S    
C96   H74   S    
C83   C85   A    
C12   C14   A    
C8    C68   A    
C43   C47   A    
C80   N12   A    
C97   H81   S    
C55   C57   A    
C4    C55   S    
C70   C76   S    
C89   C90   S    
C93   H70   S    
N7    Ni4   S    
C27   H7    S    
C10   C61   A    
C24   H20   S    
C73   C75   S    
C69   C75   S    
C5    C77   A    
C36   C61   S    
C72   O8    S    
C10   H30   S    
N4    N14   A    
C7    C79   A    
C95   H76   S    
C24   N4    A    
C15   C17   A    
C41   O5    S    
C7    C32   S    
C6    C46   A    
C30   C33   A    
C93   H69   S    
N2    Ni2   S    
C16   C18   A    
C77   N9    A    
C20   C22   A    
C40   C42   A    
C1    N1    A    
C19   C34   S    
C78   N10   A    
N6    Ni4   S    
C53   C58   A    
N16   Ni4   S    
C95   H77   S    
C84   N16   A    
C60   C97   S    
C47   C49   A    
C26   C28   A    
N2    N16   A    
C88   H49   S    
C26   H14   S    
C47   C91   S    
N5    Ni3   S    
C30   C32   A    
C11   C13   A    
C94   H66   S    
C79   N11   A    
C80   H40   S    
C70   H32   S    
C83   H43   S    
C54   H28   S    
C84   H44   S    
C17   C19   A    
C56   C58   A    
N1    N15   A    
C35   C62   S    
C18   C20   A    
C87   H53   S    
C5    C73   S    
C67   N7    A    
C9    C65   A    
C92   H63   S    
C6    C78   A    
N11   Ni1   S    
C7    C67   A    
C95   C96   S    
C12   C60   A    
C75   O3    S    
C81   N13   A    
C4    C82   A    
C39   C41   A    
C29   C31   A    
O8    H72   S    
C22   C26   A    
C71   C73   S    
O3    H47   S    
C8    C80   A    
C87   H52   S    
C35   C63   A    
C71   O7    S    
O2    H46   S    
C36   C64   A    
C63   H21   S    
C54   C57   A    
N15   Ni3   S    
C8    C31   S    
C44   C48   A    
C64   H22   S    
C88   H50   S    
C25   C27   A    
