data_mof_unit_26711.cif
_audit_creation_date              2012-10-26T19:04:18-0400
_audit_creation_method            fapswitch 2.2
_symmetry_space_group_name_H-M    P1
_symmetry_Int_Tables_number       1
_space_group_crystal_system       triclinic
_cell_length_a                    14.889825
_cell_length_b                    15.841608
_cell_length_c                    9.575061
_cell_angle_alpha                 89.999983
_cell_angle_beta                  85.524709
_cell_angle_gamma                 90.0
_cell_volume                      2251.66746281

loop_
_atom_site_label
_atom_site_type_symbol
_atom_type_description
_atom_site_fract_x
_atom_site_fract_y
_atom_site_fract_z
_atom_type_partial_charge
C1    C     C_R   0.381104 0.880191 0.504415 0.541470
C2    C     C_R   0.737583 0.206210 0.380871 -0.139587
C3    C     C_R   0.237584 0.293790 0.380871 -0.139587
C4    C     C_R   0.237584 0.706209 0.380872 -0.139587
C5    C     C_R   0.672494 0.803493 0.492249 0.006176
C6    C     C_R   0.672495 0.196507 0.492250 0.006174
C7    C     C_R   0.172495 0.303493 0.492249 0.006176
C8    C     C_R   0.172494 0.696507 0.492249 0.006177
C9    C     C_R   0.664477 0.000000 0.127366 -0.085829
C10   C     C_R   0.164477 0.500000 0.127366 -0.085829
C11   C     C_R   0.746052 0.000000 0.046853 -0.159488
C12   C     C_R   0.381105 0.119809 0.504415 0.541470
C13   C     C_R   0.246052 0.500000 0.046853 -0.159489
C14   C     C_R   0.747189 0.000000 0.902705 -0.151501
C15   C     C_R   0.247189 0.500000 0.902705 -0.151502
C16   C     C_R   0.666795 0.000000 0.838159 -0.065059
C17   C     C_R   0.166795 0.500000 0.838159 -0.065059
C18   C     C_R   0.581716 0.000000 0.916147 0.168153
C19   C     C_R   0.081716 0.500000 0.916147 0.168153
C20   C     C_R   0.581253 0.000000 0.066001 0.161092
C21   C     C_R   0.081253 0.500000 0.066001 0.161092
C22   C     C_R   0.422991 1.000000 0.083360 -0.029167
C23   C     C_R   0.881105 0.380190 0.504415 0.541470
C24   C     C_R   0.922991 0.500000 0.083360 -0.029168
C25   C     C_R   0.614320 0.122346 0.496977 0.533449
C26   C     C_R   0.614320 0.877655 0.496976 0.533450
C27   C     C_R   0.114320 0.622345 0.496976 0.533449
C28   C     C_R   0.114320 0.377654 0.496977 0.533449
C29   C     C_R   0.422934 1.000000 0.935031 -0.047288
C30   C     C_R   0.922934 0.500000 0.935031 -0.047288
C31   C     C_R   0.263837 0.179984 0.772564 -0.112071
C32   C     C_R   0.263833 0.820020 0.772563 -0.112073
C33   C     C_R   0.763834 0.679981 0.772563 -0.112073
C34   C     C_R   0.881104 0.619809 0.504415 0.541470
C35   C     C_R   0.763839 0.320014 0.772564 -0.112069
C36   C     C_R   0.195639 0.196967 0.882197 0.288788
C37   C     C_R   0.195633 0.803038 0.882195 0.288788
C38   C     C_R   0.695635 0.696963 0.882196 0.288788
C39   C     C_R   0.695642 0.303031 0.882198 0.288787
C40   C     C_R   0.611951 0.724974 0.847687 -0.074115
C41   C     C_R   0.611957 0.275021 0.847691 -0.074117
C42   C     C_R   0.111954 0.224977 0.847689 -0.074116
C43   C     C_R   0.111950 0.775026 0.847685 -0.074115
C44   C     C_R   0.599515 0.749309 0.712294 -0.143270
C45   C     C_R   0.304952 0.234243 0.389047 -0.151807
C46   C     C_R   0.599518 0.250688 0.712298 -0.143269
C47   C     C_R   0.099516 0.249310 0.712296 -0.143269
C48   C     C_R   0.099514 0.750691 0.712292 -0.143270
C49   C     C_R   0.672922 0.750671 0.610335 0.014912
C50   C     C_R   0.672924 0.249328 0.610337 0.014912
C51   C     C_R   0.172923 0.250671 0.610336 0.014912
C52   C     C_R   0.172921 0.749329 0.610335 0.014913
C53   C     C_R   0.250804 0.203230 0.631868 -0.017468
C54   C     C_R   0.250801 0.796772 0.631867 -0.017468
C55   C     C_R   0.750802 0.703228 0.631867 -0.017468
C56   C     C_R   0.304952 0.765756 0.389048 -0.151807
C57   C     C_R   0.750805 0.296769 0.631868 -0.017469
C58   C     C_R   0.313164 0.187850 0.512697 -0.014920
C59   C     C_R   0.313163 0.812151 0.512697 -0.014920
C60   C     C_R   0.813164 0.687849 0.512697 -0.014920
C61   C     C_R   0.813165 0.312150 0.512697 -0.014921
C62   C     C_3   0.263705 0.131509 0.062020 -0.135447
C63   C     C_3   0.263702 0.868493 0.062018 -0.135445
C64   C     C_3   0.763703 0.631507 0.062019 -0.135446
C65   C     C_3   0.763704 0.368492 0.062020 -0.135449
C66   C     C_R   0.804952 0.734243 0.389047 -0.151807
C67   C     C_R   0.804952 0.265757 0.389047 -0.151806
C68   C     C_R   0.737584 0.793791 0.380872 -0.139587
Cu1   Cu    Cu3+1 0.499990 1.000000 0.640660 0.898651
Cu2   Cu    Cu3+1 0.999990 0.500000 0.640660 0.898651
Cu3   Cu    Cu3+1 0.500010 0.000000 0.359340 0.922316
Cu4   Cu    Cu3+1 0.000010 0.500000 0.359340 0.922316
H1    H     H_    0.352968 0.226520 0.298953 0.143861
H2    H     H_    0.860250 0.499999 0.885639 0.097400
H3    H     H_    0.328369 0.157796 0.800093 0.134056
H4    H     H_    0.328364 0.842209 0.800093 0.134055
H5    H     H_    0.828365 0.657792 0.800093 0.134055
H6    H     H_    0.828371 0.342201 0.800094 0.134057
H7    H     H_    0.557856 0.733946 0.928750 0.133408
H8    H     H_    0.557863 0.266048 0.928757 0.133407
H9    H     H_    0.057860 0.233949 0.928754 0.133408
H10   H     H_    0.057855 0.766055 0.928749 0.133408
H11   H     H_    0.533994 0.773526 0.690761 0.143148
H12   H     H_    0.352969 0.773480 0.298954 0.143859
H13   H     H_    0.533997 0.226473 0.690767 0.143148
H14   H     H_    0.033996 0.273526 0.690764 0.143148
H15   H     H_    0.033994 0.726474 0.690759 0.143148
H16   H     H_    0.737506 0.833379 0.288582 0.149735
H17   H     H_    0.737504 0.166622 0.288580 0.149740
H18   H     H_    0.237505 0.333379 0.288581 0.149738
H19   H     H_    0.237506 0.666621 0.288583 0.149734
H20   H     H_    0.360263 1.000000 0.147656 0.101289
H21   H     H_    0.860263 0.500000 0.147656 0.101288
H22   H     H_    0.670052 0.000000 0.237250 0.176900
H23   H     H_    0.852969 0.726520 0.298954 0.143860
H24   H     H_    0.170052 0.500000 0.237250 0.176900
H25   H     H_    0.808812 0.000000 0.096893 0.117380
H26   H     H_    0.308812 0.500000 0.096893 0.117379
H27   H     H_    0.335617 0.148573 0.038879 0.124069
H28   H     H_    0.245537 0.071609 0.011294 0.088846
H29   H     H_    0.252187 0.121623 0.176616 0.156512
H30   H     H_    0.245538 0.928394 0.011293 0.088845
H31   H     H_    0.335613 0.851424 0.038877 0.124068
H32   H     H_    0.252185 0.878379 0.176614 0.156512
H33   H     H_    0.835614 0.648574 0.038877 0.124069
H34   H     H_    0.852967 0.273481 0.298952 0.143863
H35   H     H_    0.745537 0.571606 0.011293 0.088845
H36   H     H_    0.752185 0.621621 0.176614 0.156512
H37   H     H_    0.745533 0.428390 0.011293 0.088845
H38   H     H_    0.835618 0.351431 0.038881 0.124071
H39   H     H_    0.752185 0.378378 0.176616 0.156511
H40   H     H_    0.810963 0.000000 0.840017 0.120187
H41   H     H_    0.310962 0.500000 0.840017 0.120186
H42   H     H_    0.676198 1.000000 0.727074 0.184725
H43   H     H_    0.176198 0.500000 0.727074 0.184725
H44   H     H_    0.360250 1.000000 0.885638 0.097399
N1    N     N_R   0.501200 0.000000 0.147910 -0.239555
N2    N     N_R   0.001200 0.500000 0.147910 -0.239554
N3    N     N_R   0.501270 1.000000 0.852040 -0.245160
N4    N     N_R   0.001270 0.500000 0.852040 -0.245160
O1    O     O_R   0.409820 0.909830 0.618810 -0.517349
O2    O     O_R   0.590170 0.909830 0.618760 -0.523926
O3    O     O_R   0.090170 0.590170 0.618760 -0.523926
O4    O     O_R   0.090170 0.409830 0.618760 -0.523927
O5    O     O_R   0.590190 0.090180 0.381190 -0.517327
O6    O     O_R   0.590190 0.909820 0.381190 -0.517326
O7    O     O_R   0.090190 0.590180 0.381190 -0.517326
O8    O     O_R   0.090190 0.409820 0.381190 -0.517327
O9    O     O_3   0.208955 0.197995 0.024079 -0.569079
O10   O     O_3   0.208947 0.802011 0.024078 -0.569078
O11   O     O_3   0.708949 0.697990 0.024078 -0.569078
O12   O     O_R   0.409820 0.090170 0.618810 -0.517349
O13   O     O_3   0.708959 0.302002 0.024079 -0.569079
O14   O     O_R   0.909820 0.409830 0.618810 -0.517349
O15   O     O_R   0.909820 0.590170 0.618810 -0.517349
O16   O     O_R   0.409840 0.909830 0.381240 -0.504587
O17   O     O_R   0.409840 0.090170 0.381240 -0.504587
O18   O     O_R   0.909840 0.409830 0.381240 -0.504587
O19   O     O_R   0.909840 0.590170 0.381240 -0.504587
O20   O     O_R   0.590170 0.090170 0.618760 -0.523927

loop_
_geom_bond_atom_site_label_1
_geom_bond_atom_site_label_2
_ccdc_geom_bond_type
C44   C49   A    
C33   C55   A    
C22   N1    A    
C66   C68   A    
C22   C29   A    
C23   O18   A    
C36   C42   A    
C4    C8    A    
C44   H11   S    
C41   H8    S    
C64   H33   S    
C39   C41   A    
C14   H40   S    
C29   N3    A    
C63   H30   S    
Cu4   O8    S    
C3    H18   S    
Cu1   O2    S    
C28   O8    A    
C19   C21   A    
C3    C7    A    
C1    C59   S    
C30   H2    S    
C11   C14   A    
C6    C25   S    
C34   O19   A    
C37   O10   S    
C45   H1    S    
C26   O6    A    
C63   O10   S    
C13   H26   S    
Cu1   Cu3   S    
C25   O5    A    
C65   H39   S    
C27   O7    A    
Cu2   O3    S    
Cu4   O19   S    
Cu2   N4    S    
C41   C46   A    
C15   H41   S    
Cu3   O6    S    
C56   H12   S    
Cu1   O1    S    
C1    O16   A    
C43   C48   A    
C8    C52   A    
C40   C44   A    
C62   H29   S    
C4    H19   S    
C12   C58   S    
Cu1   O20   S    
Cu4   O18   S    
C60   C66   A    
C55   C60   A    
C4    C56   A    
C34   C60   S    
C62   O9    S    
C5    C49   A    
C2    C6    A    
C42   H9    S    
C5    C68   A    
C32   C54   A    
C20   N1    A    
C52   C54   A    
C64   H36   S    
C1    O1    A    
C54   C59   A    
C10   C21   A    
C45   C58   A    
C48   H15   S    
Cu3   N1    S    
Cu4   O7    S    
C47   H14   S    
C25   O20   A    
Cu3   O17   S    
C2    C67   A    
Cu3   O16   S    
C27   O3    A    
C47   C51   A    
C49   C55   A    
C3    C45   A    
C31   C53   A    
C7    C28   S    
C62   H27   S    
C51   C53   A    
C37   C43   A    
C2    H17   S    
C35   C39   A    
C21   N2    A    
C61   C67   A    
C9    C20   A    
C31   H3    S    
C64   O11   S    
C10   H24   S    
C40   H7    S    
C32   C37   A    
C6    C50   A    
C9    C11   A    
C65   H37   S    
C62   H28   S    
C63   H31   S    
C29   H44   S    
C19   N4    A    
C13   C15   A    
Cu2   O15   S    
C68   H16   S    
C14   C16   A    
C17   H43   S    
C64   H35   S    
C39   O13   S    
C23   C61   S    
C15   C17   A    
C12   O12   A    
C23   O14   A    
C12   O17   A    
C50   C57   A    
C63   H32   S    
C10   C13   A    
C16   H42   S    
C32   H4    S    
C53   C58   A    
C28   O4    A    
C67   H34   S    
C57   C61   A    
C46   C50   A    
C35   H6    S    
C24   N2    A    
C33   C38   A    
C56   C59   A    
C11   H25   S    
C35   C57   A    
C38   O11   S    
C46   H13   S    
C7    C51   A    
C24   H21   S    
C38   C40   A    
C33   H5    S    
C30   N4    A    
C34   O15   A    
Cu1   O12   S    
C9    H22   S    
C17   C19   A    
Cu1   N3    S    
C18   C20   A    
C42   C47   A    
C24   C30   A    
C65   H38   S    
C5    C26   S    
Cu2   O4    S    
C48   C52   A    
C16   C18   A    
Cu4   N2    S    
Cu2   O14   S    
C8    C27   S    
C22   H20   S    
C31   C36   A    
Cu3   O5    S    
Cu2   Cu4   S    
C26   O2    A    
C36   O9    S    
C18   N3    A    
C65   O13   S    
C43   H10   S    
C66   H23   S    
