data_mof_unit_67531.cif
_audit_creation_date              2012-12-10T16:47:28-0500
_audit_creation_method            fapswitch 2.2
_symmetry_space_group_name_H-M    P1
_symmetry_Int_Tables_number       1
_space_group_crystal_system       triclinic
_cell_length_a                    10.660674
_cell_length_b                    8.7076
_cell_length_c                    7.52715
_cell_angle_alpha                 102.276851
_cell_angle_beta                  95.450986
_cell_angle_gamma                 94.026135
_cell_volume                      676.728122401

loop_
_atom_site_label
_atom_site_type_symbol
_atom_type_description
_atom_site_fract_x
_atom_site_fract_y
_atom_site_fract_z
_atom_type_partial_charge
C1    C     C_R   0.491746 0.200383 0.454578 0.844057
C2    C     C_R   0.508252 0.799617 0.545422 0.844052
C3    C     C_R   0.260169 0.499765 0.500671 0.925875
C4    C     C_R   0.739837 0.500235 0.499329 0.925861
C5    C     C_3   0.054158 0.542077 0.674375 -0.175034
C6    C     C_3   0.945857 0.457909 0.325619 -0.175146
C7    C     C_3   0.957645 0.398472 0.593431 0.295100
C8    C     C_3   0.042368 0.601521 0.406564 0.295068
C9    C     C_3   0.875815 0.501491 0.497382 -0.098655
C10   C     C_3   0.124196 0.498503 0.502617 -0.098664
C11   C     C_3   0.972443 0.646050 0.577145 -0.122293
C12   C     C_3   0.027575 0.353932 0.422855 -0.122332
C13   C     C_2   0.472435 0.032287 0.434474 0.183064
C14   C     C_2   0.527560 0.967713 0.565528 0.182968
Cu1   Cu    Cu3+1 0.514140 0.517380 0.684380 1.052677
Cu2   Cu    Cu3+1 0.485860 0.482620 0.315620 1.052653
N1    N     N_2   0.464560 0.456420 0.038510 -0.206833
N2    N     N_2   0.535440 0.543580 0.961490 -0.206841
O1    O     O_R   0.509190 0.286130 0.619780 -0.570033
O2    O     O_R   0.490810 0.713870 0.380220 -0.570033
O3    O     O_R   0.485310 0.256770 0.308360 -0.635265
O4    O     O_R   0.514690 0.743230 0.691640 -0.635239
O5    O     O_R   0.328790 0.514640 0.655680 -0.579475
O6    O     O_R   0.671210 0.485360 0.344320 -0.579470
O7    O     O_R   0.304910 0.485280 0.344260 -0.548192
O8    O     O_R   0.695090 0.514720 0.655740 -0.548136
O9    O     O_3   0.909473 0.291379 0.690129 -0.671317
H1    H     H_    0.983702 0.241798 0.734338 0.338239
O10   O     O_3   0.090530 0.708635 0.309880 -0.671252
H2    H     H_    0.016279 0.758093 0.265511 0.338225
C15   C     C_2   0.114055 0.586863 0.868652 0.479488
H3    H     H_    0.108553 0.502951 0.955905 0.109004
O11   O     O_2   0.173434 0.715575 0.927289 -0.500188
C16   C     C_2   0.885948 0.413120 0.131347 0.479507
H4    H     H_    0.891443 0.497025 0.044079 0.108995
O12   O     O_2   0.826569 0.284407 0.072722 -0.500165
C17   C     C_2   0.946283 0.811554 0.658463 0.440382
H5    H     H_    0.024479 0.901792 0.708266 0.122342
O13   O     O_2   0.837892 0.845889 0.668295 -0.549541
C18   C     C_2   0.053738 0.188393 0.341618 0.440308
H6    H     H_    0.975527 0.098186 0.291692 0.122346
O14   O     O_2   0.162134 0.154000 0.332014 -0.549477
C19   C     C_2   0.405574 0.311663 0.931841 0.736402
H7    H     H_    0.456378 0.207065 0.916106 0.061148
O15   O     O_2   0.294465 0.300581 0.870458 -0.609432
C20   C     C_2   0.594425 0.688337 0.068159 0.736460
H8    H     H_    0.543628 0.792942 0.083863 0.061106
O16   O     O_2   0.705525 0.699412 0.129579 -0.609450
O17   O     O_3   0.390487 0.941397 0.290055 -0.693486
H9    H     H_    0.357769 0.009091 0.209167 0.372066
O18   O     O_3   0.609508 0.058603 0.709948 -0.693543
H10   H     H_    0.642245 0.990903 0.790816 0.372098

loop_
_geom_bond_atom_site_label_1
_geom_bond_atom_site_label_2
_ccdc_geom_bond_type
C12   C18   S    
Cu1   N2    S    
C4    O8    A    
C19   H7    S    
N1    C19   S    
C11   C17   S    
C1    O3    A    
Cu2   O3    S    
C16   H4    S    
C9    C11   S    
Cu2   O6    S    
C3    O5    A    
C14   O18   S    
Cu2   O2    S    
Cu1   Cu2   S    
C6    C9    S    
Cu1   O5    S    
N1    N2    D    
C2    C14   S    
C5    C10   S    
C17   O13   D    
C3    C10   S    
C2    O4    A    
Cu1   O1    S    
C19   O15   D    
O10   H2    S    
C10   C12   S    
C8    C11   S    
C13   O17   S    
C8    O10   S    
N2    C20   S    
C18   O14   D    
C18   H6    S    
C17   H5    S    
C5    C11   S    
C16   O12   D    
C6    C12   S    
C7    C12   S    
C4    O6    A    
C20   O16   D    
C1    O1    A    
C8    C10   S    
C1    C13   S    
C15   O11   D    
C2    O2    A    
O18   H10   S    
C6    C16   S    
C3    O7    A    
C7    O9    S    
C7    C9    S    
O17   H9    S    
Cu2   O7    S    
C5    C7    S    
C20   H8    S    
Cu1   O8    S    
C6    C8    S    
C5    C15   S    
C4    C9    S    
C13   C14   D    
Cu1   O4    S    
C15   H3    S    
Cu2   N1    S    
O9    H1    S    
