data_mof_unit_67045.cif
_audit_creation_date              2013-03-05T15:58:15-0500
_audit_creation_method            fapswitch 2.2
_symmetry_space_group_name_H-M    P1
_symmetry_Int_Tables_number       1
_space_group_crystal_system       triclinic
_cell_length_a                    8.224259
_cell_length_b                    12.70231
_cell_length_c                    14.321731
_cell_angle_alpha                 93.050947
_cell_angle_beta                  90.590263
_cell_angle_gamma                 97.768074
_cell_volume                      1480.08719027

loop_
_atom_site_label
_atom_site_type_symbol
_atom_site_description
_atom_site_fract_x
_atom_site_fract_y
_atom_site_fract_z
_atom_type_partial_charge
P1    P     P_3+3 0.054400 0.427280 0.286870 0.492418
O1    O     O_2   0.887370 0.460630 0.272300 -0.381551
O2    O     O_3   0.129410 0.451380 0.388510 -0.410838
O3    O     O_3   0.670210 0.653170 0.329170 -0.383078
O4    O     O_2   0.789172 0.589314 0.165942 -0.381406
O5    O     O_3   0.024405 0.289896 0.261428 -0.501448
O6    O     O_3   0.713263 0.780520 0.172479 -0.507286
H1    H     H_    0.739356 0.867130 0.299070 0.141396
C1    C     C_3   0.647338 0.956216 0.191097 -1.045937
H2    H     H_    0.621804 0.018822 0.244044 0.241783
H3    H     H_    0.764985 0.981394 0.156171 0.300241
P2    P     P_3+3 0.668300 0.742890 0.573060 0.458819
P3    P     P_3+3 0.132428 0.842815 0.378859 0.446378
O7    O     O_2   0.845380 0.761330 0.544970 -0.383876
O8    O     O_3   0.088930 0.704860 0.376040 -0.355934
O9    O     O_2   0.010692 0.886964 0.446508 -0.398036
O10   O     O_3   0.680493 0.763710 0.695058 -0.552672
O11   O     O_3   0.075490 0.883511 0.270083 -0.495303
C2    C     C_3   0.194311 0.860884 0.205217 0.406377
H4    H     H_    0.220775 0.777429 0.207752 0.079443
H5    H     H_    0.308151 0.917442 0.219133 0.050187
C3    C     C_3   0.131214 0.875727 0.107472 -0.927624
H6    H     H_    0.014774 0.821329 0.092220 0.296739
H7    H     H_    0.108440 0.959384 0.101498 0.274608
C4    C     C_3   0.227882 0.762987 0.661624 0.141602
H8    H     H_    0.347394 0.736848 0.643199 0.123595
H9    H     H_    0.141042 0.748215 0.600624 0.120317
C5    C     C_3   0.253698 0.882592 0.689204 0.103424
H10   H     H_    0.139590 0.907534 0.719883 0.118787
H11   H     H_    0.274759 0.926614 0.624333 0.128651
Ba1   Ba    Ba6+2 0.855630 0.555280 0.454520 1.557370
C6    C     C_3   0.969482 0.235604 0.339848 0.416430
H12   H     H_    0.838073 0.242176 0.348530 0.069731
H13   H     H_    0.039969 0.265339 0.404686 0.112931
C7    C     C_3   0.990842 0.119456 0.321833 -0.836297
H14   H     H_    0.935266 0.089735 0.253198 0.282443
H15   H     H_    0.931559 0.070566 0.376998 0.215917
H16   H     H_    0.123447 0.111538 0.319917 0.255412
C8    C     C_3   0.714031 0.670647 0.735185 0.439967
H17   H     H_    0.830554 0.648117 0.708221 0.097581
H18   H     H_    0.613259 0.604312 0.719994 0.126757
C9    C     C_3   0.729957 0.691266 0.840771 -1.027980
H19   H     H_    0.828440 0.758499 0.858398 0.268969
H20   H     H_    0.760310 0.619830 0.874380 0.233336
H21   H     H_    0.611786 0.710136 0.869313 0.251515
P4    P     P_3+3 0.135310 0.572810 0.713130 0.458057
O12   O     O_2   0.302330 0.539400 0.727760 -0.365853
O13   O     O_3   0.060300 0.548700 0.611500 -0.395178
O14   O     O_3   0.519500 0.346920 0.670840 -0.319811
O15   O     O_3   0.161917 0.709323 0.738133 -0.614926
P5    P     P_3+3 0.059539 0.155943 0.619410 0.497519
O16   O     O_3   0.614310 0.373510 0.452640 -0.407320
O17   O     O_3   0.100780 0.295230 0.623970 -0.356005
O18   O     O_2   0.202830 0.111729 0.568576 -0.358808
O19   O     O_3   0.075918 0.116400 0.733610 -0.501462
Ba2   Ba    Ba6+2 0.334200 0.444810 0.545490 1.568882
P6    P     P_3+3 0.655331 0.651378 0.207190 0.462729
C10   C     C_3   0.654401 0.852321 0.237478 0.517563
H22   H     H_    0.528766 0.823221 0.261358 -0.018217
H23   H     H_    0.548571 0.944891 0.136787 0.239982
O20   O     O_3   0.575400 0.626570 0.547370 -0.411391
C11   C     C_3   0.504475 0.314452 0.259697 0.411086
H24   H     H_    0.394175 0.351204 0.280120 0.069273
H25   H     H_    0.615951 0.369867 0.280045 0.134958
C12   C     C_3   0.504111 0.294771 0.154145 -0.786624
H26   H     H_    0.376599 0.265988 0.130309 0.202227
H27   H     H_    0.545492 0.370397 0.120552 0.166729
P7    P     P_3+3 0.525270 0.241697 0.421660 0.417490
O21   O     O_2   0.344320 0.238700 0.455090 -0.355676
O22   O     O_3   0.503128 0.217280 0.301499 -0.606622
H28   H     H_    0.224083 0.857015 0.055521 0.193932
C13   C     C_3   0.935531 0.137453 0.783481 0.378296
H29   H     H_    0.962946 0.215314 0.822273 0.078207
H30   H     H_    0.824389 0.140852 0.740130 0.076392
C14   C     C_3   0.889716 0.049915 0.850328 -0.974340
H31   H     H_    0.792430 0.071841 0.896980 0.247268
H32   H     H_    0.849815 0.973761 0.811059 0.268802
H33   H     H_    0.993228 0.038077 0.894882 0.259710
P8    P     P_3+3 0.537479 0.348760 0.792565 0.482322
C15   C     C_3   0.451365 0.219568 0.921470 0.283066
H34   H     H_    0.451701 0.298995 0.957992 0.064566
O23   O     O_2   0.412910 0.419012 0.832524 -0.413387
O24   O     O_3   0.459558 0.220772 0.823341 -0.466614
H35   H     H_    0.561441 0.187358 0.946241 0.038287
H36   H     H_    0.323904 0.098520 0.006675 0.176006
C16   C     C_3   0.296087 0.148860 0.949205 -0.682400
H37   H     H_    0.250343 0.094880 0.888659 0.250350
C17   C     C_R   0.986435 0.449030 0.060474 -0.069088
C18   C     C_R   0.182364 0.499020 0.195604 0.279794
C19   C     C_R   0.336899 0.549383 0.225519 -0.509988
C20   C     C_R   0.450192 0.594827 0.162617 0.239493
C21   C     C_R   0.406795 0.597931 0.068234 -0.314549
C22   C     C_R   0.250524 0.551608 0.034954 0.066905
C23   C     C_R   0.138109 0.498866 0.097853 -0.027622
H38   H     H_    0.372466 0.549343 0.298480 0.171367
C24   C     C_R   0.056985 0.503132 0.901487 -0.022634
C25   C     C_R   0.945288 0.450905 0.964476 0.057433
C26   C     C_R   0.012109 0.499356 0.803682 0.287975
C27   C     C_R   0.860847 0.443763 0.773237 -0.487793
C28   C     C_R   0.747180 0.399687 0.836441 0.196764
C29   C     C_R   0.790413 0.402478 0.931516 -0.309093
C30   C     C_R   0.207734 0.555973 0.939132 -0.148216
H39   H     H_    0.495456 0.635869 0.020882 0.158196
H40   H     H_    0.703889 0.368866 0.981015 0.127324
H41   H     H_    0.826028 0.441468 0.700003 0.165053
H42   H     H_    0.897968 0.408859 0.105743 0.208610
H43   H     H_    0.294676 0.599575 0.894446 0.159361
C31   C     C_R   0.768300 0.174536 0.526417 -0.482030
C32   C     C_R   0.429225 0.813524 0.463082 -0.516397
C33   C     C_R   0.407351 0.993842 0.425960 -0.226462
C34   C     C_R   0.342405 0.886931 0.422984 0.167429
C35   C     C_R   0.576675 0.846314 0.512151 0.295830
C36   C     C_R   0.643763 0.956223 0.517497 -0.033410
C37   C     C_R   0.557161 0.030366 0.473051 -0.041290
C38   C     C_R   0.620623 0.139778 0.479490 0.282910
C39   C     C_R   0.859398 0.102928 0.564373 0.156848
C40   C     C_R   0.794349 0.995055 0.564649 -0.148978
H44   H     H_    0.336909 0.047647 0.393274 0.177979
H45   H     H_    0.862943 0.943638 0.602039 0.171028
H46   H     H_    0.816422 0.258348 0.530270 0.158117
H47   H     H_    0.376553 0.730597 0.460634 0.176471
O25   O     O_3   0.393680 0.911022 0.748857 -0.573474
C41   C     C_3   0.359089 0.881640 0.841565 0.437005
H48   H     H_    0.352632 0.794645 0.847066 0.123831
H49   H     H_    0.243746 0.909320 0.868053 0.068433
C42   C     C_3   0.499880 0.929208 0.905601 -1.000913
H50   H     H_    0.524691 0.014878 0.896963 0.283029
H51   H     H_    0.471421 0.915053 0.979600 0.213782
H52   H     H_    0.610470 0.892791 0.887049 0.285746
C43   C     C_2   0.611270 0.211915 0.126122 0.671400
H53   H     H_    0.555371 0.132392 0.103878 0.014491
O26   O     O_2   0.760253 0.231271 0.132039 -0.549764
C44   C     C_2   0.166220 0.214897 0.980026 0.577274
H54   H     H_    0.144503 0.282735 0.941496 0.054816
O27   O     O_2   0.084676 0.192874 0.048391 -0.545914

loop_
_geom_bond_atom_site_label_1
_geom_bond_atom_site_label_2
_geom_bond_distance
_ccdc_geom_bond_type
O5    C6    1.396314 S    
C22   C23   1.424436 A    
C24   C30   1.414583 A    
C31   H46   1.082804 S    
C2    H4    1.112992 S    
O7    Ba1   2.869927 S    
C15   H35   1.105331 S    
C33   H44   1.075817 S    
C37   C38   1.414820 A    
C41   H48   1.106177 S    
C8    H18   1.110032 S    
H36   C16   1.109208 S    
C4    C5    1.535072 S    
C42   H50   1.093599 S    
P3    O11   1.746306 S    
C31   C38   1.388644 A    
C5    H10   1.117217 S    
C7    H15   1.107185 S    
O11   C2    1.402420 S    
C32   C34   1.391974 A    
C5    O25   1.421325 S    
C41   H49   1.118374 S    
P1    Ba1   3.385956 S    
C39   C40   1.402221 A    
C11   O22   1.398988 S    
P1    O1    1.506938 D    
O10   C8    1.400328 S    
C18   C23   1.442698 A    
Ba1   O20   2.898106 S    
C4    O15   1.396927 S    
C28   C29   1.401153 A    
C11   H25   1.104142 S    
C21   H39   1.083429 S    
H1    C10   1.111652 S    
C33   C34   1.388744 A    
C7    H14   1.105568 S    
P7    O21   1.564183 D    
C12   H27   1.110993 S    
C24   C26   1.441519 A    
P2    O10   1.752951 S    
C42   H51   1.106463 S    
Ba1   Ba2   4.554072 S    
P5    O18   1.545083 D    
C1    H2    1.111639 S    
C33   C37   1.408237 A    
O6    C10   1.403930 S    
C17   C25   1.414709 A    
O16   P7    1.766145 S    
P4    C26   1.865309 S    
C9    H20   1.105728 S    
C13   C14   1.517377 S    
C35   C36   1.427896 A    
C12   C43   1.502838 S    
C8    C9    1.522144 S    
C17   C23   1.407140 A    
O25   C41   1.419500 S    
C27   H41   1.082231 S    
P4    O13   1.573488 S    
P1    O5    1.747306 S    
C6    C7    1.518074 S    
P8    C28   1.849467 S    
C19   H38   1.082227 S    
C2    C3    1.517903 S    
C13   H30   1.106643 S    
C32   C35   1.397373 A    
C20   C21   1.398447 A    
Ba2   O21   2.870149 S    
C16   H37   1.106280 S    
C13   H29   1.102864 S    
C41   C42   1.508947 S    
C42   H52   1.103372 S    
C10   H22   1.112972 S    
O14   P8    1.746700 S    
O1    Ba1   2.844127 S    
P1    O2    1.573608 S    
C9    H21   1.108966 S    
C6    H13   1.110580 S    
O3    P6    1.748706 S    
C43   O26   1.217841 D    
C14   H31   1.102533 S    
C11   H24   1.109858 S    
C17   H42   1.074543 S    
O2    Ba2   2.806799 S    
C16   C44   1.500569 S    
C27   C28   1.391622 A    
P3    O8    1.738683 S    
C24   C25   1.419089 A    
C7    H16   1.109150 S    
C30   H43   1.080600 S    
O2    Ba1   2.901682 S    
C14   H32   1.100992 S    
C36   C40   1.419607 A    
P2    O7    1.505841 D    
C12   H26   1.107093 S    
C29   H40   1.073160 S    
Ba1   O13   2.806230 S    
C1    H3    1.109961 S    
P2    Ba1   3.398617 S    
C44   H54   1.081264 S    
C3    H7    1.111205 S    
C9    H19   1.111286 S    
C3    H28   1.111487 S    
P2    C35   1.852222 S    
C15   O24   1.408490 S    
C36   C37   1.426621 A    
O17   Ba2   2.800785 S    
O13   Ba2   2.902444 S    
P4    O12   1.507297 D    
C1    C10   1.516408 S    
P1    C18   1.882106 S    
P6    C20   1.836092 S    
C11   C12   1.518936 S    
C2    H5    1.109727 S    
C3    H6    1.114885 S    
O19   C13   1.412384 S    
C15   H34   1.111099 S    
C22   C30   1.419039 A    
P8    O23   1.542159 D    
O8    Ba1   2.800195 S    
C4    H9    1.114437 S    
O14   Ba2   2.790143 S    
P4    O15   1.735712 S    
C15   C16   1.527632 S    
P5    C39   1.844253 S    
Ba1   O16   2.832704 S    
O4    P6    1.542903 D    
C1    H23   1.108586 S    
C6    H12   1.102943 S    
C31   C39   1.382979 A    
C40   H45   1.078034 S    
C43   H53   1.081829 S    
C4    H8    1.109146 S    
P3    C34   1.836790 S    
P8    O24   1.745976 S    
P2    O20   1.591664 S    
C32   H47   1.082061 S    
C19   C20   1.392909 A    
C5    H11   1.112790 S    
C21   C22   1.406506 A    
P5    O19   1.745458 S    
C14   H33   1.090009 S    
O3    Ba1   2.790736 S    
P7    C38   1.830880 S    
C8    H17   1.104260 S    
P7    O22   1.735613 S    
C26   C27   1.398187 A    
P3    O9    1.539307 D    
P4    Ba2   3.386406 S    
C44   O27   1.215983 D    
Ba2   O20   2.832030 S    
P5    O17   1.753468 S    
C18   C19   1.395680 A    
O6    P6    1.745125 S    
C25   C29   1.403036 A    
O16   Ba2   2.897325 S    
O12   Ba2   2.844641 S    
