data_mof_unit_55276.cif
_audit_creation_date              2012-12-11T15:55:54-0500
_audit_creation_method            fapswitch 2.2
_symmetry_space_group_name_H-M    P1
_symmetry_Int_Tables_number       1
_space_group_crystal_system       triclinic
_cell_length_a                    10.990441
_cell_length_b                    10.999495
_cell_length_c                    18.721989
_cell_angle_alpha                 90.711781
_cell_angle_beta                  90.928404
_cell_angle_gamma                 59.838751
_cell_volume                      1956.5915792

loop_
_atom_site_label
_atom_site_type_symbol
_atom_type_description
_atom_site_fract_x
_atom_site_fract_y
_atom_site_fract_z
_atom_type_partial_charge
C1    C     C_R   0.385297 0.711698 0.389473 0.542197
C2    C     C_R   0.227818 0.419364 0.204020 -0.161888
C3    C     C_R   0.233183 0.420723 0.278062 -0.049439
C4    C     C_R   0.387096 0.354303 0.387563 0.524498
C5    C     C_R   0.879259 0.703747 0.404927 -0.093786
C6    C     C_R   0.963402 0.563651 0.425511 -0.058254
C7    C     C_R   0.068846 0.467508 0.380491 -0.048944
C8    C     C_R   0.101727 0.514205 0.317984 0.042623
C9    C     C_R   0.365613 0.340401 0.311794 -0.000853
C10   C     C_R   0.840576 0.345392 0.179113 0.017257
C11   C     C_R   0.854998 0.234562 0.220921 0.026194
C12   C     C_R   0.614365 0.181133 0.154777 0.054722
C13   C     C_R   0.810330 0.257206 0.290493 0.001932
C14   C     C_R   0.730321 0.504474 0.278057 -0.152946
C15   C     C_R   0.770755 0.482645 0.206927 -0.155100
C16   C     C_R   0.715873 0.413818 0.394954 0.547625
C17   C     C_3   0.984741 0.098433 0.238878 -0.246377
C18   C     C_3   0.934662 0.122834 0.315281 -0.257532
C19   C     C_R   0.754072 0.390706 0.320821 0.013967
C20   C     C_R   0.369109 0.816353 0.169417 0.017636
C21   C     C_R   0.432336 0.862119 0.219884 0.002033
C22   C     C_R   0.438766 0.828032 0.291285 0.008231
C23   C     C_R   0.349551 0.336448 0.163425 -0.004979
C24   C     C_R   0.337716 0.683717 0.262979 -0.165326
C25   C     C_R   0.330770 0.718074 0.190768 -0.152912
C26   C     C_3   0.401104 0.007406 0.237502 -0.258270
C27   C     C_3   0.408010 0.970146 0.315773 -0.263599
C28   C     C_R   0.344657 0.771071 0.603832 0.548641
C29   C     C_R   0.382698 0.746347 0.314497 0.012173
C30   C     C_R   0.301834 0.309799 0.809784 0.006673
C31   C     C_R   0.369093 0.191386 0.765543 0.009203
C32   C     C_R   0.373609 0.201310 0.693153 0.020422
C33   C     C_R   0.231489 0.454015 0.704333 -0.094745
C34   C     C_R   0.488555 0.266073 0.270704 -0.155415
C35   C     C_R   0.224442 0.443670 0.778452 0.223488
C36   C     C_3   0.513384 0.065482 0.769543 -0.267214
C37   C     C_3   0.515039 0.070430 0.688783 -0.275039
C38   C     C_R   0.317659 0.333260 0.662394 -0.013035
C39   C     C_R   0.790210 0.352722 0.840390 0.005303
C40   C     C_R   0.369244 0.351001 0.595345 0.540094
C41   C     C_R   0.772256 0.471964 0.803972 -0.033283
C42   C     C_R   0.742142 0.489086 0.732396 0.038372
C43   C     C_R   0.709144 0.289701 0.731685 -0.164755
C44   C     C_R   0.744008 0.269081 0.805450 -0.176152
C45   C     C_R   0.483073 0.265982 0.196630 -0.033916
C46   C     C_3   0.869023 0.530759 0.797818 -0.147060
C47   C     C_3   0.836804 0.547345 0.718910 0.111544
C48   C     C_R   0.720088 0.393791 0.693397 0.042613
C49   C     C_R   0.296959 0.846318 0.824982 0.004421
C50   C     C_R   0.181801 0.876474 0.780753 0.017463
C51   C     C_R   0.194982 0.861312 0.707954 0.027522
C52   C     C_R   0.700028 0.412523 0.615944 0.582142
C53   C     C_R   0.441761 0.783310 0.720611 -0.169222
C54   C     C_R   0.429765 0.790678 0.794632 -0.174619
C55   C     C_3   0.041478 0.005496 0.775864 -0.240350
C56   C     C_R   0.015668 0.655561 0.297391 -0.096242
C57   C     C_3   0.055595 0.990561 0.695465 -0.263521
C58   C     C_R   0.323220 0.822167 0.676435 0.018151
C59   C     C_R   0.912219 0.315495 0.111973 0.546080
C60   C     C_R   0.327500 0.295356 0.092330 0.532122
C61   C     C_R   0.310281 0.894825 0.103815 0.537381
C62   C     C_R   0.876412 0.313052 0.906291 0.524695
C63   C     C_R   0.292255 0.283519 0.883887 0.541866
C64   C     C_R   0.825579 0.002362 0.059450 -0.065498
C65   C     C_R   0.273396 0.896538 0.897522 0.536663
C66   C     C_R   0.732062 0.141938 0.040965 -0.060149
C67   C     C_R   0.903890 0.749064 0.340294 -0.117167
C68   C     C_R   0.631519 0.232693 0.089523 -0.063641
C69   C     C_3   0.202965 0.595900 0.870312 0.018027
C70   C     C_3   0.097425 0.686279 0.927049 -0.333588
C71   C     C_R   0.712119 0.041467 0.173935 -0.100982
C72   C     C_R   0.817089 0.952816 0.126381 -0.125903
Cr1   Cr    Cr6+3 0.601740 0.606840 0.505840 0.975773
Cr2   Cr    Cr6+3 0.291500 0.601560 0.495070 1.002190
Cr3   Cr    Cr6+3 0.606780 0.291630 0.499130 0.991818
Cr4   Cr    Cr6+3 0.062440 0.063060 0.008240 0.974038
Cr5   Cr    Cr6+3 0.062950 0.375000 0.998920 0.987748
Cr6   Cr    Cr6+3 0.374550 0.061770 0.992470 1.009431
H1    H     H_    0.590856 0.209630 0.296430 0.141216
H2    H     H_    0.004476 0.139738 0.352738 0.150763
H3    H     H_    0.301007 0.614605 0.279275 0.137883
H4    H     H_    0.890152 0.844880 0.140920 0.091502
H5    H     H_    0.283395 0.678231 0.152941 0.121028
H6    H     H_    0.295495 0.090714 0.219083 0.137032
H7    H     H_    0.488397 0.022330 0.221196 0.154883
H8    H     H_    0.498765 0.966597 0.344834 0.144949
H9    H     H_    0.305013 0.030027 0.343056 0.140351
H10   H     H_    0.179034 0.558103 0.681049 0.153843
H11   H     H_    0.514381 0.971848 0.790482 0.157608
H12   H     H_    0.795447 0.777228 0.439199 0.100423
H13   H     H_    0.590567 0.089307 0.795718 0.127702
H14   H     H_    0.601057 0.084402 0.668563 0.150581
H15   H     H_    0.839110 0.857722 0.324616 0.091674
H16   H     H_    0.508015 0.983118 0.662430 0.140508
H17   H     H_    0.684243 0.218752 0.703875 0.125184
H18   H     H_    0.747115 0.181559 0.832846 0.105048
H19   H     H_    0.979866 0.450833 0.810009 0.227860
H20   H     H_    0.828615 0.632779 0.826492 0.106755
H21   H     H_    0.781730 0.658642 0.700584 0.087182
H22   H     H_    0.543696 0.746656 0.697760 0.120883
H23   H     H_    0.946578 0.529157 0.476412 0.138980
H24   H     H_    0.521904 0.762893 0.827616 0.118459
H25   H     H_    0.042844 0.099701 0.796914 0.163963
H26   H     H_    0.904579 0.932844 0.021984 0.096989
H27   H     H_    0.958546 0.986557 0.796819 0.136469
H28   H     H_    0.978216 0.966409 0.669763 0.141620
H29   H     H_    0.064605 0.076389 0.669834 0.168046
H30   H     H_    0.735537 0.179919 0.988632 0.113413
H31   H     H_    0.559238 0.340189 0.073747 0.083051
H32   H     H_    0.038097 0.694945 0.249619 0.090115
H33   H     H_    0.704701 0.999064 0.224346 0.081286
H34   H     H_    0.131412 0.358812 0.396934 0.097075
H35   H     H_    0.125085 0.476066 0.178466 0.147988
H36   H     H_    0.249956 0.651840 0.846013 0.141656
H37   H     H_    0.292505 0.505411 0.897203 0.108422
H38   H     H_    0.043910 0.631775 0.948331 0.161017
H39   H     H_    0.152319 0.705886 0.972118 0.113430
H40   H     H_    0.016551 0.787825 0.903540 0.147490
H41   H     H_    0.965087 0.510447 0.641104 0.328339
H42   H     H_    0.688668 0.608274 0.300848 0.145860
H43   H     H_    0.757133 0.571014 0.175720 0.139100
H44   H     H_    0.082464 0.102741 0.231935 0.136050
H45   H     H_    0.986313 0.005847 0.213766 0.159797
H46   H     H_    0.904156 0.046275 0.333635 0.139961
O1    O     O_R   0.748670 0.497520 0.427970 -0.530191
O2    O     O_R   0.417470 0.174910 0.067830 -0.502488
O3    O     O_R   0.375160 0.946380 0.070880 -0.493496
O4    O     O_R   0.476470 0.723930 0.429450 -0.512940
O5    O     O_R   0.160500 0.919670 0.926690 -0.540928
O6    O     O_R   0.933140 0.190380 0.936050 -0.520382
O7    O     O_R   0.909010 0.403210 0.925030 -0.527568
O8    O     O_R   0.179590 0.361290 0.918480 -0.489753
O9    O     O_R   0.391360 0.170840 0.907510 -0.533153
O10   O     O_R   0.350950 0.942600 0.922260 -0.504041
O11   O     O_3   0.166650 0.166610 0.999880 -0.242974
O12   O     O_R   0.300170 0.471020 0.567120 -0.514153
O13   O     O_R   0.264730 0.744140 0.416740 -0.500749
O14   O     O_R   0.309440 0.472410 0.418220 -0.505768
O15   O     O_R   0.501630 0.260530 0.414310 -0.535326
O16   O     O_R   0.727920 0.305730 0.428950 -0.493433
O17   O     O_R   0.738670 0.496020 0.588600 -0.500228
O18   O     O_R   0.467190 0.722540 0.578350 -0.527671
O19   O     O_R   0.254720 0.742640 0.577370 -0.510080
O20   O     O_3   0.132174 0.562510 0.816773 -0.575864
O21   O     O_3   0.954866 0.453937 0.678926 -0.681775
O22   O     O_R   0.491630 0.259030 0.574940 -0.530241
O23   O     O_R   0.718640 0.304340 0.577850 -0.498113
O24   O     O_3   0.500010 0.500010 0.500020 -0.305078
O25   O     O_R   0.186620 0.923750 0.087000 -0.533015
O26   O     O_R   0.957350 0.194160 0.084660 -0.492734
O27   O     O_R   0.935120 0.407280 0.085350 -0.533075
O28   O     O_R   0.203800 0.365060 0.067090 -0.521489

loop_
_geom_bond_atom_site_label_1
_geom_bond_atom_site_label_2
_ccdc_geom_bond_type
C36   H11   S    
C66   C68   A    
Cr2   O19   S    
C47   O21   S    
C23   C45   A    
C22   C29   A    
C41   C42   A    
C62   O6    A    
C1    O4    A    
C21   C26   S    
Cr5   O27   S    
C7    C8    A    
C39   C41   A    
Cr1   O17   S    
C53   C54   A    
C69   O20   S    
Cr2   O14   S    
C26   C27   S    
C49   C65   S    
C13   C18   S    
C55   H27   S    
C3    C9    A    
C63   O9    A    
Cr2   O24   S    
C36   C37   S    
C33   H10   S    
Cr3   O16   S    
C26   H7    S    
C60   O28   A    
C30   C31   A    
C2    H35   S    
C16   O1    A    
C20   C25   A    
C70   H39   S    
C49   C54   A    
C55   H25   S    
C47   H21   S    
C7    H34   S    
C52   O17   A    
Cr5   O7    S    
C6    H23   S    
C51   C58   A    
C20   C61   S    
C24   C29   A    
Cr4   O6    S    
C17   H45   S    
C11   C17   S    
C71   H33   S    
C43   H17   S    
C41   C46   S    
C51   C57   S    
C32   C38   A    
Cr6   O11   S    
C65   O10   A    
C5    C67   A    
C35   O20   S    
C68   H31   S    
C57   H28   S    
C46   H20   S    
C53   H22   S    
C21   C22   A    
C8    C56   A    
C16   O16   A    
Cr6   O3    S    
C14   C19   A    
Cr5   O28   S    
C56   H32   S    
Cr4   O11   S    
C54   H24   S    
C50   C51   A    
Cr1   O18   S    
Cr3   O22   S    
C23   C60   S    
Cr2   O13   S    
C69   H36   S    
C13   C19   A    
Cr1   O24   S    
C24   C25   A    
C3    C8    S    
C28   O19   A    
Cr3   O23   S    
C63   O8    A    
C59   O27   A    
Cr2   O12   S    
Cr5   O8    S    
C64   C66   A    
C27   H8    S    
C43   C44   A    
C44   H18   S    
C34   H1    S    
C12   C68   A    
Cr4   O5    S    
C31   C32   A    
C24   H3    S    
Cr4   O26   S    
C1    C29   S    
C17   C18   S    
C61   O3    A    
C34   C45   A    
C42   C48   A    
C32   C37   S    
C27   H9    S    
Cr6   O10   S    
C6    C7    A    
C30   C35   A    
C36   H13   S    
C57   H29   S    
C46   H19   S    
C52   O23   A    
C14   H42   S    
C22   C27   S    
C55   C57   S    
C9    C34   A    
C28   O18   A    
C56   C67   A    
C1    O13   A    
C25   H5    S    
C43   C48   A    
C59   O26   A    
C64   H26   S    
C39   C62   S    
C46   C47   S    
C69   H37   S    
C26   H6    S    
C15   H43   S    
C37   H14   S    
C31   C36   S    
C62   O7    A    
C12   C71   A    
C5    H12   S    
C66   H30   S    
C12   C45   S    
C65   O5    A    
C53   C58   A    
C39   C44   A    
C28   C58   S    
Cr3   O24   S    
H41   O21   S    
Cr1   O4    S    
Cr5   O11   S    
C50   C55   S    
C40   O22   A    
C10   C15   A    
C70   H38   S    
C60   O2    A    
C2    C3    A    
C71   C72   A    
Cr3   O15   S    
C4    O15   A    
C38   C40   S    
C11   C13   A    
C5    C6    A    
Cr4   O25   S    
C70   H40   S    
C16   C19   S    
Cr1   O1    S    
C33   C35   A    
C37   H16   S    
C10   C59   S    
C42   C47   S    
C64   C72   A    
C69   C70   S    
Cr6   O9    S    
C10   C11   A    
C4    O14   A    
C17   H44   S    
C48   C52   S    
C20   C21   A    
C18   H2    S    
C49   C50   A    
C2    C23   A    
C67   H15   S    
C14   C15   A    
C33   C38   A    
C40   O12   A    
C4    C9    S    
C30   C63   S    
C61   O25   A    
C72   H4    S    
C18   H46   S    
Cr6   O2    S    
