data_mof_unit_46627.cif
_audit_creation_date              2012-12-11T15:34:24-0500
_audit_creation_method            fapswitch 2.2
_symmetry_space_group_name_H-M    P1
_symmetry_Int_Tables_number       1
_space_group_crystal_system       triclinic
_cell_length_a                    15.050548
_cell_length_b                    15.038174
_cell_length_c                    34.88788
_cell_angle_alpha                 90.828785
_cell_angle_beta                  90.544254
_cell_angle_gamma                 59.906431
_cell_volume                      6831.17602973

loop_
_atom_site_label
_atom_site_type_symbol
_atom_type_description
_atom_site_fract_x
_atom_site_fract_y
_atom_site_fract_z
_atom_type_partial_charge
C1    C     C_R   0.305463 0.607672 0.556369 0.536086
C2    C     C_R   0.607553 0.649418 0.675388 0.027703
C3    C     C_R   0.265095 0.608920 0.269904 0.041413
C4    C     C_R   0.172811 0.653520 0.291698 0.102231
C5    C     C_R   0.076242 0.703656 0.272994 0.013168
C6    C     C_R   0.073015 0.708535 0.233043 -0.123624
C7    C     C_R   0.163415 0.662362 0.211631 -0.012617
C8    C     C_R   0.214844 0.554728 0.352199 0.218494
C9    C     C_R   0.244249 0.547157 0.390677 -0.144741
C10   C     C_R   0.184803 0.730992 0.393518 0.002977
C11   C     C_R   0.156960 0.737126 0.354818 -0.174425
C12   C     C_R   0.178190 0.648821 0.333785 0.058513
C13   C     C_R   0.560659 0.731740 0.649850 -0.129770
C14   C     C_R   0.237321 0.632388 0.410753 0.001763
C15   C     C_R   0.734999 0.026816 0.943561 0.566932
C16   C     C_R   0.746294 0.722874 0.944280 0.528692
C17   C     C_R   0.038922 0.733164 0.948660 0.536872
C18   C     C_R   0.722322 0.040626 0.052368 0.536271
C19   C     C_R   0.733410 0.733988 0.054583 0.533249
C20   C     C_R   0.030072 0.743535 0.057428 0.537915
C21   C     C_R   0.565883 0.712686 0.610318 -0.135986
C22   C     C_R   0.610623 0.680424 0.794092 0.324443
C23   C     C_R   0.599397 0.666905 0.716889 0.326962
C24   C     C_R   0.702367 0.591718 0.855003 0.001531
C25   C     C_R   0.752036 0.601395 0.888876 -0.006200
C26   C     C_R   0.623909 0.785054 0.890323 -0.090120
C27   C     C_R   0.586653 0.778170 0.854683 0.201949
C28   C     C_R   0.628719 0.682147 0.835804 0.001689
C29   C     C_R   0.609557 0.586865 0.556064 0.530105
C30   C     C_R   0.707615 0.700308 0.907614 -0.059108
C31   C     C_R   0.720017 0.077917 0.906235 0.057686
C32   C     C_R   0.623782 0.123955 0.887306 0.241027
C33   C     C_R   0.618839 0.147172 0.848175 -0.113221
C34   C     C_R   0.707918 0.125013 0.828283 -0.015145
C35   C     C_R   0.800388 0.090589 0.848057 -0.159335
C36   C     C_R   0.806544 0.066908 0.886759 -0.184821
C37   C     C_R   0.671238 0.227337 0.768466 0.231612
C38   C     C_R   0.666879 0.232598 0.728753 -0.112942
C39   C     C_R   0.692461 0.145902 0.706019 -0.017137
C40   C     C_R   0.591165 0.299781 0.553640 0.565622
C41   C     C_R   0.725532 0.050077 0.722844 0.223968
C42   C     C_R   0.734155 0.041376 0.763463 -0.003800
C43   C     C_R   0.705332 0.131351 0.786194 -0.001384
C44   C     C_R   0.594423 0.165748 0.645204 -0.001100
C45   C     C_R   0.570986 0.205584 0.607934 -0.178455
C46   C     C_R   0.723821 0.221671 0.606388 0.271039
C47   C     C_R   0.748876 0.182493 0.643938 0.230877
C48   C     C_R   0.681401 0.159336 0.663969 0.041310
C49   C     C_R   0.631212 0.238729 0.589261 -0.009659
C50   C     C_R   0.095836 0.692233 0.912650 -0.009891
C51   C     C_R   0.297818 0.611335 0.446506 0.543882
C52   C     C_R   0.155216 0.731280 0.897749 -0.123617
C53   C     C_R   0.191656 0.708279 0.860000 0.010642
C54   C     C_R   0.166019 0.646142 0.836781 0.026795
C55   C     C_R   0.110871 0.601997 0.852464 0.009319
C56   C     C_R   0.078351 0.624075 0.890491 -0.118423
C57   C     C_R   0.279083 0.564869 0.778758 0.249034
C58   C     C_R   0.291798 0.565090 0.738825 0.055486
C59   C     C_R   0.208539 0.635768 0.715722 -0.011051
C60   C     C_R   0.114441 0.708410 0.732667 -0.008342
C61   C     C_R   0.104049 0.708422 0.772289 -0.146585
C62   C     C_R   0.608763 0.591832 0.445600 0.537447
C63   C     C_R   0.184531 0.638305 0.795264 -0.017914
C64   C     C_R   0.264264 0.696373 0.659173 0.017383
C65   C     C_R   0.285714 0.688031 0.620066 -0.100082
C66   C     C_R   0.222442 0.569388 0.610756 -0.140581
C67   C     C_R   0.199925 0.577236 0.649795 -0.139925
C68   C     C_R   0.222844 0.638240 0.674190 0.027272
C69   C     C_R   0.266074 0.624390 0.595720 0.009577
C70   C     C_R   0.699611 0.721423 0.092669 0.028806
C71   C     C_R   0.595039 0.764292 0.103460 0.001353
C72   C     C_R   0.571474 0.766483 0.142598 -0.070991
C73   C     C_R   0.587502 0.302870 0.443484 0.535801
C74   C     C_R   0.649789 0.724364 0.170146 0.053947
C75   C     C_R   0.752270 0.675983 0.158901 -0.114679
C76   C     C_R   0.776915 0.674492 0.120676 -0.139278
C77   C     C_R   0.599278 0.663817 0.226755 0.212221
C78   C     C_R   0.598418 0.654799 0.266561 -0.155496
C79   C     C_R   0.621269 0.714864 0.291199 -0.055083
C80   C     C_R   0.643601 0.788328 0.275903 0.056493
C81   C     C_R   0.647614 0.795912 0.235734 0.208274
C82   C     C_R   0.626705 0.732176 0.211301 0.036767
C83   C     C_R   0.542411 0.755009 0.356659 0.046858
C84   C     C_R   0.621612 0.611454 0.596037 0.021883
C85   C     C_R   0.544570 0.728047 0.395091 0.215831
C86   C     C_R   0.718915 0.581032 0.387604 -0.009976
C87   C     C_R   0.717236 0.607791 0.348289 0.014189
C88   C     C_R   0.627465 0.693158 0.332876 -0.025678
C89   C     C_R   0.627083 0.635162 0.409743 -0.012938
C90   C     C_R   0.696911 0.103561 0.087733 0.030555
C91   C     C_R   0.742770 0.163227 0.098399 0.012626
C92   C     C_R   0.730368 0.201041 0.136291 -0.100974
C93   C     C_R   0.667751 0.187169 0.162083 0.058429
C94   C     C_R   0.615897 0.136441 0.150157 -0.082691
C95   C     C_R   0.673235 0.530089 0.621823 -0.125024
C96   C     C_R   0.630660 0.094748 0.113575 -0.143316
C97   C     C_R   0.567675 0.274802 0.220986 0.248765
C98   C     C_R   0.564429 0.280901 0.261144 -0.123796
C99   C     C_R   0.655008 0.229620 0.282840 -0.004520
C100  C     C_R   0.750051 0.177060 0.264194 -0.132434
C101  C     C_R   0.754030 0.170115 0.224349 -0.162361
C102  C     C_R   0.663126 0.215817 0.202705 0.072664
C103  C     C_R   0.714459 0.248991 0.347596 -0.134207
C104  C     C_R   0.699631 0.261972 0.386960 -0.144320
C105  C     C_R   0.560359 0.223496 0.382223 0.017069
C106  C     C_R   0.664798 0.548812 0.661154 -0.127618
C107  C     C_R   0.575214 0.213281 0.342414 -0.111150
C108  C     C_R   0.649055 0.229670 0.324919 0.018779
C109  C     C_R   0.618869 0.256021 0.404667 0.032110
C110  C     C_R   0.091362 0.704872 0.092971 -0.018270
C111  C     C_R   0.088071 0.626100 0.112668 -0.160216
C112  C     C_R   0.121301 0.604098 0.150604 0.004305
C113  C     C_R   0.155883 0.664865 0.169642 0.005043
C114  C     C_R   0.170208 0.737131 0.148943 0.060170
C115  C     C_R   0.141905 0.753683 0.109996 0.237809
C116  C     C_R   0.258714 0.611721 0.229854 -0.124480
Cr1   Cr    Cr6+3 0.421670 0.426920 0.499620 0.998156
Cr2   Cr    Cr6+3 0.427030 0.651190 0.500980 1.021811
Cr3   Cr    Cr6+3 0.651280 0.421870 0.499380 1.043199
Cr4   Cr    Cr6+3 0.910810 0.908010 0.001130 1.013480
Cr5   Cr    Cr6+3 0.682800 0.909890 0.998370 1.038256
Cr6   Cr    Cr6+3 0.908370 0.682300 0.002180 1.000472
H1    H     H_    0.714828 0.451117 0.611734 0.172271
H2    H     H_    0.880937 0.033094 0.900653 0.139126
H3    H     H_    0.641684 0.306089 0.715328 0.147921
H4    H     H_    0.546877 0.177126 0.832682 0.115424
H5    H     H_    0.503033 0.215016 0.593530 0.152159
H6    H     H_    0.869163 0.075475 0.832897 0.119223
H7    H     H_    0.523956 0.776350 0.591015 0.112833
H8    H     H_    0.169545 0.783393 0.914971 0.127392
H9    H     H_    0.032824 0.593211 0.901876 0.127693
H10   H     H_    0.167743 0.533018 0.661339 0.112396
H11   H     H_    0.032417 0.764453 0.785616 0.116779
H12   H     H_    0.323441 0.727502 0.608984 0.142727
H13   H     H_    0.208259 0.518767 0.592600 0.119941
H14   H     H_    0.857321 0.641124 0.113378 0.128053
H15   H     H_    0.584535 0.596979 0.278414 0.108985
H16   H     H_    0.492153 0.802520 0.151758 0.116888
H17   H     H_    0.702512 0.484549 0.680531 0.136479
H18   H     H_    0.813311 0.642430 0.180032 0.116650
H19   H     H_    0.594058 0.050368 0.106301 0.133337
H20   H     H_    0.527664 0.194102 0.324637 0.099741
H21   H     H_    0.491109 0.323841 0.275527 0.096025
H22   H     H_    0.516497 0.809989 0.660550 0.118600
H23   H     H_    0.769690 0.241180 0.145843 0.111544
H24   H     H_    0.820781 0.137144 0.280456 0.110613
H25   H     H_    0.827692 0.123771 0.210488 0.107620
H26   H     H_    0.773112 0.260273 0.334643 0.102798
H27   H     H_    0.747517 0.284072 0.403079 0.127399
H28   H     H_    0.568401 0.123788 0.169975 0.142727
H29   H     H_    0.053718 0.584994 0.099294 0.136601
H30   H     H_    0.125040 0.809858 0.340098 0.098661
H31   H     H_    0.327925 0.576123 0.212645 0.127298
H32   H     H_    0.999647 0.746179 0.218266 0.124046
H33   H     H_    0.279912 0.472286 0.403911 0.115050
H34   H     H_    0.588886 0.860551 0.903707 0.183937
N1    N     N_R   0.583117 0.615148 0.777968 -0.236366
N2    N     N_R   0.578723 0.607658 0.740001 -0.246609
N3    N     N_R   0.622335 0.735433 0.732970 -0.241254
N4    N     N_R   0.628151 0.741684 0.770881 -0.239867
O1    O     O_R   0.502070 0.323090 0.541280 -0.535850
O2    O     O_R   0.520720 0.641670 0.461580 -0.463965
O3    O     O_R   0.674120 0.502090 0.457500 -0.529885
O4    O     O_R   0.640110 0.338380 0.459630 -0.505110
O5    O     O_3   0.499990 0.499990 0.499990 -0.242554
O6    O     O_R   0.017640 0.822070 0.960410 -0.521452
O7    O     O_R   0.822000 0.989470 0.960340 -0.525579
O8    O     O_R   0.666920 0.007430 0.955290 -0.445908
O9    O     O_R   0.694410 0.812480 0.959650 -0.503119
O10   O     O_R   0.831550 0.656950 0.958960 -0.530683
O11   O     O_R   0.998590 0.685540 0.963930 -0.505433
O12   O     O_R   0.338340 0.520690 0.539540 -0.498478
O13   O     O_R   0.008220 0.831200 0.045060 -0.486065
O14   O     O_R   0.813270 0.997930 0.038810 -0.502169
O15   O     O_R   0.657500 0.016560 0.039940 -0.514201
O16   O     O_R   0.685680 0.820940 0.038120 -0.504735
O17   O     O_R   0.822130 0.666070 0.043610 -0.518467
O18   O     O_R   0.989860 0.694000 0.042400 -0.507932
O19   O     O_3   0.833990 0.833400 0.000560 -0.237617
O20   O     O_R   0.324760 0.674070 0.543580 -0.526455
O21   O     O_R   0.522400 0.640310 0.540110 -0.509471
O22   O     O_R   0.675940 0.500630 0.542210 -0.501128
O23   O     O_R   0.641790 0.337020 0.538150 -0.429864
O24   O     O_R   0.500260 0.324550 0.456580 -0.525039
O25   O     O_R   0.336660 0.522040 0.461020 -0.508903
O26   O     O_R   0.322940 0.675540 0.458880 -0.497841
O27   O     O_3   0.837103 0.172588 0.660738 -0.736878
H35   H     H_    0.853897 0.131621 0.684351 0.327639
O28   O     O_3   0.641010 0.318105 0.788464 -0.703981
H36   H     H_    0.652390 0.305191 0.816257 0.334215
O29   O     O_3   0.750645 0.967281 0.698637 -0.724729
H37   H     H_    0.738912 0.916522 0.711921 0.327246
C117  C     C_3   0.776231 0.936979 0.782374 -0.303050
C118  C     C_3   0.690472 0.915961 0.793057 -0.394598
H38   H     H_    0.638427 0.972785 0.814554 0.184054
H39   H     H_    0.644919 0.919461 0.767335 0.180171
H40   H     H_    0.724552 0.838227 0.805683 0.170184
H41   H     H_    0.831933 0.874082 0.763554 0.139447
H42   H     H_    0.821647 0.930913 0.808378 0.151056
C119  C     C_3   0.526696 0.132562 0.665855 -0.252006
C120  C     C_3   0.422786 0.164136 0.647162 -0.464558
H43   H     H_    0.378272 0.248640 0.643027 0.151172
H44   H     H_    0.433477 0.123394 0.619296 0.148750
H45   H     H_    0.377901 0.142575 0.666123 0.141748
H46   H     H_    0.569571 0.047602 0.668307 0.194236
H47   H     H_    0.510390 0.165192 0.695387 0.143204
O30   O     O_3   0.787054 0.246408 0.586157 -0.687672
H48   H     H_    0.850132 0.228497 0.600943 0.365701
C121  C     C_3   0.395016 0.489611 0.721263 -0.225552
C122  C     C_3   0.399975 0.388501 0.710932 -0.422418
H49   H     H_    0.403815 0.346241 0.737315 0.186006
H50   H     H_    0.332078 0.401805 0.693760 0.143621
H51   H     H_    0.469472 0.341028 0.693494 0.136579
H52   H     H_    0.410467 0.521233 0.695270 0.133990
H53   H     H_    0.458730 0.474547 0.741333 0.232314
O31   O     O_3   0.360197 0.492468 0.800370 -0.705651
H54   H     H_    0.339303 0.496453 0.827408 0.328147
C123  C     C_3   0.251819 0.756517 0.844927 -0.273199
C124  C     C_3   0.361467 0.701806 0.860494 -0.419959
H55   H     H_    0.361393 0.707047 0.892280 0.146620
H56   H     H_    0.402149 0.619672 0.851496 0.183074
H57   H     H_    0.403696 0.738470 0.849003 0.154274
H58   H     H_    0.255372 0.754762 0.813169 0.158197
H59   H     H_    0.212980 0.838959 0.853593 0.137520
C125  C     C_3   0.024273 0.788169 0.709624 -0.254117
C126  C     C_3   0.000935 0.896907 0.719890 -0.421358
H60   H     H_    0.967969 0.919361 0.749104 0.140927
H61   H     H_    0.071777 0.902077 0.718868 0.149996
H62   H     H_    0.944693 0.951883 0.699127 0.182711
H63   H     H_    0.037681 0.776835 0.678297 0.169140
H64   H     H_    0.955714 0.781005 0.715354 0.155689
C127  C     C_3   0.294247 0.760689 0.684263 -0.278592
C128  C     C_3   0.244992 0.871791 0.670666 -0.444725
H65   H     H_    0.282986 0.876237 0.644232 0.143163
H66   H     H_    0.161930 0.903785 0.664731 0.168053
H67   H     H_    0.254090 0.919698 0.693141 0.141749
H68   H     H_    0.272363 0.762482 0.714639 0.157910
H69   H     H_    0.379071 0.725588 0.683716 0.155187
C129  C     C_3   0.852959 0.512715 0.904841 -0.250988
C130  C     C_3   0.921533 0.419616 0.879498 -0.458577
H70   H     H_    0.897427 0.361200 0.879671 0.148312
H71   H     H_    0.926560 0.443672 0.850175 0.163963
H72   H     H_    0.000813 0.380264 0.891403 0.129921
H73   H     H_    0.904502 0.544125 0.910199 0.173941
H74   H     H_    0.837971 0.486401 0.932365 0.157683
C131  C     C_3   0.079975 0.536158 0.828964 -0.278523
C132  C     C_3   0.966689 0.597167 0.817480 -0.436670
H75   H     H_    0.916892 0.623407 0.843270 0.156991
H76   H     H_    0.950953 0.665222 0.800413 0.154370
H77   H     H_    0.946711 0.547833 0.799718 0.138242
H78   H     H_    0.127202 0.504968 0.802682 0.159763
H79   H     H_    0.093614 0.468530 0.846005 0.135975
C133  C     C_3   0.507576 0.807174 0.074695 -0.282818
C134  C     C_3   0.452643 0.744882 0.073813 -0.426439
H80   H     H_    0.507908 0.663080 0.066775 0.161160
H81   H     H_    0.416153 0.749525 0.101835 0.166271
H82   H     H_    0.391571 0.775903 0.051537 0.147007
H83   H     H_    0.451836 0.888396 0.082392 0.142093
H84   H     H_    0.534232 0.806335 0.045166 0.163150
C135  C     C_3   0.809217 0.543622 0.322072 -0.264338
C136  C     C_3   0.819233 0.439666 0.311935 -0.434724
H85   H     H_    0.828506 0.394250 0.337928 0.137438
H86   H     H_    0.750143 0.450778 0.296122 0.158305
H87   H     H_    0.887386 0.394928 0.293362 0.136928
H88   H     H_    0.804220 0.582365 0.294733 0.150701
H89   H     H_    0.881125 0.533566 0.334998 0.132255
O32   O     O_3   0.579706 0.602287 0.202389 -0.701299
H90   H     H_    0.561241 0.559017 0.217803 0.321524
C137  C     C_3   0.667989 0.855759 0.301658 -0.226087
C138  C     C_3   0.589818 0.970146 0.297274 -0.409434
H91   H     H_    0.607536 0.002157 0.271915 0.202860
H92   H     H_    0.510758 0.983229 0.294159 0.148696
H93   H     H_    0.593168 0.012562 0.323008 0.116749
H94   H     H_    0.671237 0.835804 0.332303 0.125415
H95   H     H_    0.744919 0.843122 0.294357 0.165304
O33   O     O_3   0.676353 0.863178 0.221436 -0.734552
H96   H     H_    0.658347 0.875533 0.193929 0.323080
C139  C     C_3   0.445209 0.847965 0.341337 -0.224271
C140  C     C_3   0.425322 0.949291 0.359977 -0.418332
H97   H     H_    0.386353 0.962305 0.388008 0.189184
H98   H     H_    0.498101 0.949862 0.364451 0.149559
H99   H     H_    0.373909 0.014585 0.341330 0.112976
H100  H     H_    0.447398 0.855626 0.309882 0.130184
H101  H     H_    0.378289 0.837588 0.346695 0.160354
O34   O     O_3   0.462199 0.793121 0.417737 -0.706910
H102  H     H_    0.490832 0.804364 0.441859 0.318657
C141  C     C_3   0.818688 0.498961 0.406308 -0.256039
C142  C     C_3   0.853664 0.544860 0.438424 -0.425783
H103  H     H_    0.867457 0.605185 0.426701 0.141545
H104  H     H_    0.795745 0.579223 0.461580 0.165232
H105  H     H_    0.926468 0.483683 0.451068 0.134741
H106  H     H_    0.811362 0.433715 0.416582 0.169560
H107  H     H_    0.884086 0.461124 0.386467 0.133020
C143  C     C_3   0.803568 0.189352 0.070837 -0.273550
C144  C     C_3   0.753350 0.305424 0.065321 -0.443512
H108  H     H_    0.672857 0.337477 0.055254 0.164951
H109  H     H_    0.753915 0.344706 0.092427 0.161311
H110  H     H_    0.796569 0.321382 0.043463 0.137804
H111  H     H_    0.882811 0.158875 0.082101 0.148792
H112  H     H_    0.809579 0.155551 0.041974 0.168055
O35   O     O_3   0.479127 0.323072 0.199153 -0.720517
H113  H     H_    0.419296 0.361102 0.216400 0.315679
C145  C     C_3   0.481843 0.199397 0.398736 -0.266353
C146  C     C_3   0.532206 0.107403 0.425504 -0.427342
H114  H     H_    0.591739 0.038703 0.409803 0.140885
H115  H     H_    0.568298 0.123439 0.450513 0.168373
H116  H     H_    0.473244 0.090151 0.436167 0.131373
H117  H     H_    0.418797 0.267356 0.413350 0.168448
H118  H     H_    0.443505 0.179515 0.375488 0.117105
O36   O     O_3   0.161087 0.820648 0.089878 -0.713241
H119  H     H_    0.176566 0.795559 0.062995 0.330180
C147  C     C_3   0.711711 0.489610 0.842908 -0.242482
C148  C     C_3   0.780276 0.439189 0.807620 -0.395058
H120  H     H_    0.736208 0.427774 0.784320 0.216627
H121  H     H_    0.811426 0.486723 0.796320 0.151631
H122  H     H_    0.845057 0.361929 0.814774 0.127503
H123  H     H_    0.736299 0.435937 0.867246 0.138191
H124  H     H_    0.633629 0.502270 0.836775 0.173745
C149  C     C_3   0.371074 0.558027 0.288255 -0.273407
C150  C     C_3   0.394908 0.636298 0.306840 -0.450118
H125  H     H_    0.394216 0.689344 0.284871 0.148905
H126  H     H_    0.339298 0.682107 0.329456 0.165124
H127  H     H_    0.471570 0.595166 0.320722 0.144443
H128  H     H_    0.379181 0.500769 0.309688 0.183584
H129  H     H_    0.431345 0.514494 0.266395 0.129943
C151  C     C_3   0.113096 0.519077 0.170281 -0.275717
C152  C     C_3   0.192352 0.413803 0.154386 -0.428024
H130  H     H_    0.179109 0.407529 0.123345 0.150357
H131  H     H_    0.271090 0.401189 0.158662 0.190597
H132  H     H_    0.186187 0.352881 0.169681 0.138540
H133  H     H_    0.125216 0.518248 0.201687 0.168360
H134  H     H_    0.034652 0.530876 0.165869 0.130878
C153  C     C_3   0.975806 0.749351 0.294619 -0.282854
C154  C     C_3   0.953272 0.665699 0.306873 -0.429929
H135  H     H_    0.942417 0.627628 0.281183 0.152624
H136  H     H_    0.016618 0.607097 0.324545 0.194306
H137  H     H_    0.882349 0.700181 0.324384 0.119581
H138  H     H_    0.976547 0.794066 0.320030 0.138727
H139  H     H_    0.911517 0.804553 0.276237 0.146459
O37   O     O_3   0.227886 0.470176 0.331337 -0.730764
H140  H     H_    0.256080 0.409753 0.348381 0.310393
C155  C     C_3   0.209908 0.801769 0.168246 -0.232962
C156  C     C_3   0.121090 0.905370 0.181458 -0.422420
H141  H     H_    0.072640 0.948747 0.156644 0.187957
H142  H     H_    0.072927 0.894162 0.202585 0.145163
H143  H     H_    0.151861 0.951359 0.195283 0.125414
H144  H     H_    0.259772 0.762309 0.193150 0.133889
H145  H     H_    0.259282 0.814651 0.148255 0.179753
C157  C     C_3   0.159086 0.830290 0.414425 -0.254914
C158  C     C_3   0.085148 0.852110 0.447615 -0.423232
H146  H     H_    0.013327 0.856590 0.436836 0.146315
H147  H     H_    0.120096 0.791396 0.469615 0.166554
H148  H     H_    0.065444 0.926795 0.461377 0.138867
H149  H     H_    0.229496 0.829526 0.424493 0.201302
H150  H     H_    0.121209 0.896680 0.394705 0.121793
O38   O     O_3   0.508448 0.868013 0.839344 -0.708759
H151  H     H_    0.473571 0.851278 0.818654 0.331867
O39   O     O_3   0.536950 0.141753 0.906926 -0.678045
H152  H     H_    0.476951 0.173568 0.889383 0.320383

loop_
_geom_bond_atom_site_label_1
_geom_bond_atom_site_label_2
_ccdc_geom_bond_type
C118  H39   S    
N1    N2    A    
C87   C88   A    
C114  C115  A    
Cr2   O26   S    
Cr4   O6    S    
C39   C41   A    
C153  C154  S    
C101  C102  A    
C36   H2    S    
C155  H144  S    
C14   C51   S    
C5    C6    A    
C118  H40   S    
C54   C63   S    
C23   N2    A    
C34   C35   A    
C86   C141  S    
C61   C63   A    
C19   O16   A    
C134  H81   S    
C8    O37   S    
C133  H83   S    
C146  H116  S    
C129  C130  S    
Cr6   O10   S    
C50   C52   A    
C151  C152  S    
C3    C149  S    
C4    C12   S    
C157  H150  S    
C117  C118  S    
C83   C88   A    
C59   C60   A    
Cr6   O19   S    
C61   H11   S    
O29   H37   S    
C142  H105  S    
O37   H140  S    
C155  C156  S    
C40   O1    A    
O35   H113  S    
Cr3   O22   S    
C87   C135  S    
C75   C76   A    
C37   C38   A    
C145  C146  S    
C57   O31   S    
C13   C21   A    
O31   H54   S    
C94   C96   A    
C117  H42   S    
C135  H89   S    
C149  H128  S    
C132  H77   S    
Cr5   O8    S    
Cr2   O2    S    
C4    C5    A    
C6    C7    A    
C22   N1    A    
C94   H28   S    
C125  H63   S    
C129  H74   S    
C75   H18   S    
C64   C65   A    
C154  H137  S    
C106  H17   S    
Cr5   O15   S    
C77   C82   A    
C33   C34   A    
C140  H98   S    
C158  H146  S    
C56   H9    S    
C114  C155  S    
C152  H130  S    
C98   C99   A    
C136  H85   S    
C31   C36   A    
C44   C48   A    
C127  C128  S    
C26   C30   A    
Cr2   O20   S    
Cr6   O17   S    
C157  C158  S    
C111  C112  A    
Cr1   O12   S    
C97   C98   A    
C90   C91   A    
C123  H58   S    
C144  H109  S    
C53   C54   A    
C99   C108  S    
C105  C107  A    
C121  H53   S    
C137  H94   S    
C64   C68   A    
Cr4   O19   S    
C17   O6    A    
C38   C39   A    
C66   H13   S    
C148  H121  S    
C25   C129  S    
C16   C30   S    
C40   C49   S    
C147  C148  S    
C105  C145  S    
C13   H22   S    
C33   H4    S    
C110  C111  A    
C16   O9    A    
C99   C100  A    
C23   N3    A    
C107  C108  A    
C128  H65   S    
Cr3   O5    S    
C145  H118  S    
C40   O23   A    
C72   H16   S    
C66   C67   A    
C120  H44   S    
C15   O7    A    
O28   H36   S    
C57   C63   A    
C131  H78   S    
C29   O22   A    
C41   O29   S    
C29   C84   S    
C10   C14   A    
C91   C92   A    
C152  H131  S    
C154  H135  S    
C134  H82   S    
C2    C106  A    
C50   C56   A    
C141  H107  S    
C84   C95   A    
C150  H126  S    
C7    C116  A    
C42   C117  S    
C95   C106  A    
C31   C32   A    
C8    C12   A    
C121  C122  S    
Cr3   O23   S    
C21   H7    S    
C20   C110  S    
C18   O14   A    
Cr4   O14   S    
C44   C119  S    
C122  H50   S    
C139  H100  S    
C156  H142  S    
C151  H134  S    
C127  H68   S    
C147  H124  S    
C47   O27   S    
C3    C4    A    
C78   H15   S    
C52   C53   A    
C58   C121  S    
C95   H1    S    
C105  C109  A    
C54   C55   A    
C101  H25   S    
C34   C43   S    
C24   C28   A    
C135  C136  S    
Cr3   O4    S    
C136  H87   S    
O32   H90   S    
C15   C31   S    
C145  H117  S    
C122  H51   S    
Cr2   O5    S    
C81   O33   S    
C143  H111  S    
C51   O26   A    
C155  H145  S    
C124  H57   S    
C57   C58   A    
C22   N4    A    
C130  H70   S    
C128  H67   S    
C10   C11   A    
O33   H96   S    
C9    H33   S    
C126  H60   S    
C2    C23   S    
C141  H106  S    
C157  H149  S    
C55   C56   A    
C119  H46   S    
C41   C42   A    
C37   O28   S    
C35   C36   A    
Cr1   O24   S    
Cr5   O19   S    
C77   C78   A    
C46   C49   A    
C26   C27   A    
C143  C144  S    
C1    O20   A    
C32   O39   S    
C117  H41   S    
C62   C89   S    
C80   C137  S    
C71   C133  S    
C96   H19   S    
C131  C132  S    
C149  H129  S    
Cr1   O5    S    
C55   C131  S    
C140  H97   S    
C70   C71   A    
C24   C147  S    
C133  C134  S    
C65   H12   S    
C118  H38   S    
C22   C28   S    
C137  C138  S    
C138  H93   S    
C74   C82   S    
C79   C88   S    
C132  H76   S    
C67   C68   A    
C18   C90   S    
C72   C74   A    
C124  H55   S    
C64   C127  S    
C85   C89   A    
C86   C87   A    
C20   O18   A    
C158  H148  S    
C58   C59   A    
C130  H72   S    
C1    C69   S    
O30   H48   S    
C60   C61   A    
C104  H27   S    
C37   C43   A    
C9    C14   A    
C150  H127  S    
O34   H102  S    
C133  H84   S    
N3    N4    A    
C21   C84   A    
C45   C49   A    
C132  H75   S    
C125  H64   S    
C90   C96   A    
C116  H31   S    
C6    H32   S    
C29   O21   A    
C83   C85   A    
C42   C43   A    
C144  H108  S    
C44   C45   A    
C113  C114  A    
Cr2   O21   S    
C25   C30   A    
Cr6   O18   S    
C46   C47   A    
C91   C143  S    
C86   C89   A    
C93   C102  S    
C73   C109  S    
C1    O12   A    
C121  H52   S    
C3    C116  A    
C32   C33   A    
O27   H35   S    
Cr1   O25   S    
C142  H103  S    
C148  H120  S    
C62   O2    A    
C153  H138  S    
C65   C69   A    
C92   C93   A    
C35   H6    S    
C149  C150  S    
Cr5   O16   S    
C16   O10   A    
C71   C72   A    
O36   H119  S    
C103  C104  A    
C153  H139  S    
C138  H91   S    
C135  H88   S    
C110  C115  A    
Cr4   O7    S    
C39   C48   S    
Cr5   O9    S    
C156  H141  S    
C93   C94   A    
C98   H21   S    
C120  H43   S    
C26   H34   S    
C83   C139  S    
C81   C82   A    
C76   H14   S    
C131  H79   S    
C134  H80   S    
C85   O34   S    
C142  H104  S    
C73   O4    A    
C104  C109  A    
C154  H136  S    
C66   C69   A    
C5    C153  S    
C60   C125  S    
C140  H99   S    
C2    C13   A    
C100  C101  A    
C62   O3    A    
C100  H24   S    
C8    C9    A    
C97   C102  A    
C129  H73   S    
C18   O15   A    
C139  H101  S    
C127  H69   S    
C112  C113  A    
C103  H26   S    
C144  H110  S    
C46   O30   S    
C74   C75   A    
C137  H95   S    
C47   C48   A    
C115  O36   S    
C24   C25   A    
Cr3   O3    S    
C136  H86   S    
C73   O24   A    
C78   C79   A    
C119  C120  S    
C148  H122  S    
Cr1   O1    S    
C77   O32   S    
C158  H147  S    
C143  H112  S    
C51   O25   A    
C59   C68   S    
C124  H56   S    
Cr4   O13   S    
C20   O13   A    
C130  H71   S    
C125  C126  S    
C107  H20   S    
C128  H66   S    
C103  C108  A    
C112  C151  S    
C146  H114  S    
Cr6   O11   S    
C126  H61   S    
C141  C142  S    
C70   C76   A    
C120  H45   S    
C15   O8    A    
C97   O35   S    
C27   C28   A    
C38   H3    S    
C53   C123  S    
C19   O17   A    
C119  H47   S    
C92   H23   S    
C139  C140  S    
C80   C81   A    
C111  H29   S    
C17   C50   S    
C152  H132  S    
C11   C12   A    
C17   O11   A    
C126  H62   S    
C52   H8    S    
C150  H125  S    
C7    C113  S    
C123  C124  S    
C45   H5    S    
C146  H115  S    
O38   H151  S    
C67   H10   S    
C138  H92   S    
C123  H59   S    
O39   H152  S    
C27   O38   S    
C79   C80   A    
C11   H30   S    
C122  H49   S    
C156  H143  S    
C151  H133  S    
C147  H123  S    
C19   C70   S    
C10   C157  S    
