data_mof_unit_24180.cif
_audit_creation_date              2012-12-10T20:25:42-0500
_audit_creation_method            fapswitch 2.2
_symmetry_space_group_name_H-M    P1
_symmetry_Int_Tables_number       1
_space_group_crystal_system       triclinic
_cell_length_a                    8.582842
_cell_length_b                    10.639036
_cell_length_c                    9.986632
_cell_angle_alpha                 90.820436
_cell_angle_beta                  98.232708
_cell_angle_gamma                 91.596603
_cell_volume                      902.00852624

loop_
_atom_site_label
_atom_site_type_symbol
_atom_type_description
_atom_site_fract_x
_atom_site_fract_y
_atom_site_fract_z
_atom_type_partial_charge
C1    C     C_R   0.501498 0.260761 0.499200 0.838751
C2    C     C_R   0.394980 0.930618 0.406803 -0.203862
C3    C     C_R   0.501646 0.871143 0.502513 -0.073234
C4    C     C_R   0.622029 0.940191 0.581810 0.080349
C5    C     C_3   0.686422 0.943398 0.730273 -0.017374
C6    C     C_3   0.698025 0.086225 0.719355 -0.503909
C7    C     C_R   0.363416 0.479110 0.052126 0.101034
C8    C     C_R   0.624378 0.550991 0.086348 0.068088
C9    C     C_R   0.625651 0.546298 0.943007 0.593676
C10   C     C_R   0.366401 0.473446 0.912752 0.053958
C11   C     C_3   0.244076 0.369694 0.886193 -0.026577
C12   C     C_R   0.201781 0.497947 0.465362 0.986839
C13   C     C_3   0.231208 0.380695 0.039094 0.282539
C14   C     C_R   0.501275 0.739226 0.501314 0.875255
C15   C     C_R   0.798068 0.502852 0.535397 0.843842
C16   C     C_2   0.037058 0.483897 0.451277 -0.571231
C17   C     C_2   0.962472 0.518463 0.553344 0.449710
C18   C     C_R   0.628068 0.068331 0.574535 0.061832
C19   C     C_R   0.507248 0.128874 0.495433 -0.048883
C20   C     C_R   0.396028 0.060314 0.404945 -0.237127
H1    H     H_    0.977016 0.435627 0.361436 0.130400
H2    H     H_    0.137632 0.399783 0.818967 0.224284
H3    H     H_    0.304715 0.105898 0.339442 0.149163
H4    H     H_    0.306328 0.877187 0.339200 0.160802
H5    H     H_    0.803331 0.899707 0.752207 0.195073
H6    H     H_    0.621451 0.138857 0.779488 0.225064
H7    H     H_    0.821592 0.123434 0.729797 0.180254
N1    N     N_R   0.498950 0.499140 0.142680 -0.132321
N2    N     N_R   0.498950 0.499180 0.857030 -0.166256
O1    O     O_R   0.500020 0.316790 0.614690 -0.633663
O2    O     O_R   0.500000 0.316760 0.385350 -0.621582
O3    O     O_R   0.271760 0.500010 0.587850 -0.547151
O4    O     O_R   0.271740 0.499970 0.358500 -0.635030
O5    O     O_R   0.500000 0.683240 0.614650 -0.591104
O6    O     O_R   0.499980 0.683210 0.385310 -0.631585
O7    O     O_R   0.728260 0.500030 0.641500 -0.520513
O8    O     O_R   0.728240 0.499990 0.412150 -0.656833
Zn1   Zn    Zn3+2 0.500010 0.500020 0.653130 1.019367
Zn2   Zn    Zn3+2 0.499990 0.499980 0.346870 0.929181
F1    F     F_    0.752521 0.592170 0.890627 -0.652409
C21   C     C_3   0.302743 0.244470 0.838000 -0.871938
H8    H     H_    0.226723 0.165345 0.864519 0.234575
H9    H     H_    0.291064 0.242652 0.726398 0.264105
H10   H     H_    0.426407 0.229363 0.883186 0.241587
C22   C     C_3   0.072805 0.436710 0.058909 -0.841887
H11   H     H_    0.072039 0.461901 0.165678 0.246957
H12   H     H_    0.050445 0.523411 0.999183 0.281804
H13   H     H_    0.975152 0.367211 0.026657 0.240656
C23   C     C_3   0.267336 0.263994 0.124749 -0.788690
H14   H     H_    0.389817 0.233601 0.122994 0.236889
H15   H     H_    0.250407 0.286096 0.230093 0.251624
H16   H     H_    0.183440 0.185492 0.088183 0.215377
F2    F     F_    0.034725 0.578344 0.668262 -0.647471
C24   C     C_3   0.569490 0.901588 0.824809 -0.783878
H17   H     H_    0.566667 0.797975 0.832904 0.278040
H18   H     H_    0.608214 0.941653 0.927880 0.226303
H19   H     H_    0.448901 0.933759 0.788382 0.246297
C25   C     C_3   0.755307 0.624785 0.170517 -0.742605
H20   H     H_    0.712259 0.677260 0.253173 0.260994
H21   H     H_    0.849047 0.561267 0.210009 0.234786
H22   H     H_    0.807994 0.696910 0.109831 0.237662

loop_
_geom_bond_atom_site_label_1
_geom_bond_atom_site_label_2
_ccdc_geom_bond_type
N2    Zn1   S    
C14   O5    A    
C7    C10   A    
O6    Zn2   S    
C16   H1    S    
O3    Zn1   S    
C11   C13   S    
C21   H8    S    
C15   O7    A    
C11   H2    S    
C19   C20   A    
N1    Zn2   S    
C20   H3    S    
C9    N2    A    
C23   H16   S    
C4    C18   A    
C25   H22   S    
O7    Zn1   S    
C2    C3    A    
C12   O4    A    
O8    Zn2   S    
C6    H6    S    
C22   H11   S    
C12   O3    A    
C13   C22   S    
C21   H9    S    
C10   N2    A    
C6    H7    S    
O4    Zn2   S    
C3    C14   S    
C6    C18   S    
C1    O1    A    
O2    Zn2   S    
C11   C21   S    
C22   H12   S    
C2    H4    S    
C5    C6    S    
C8    N1    A    
C21   H10   S    
C24   H18   S    
C1    C19   S    
C16   C17   D    
C10   C11   S    
C25   H21   S    
C3    C4    A    
C17   F2    S    
C5    C24   S    
C1    O2    A    
C18   C19   A    
O1    Zn1   S    
C23   H14   S    
C22   H13   S    
C14   O6    A    
C15   C17   S    
C24   H17   S    
C8    C9    A    
C5    H5    S    
C7    C13   S    
C13   C23   S    
C8    C25   S    
C25   H20   S    
O5    Zn1   S    
C2    C20   A    
C9    F1    S    
C15   O8    A    
C7    N1    A    
C12   C16   S    
C4    C5    S    
C23   H15   S    
C24   H19   S    
