data_mof_unit_47100.cif
_audit_creation_date              2012-12-10T17:28:36-0500
_audit_creation_method            fapswitch 2.2
_symmetry_space_group_name_H-M    P1
_symmetry_Int_Tables_number       1
_space_group_crystal_system       triclinic
_cell_length_a                    10.663672
_cell_length_b                    12.015377
_cell_length_c                    12.88194
_cell_angle_alpha                 93.323749
_cell_angle_beta                  91.629335
_cell_angle_gamma                 86.705288
_cell_volume                      1644.51594913

loop_
_atom_site_label
_atom_site_type_symbol
_atom_type_description
_atom_site_fract_x
_atom_site_fract_y
_atom_site_fract_z
_atom_type_partial_charge
C1    C     C_R   0.491205 0.521994 0.699950 0.927597
C2    C     C_R   0.546465 0.546253 0.130764 0.150570
C3    C     C_R   0.441291 0.464944 0.976698 0.104219
C4    C     C_R   0.514369 0.549663 0.025122 0.094950
C5    C     C_R   0.407568 0.949646 0.384025 -0.340728
C6    C     C_R   0.593991 0.049872 0.614238 -0.337885
C7    C     C_R   0.414248 0.834840 0.397314 -0.051299
C8    C     C_R   0.590616 0.163969 0.599450 -0.052219
C9    C     C_R   0.534818 0.860334 0.553909 0.308486
C10   C     C_R   0.460912 0.140456 0.447954 0.309949
C11   C     C_R   0.531964 0.977433 0.542882 0.004407
C12   C     C_R   0.502754 0.478245 0.299902 0.915662
C13   C     C_R   0.466399 0.022763 0.457041 0.011055
C14   C     C_R   0.741168 0.501433 0.504050 0.913245
C15   C     C_R   0.262768 0.502594 0.517876 0.897770
C16   C     C_R   0.880710 0.360122 0.655476 0.263591
C17   C     C_R   0.106605 0.721045 0.543954 0.292944
C18   C     C_R   0.944122 0.262606 0.688756 -0.209089
C19   C     C_R   0.048906 0.805496 0.485464 -0.227588
C20   C     C_R   0.071530 0.243501 0.671150 -0.205785
C21   C     C_R   0.943600 0.783768 0.422981 -0.215723
C22   C     C_R   0.136807 0.324489 0.625916 -0.188300
C23   C     C_R   0.494233 0.466308 0.188807 -0.084462
C24   C     C_R   0.886707 0.682698 0.428495 -0.162122
C25   C     C_R   0.072112 0.418768 0.584286 0.040833
C26   C     C_R   0.938781 0.599962 0.493638 0.019946
C27   C     C_R   0.940440 0.427127 0.586536 0.068694
C28   C     C_R   0.060446 0.611615 0.532661 0.061118
C29   C     C_R   0.132456 0.510905 0.549284 -0.231331
C30   C     C_R   0.875101 0.507570 0.524876 -0.228033
C31   C     C_3   0.821307 0.490405 0.794291 -0.833356
C32   C     C_3   0.188985 0.722544 0.722487 -0.802762
C33   C     C_3   0.764366 0.584751 0.162621 -0.825847
C34   C     C_R   0.481645 0.537539 0.811027 -0.084999
C35   C     C_3   0.419977 0.262023 0.807777 -0.757708
C36   C     C_3   0.257318 0.200377 0.373863 -0.751443
C37   C     C_3   0.727903 0.801723 0.646474 -0.751529
C38   C     C_R   0.555212 0.634693 0.966649 -0.251385
C39   C     C_R   0.390081 0.386351 0.037270 -0.215381
C40   C     C_R   0.536647 0.629514 0.860551 -0.285052
C41   C     C_R   0.416432 0.387291 0.142679 -0.277372
C42   C     C_R   0.426244 0.458135 0.868255 0.128745
H1    H     H_    0.237367 0.313591 0.630047 0.194950
H2    H     H_    0.746801 0.511310 0.850988 0.254150
H3    H     H_    0.241120 0.825573 0.608903 0.212343
H4    H     H_    0.272332 0.746440 0.770580 0.242234
H5    H     H_    0.178948 0.631856 0.729116 0.240310
H6    H     H_    0.104337 0.770161 0.753353 0.229540
H7    H     H_    0.898535 0.208393 0.738458 0.124817
H8    H     H_    0.085674 0.887809 0.488106 0.137329
H9    H     H_    0.612995 0.703465 0.170736 0.219632
H10   H     H_    0.826019 0.647487 0.200086 0.235075
H11   H     H_    0.784061 0.577117 0.078191 0.245152
H12   H     H_    0.802570 0.671410 0.381640 0.187706
H13   H     H_    0.787027 0.503176 0.197176 0.247256
H14   H     H_    0.264255 0.372503 0.836475 0.215270
H15   H     H_    0.388199 0.209233 0.868667 0.210673
H16   H     H_    0.523759 0.266243 0.814796 0.239298
H17   H     H_    0.395568 0.220822 0.731337 0.241298
H18   H     H_    0.372273 0.328802 0.188859 0.173102
H19   H     H_    0.577083 0.691849 0.816634 0.187477
H20   H     H_    0.606615 0.703184 0.000794 0.158215
H21   H     H_    0.327880 0.324883 0.004808 0.156435
H22   H     H_    0.421751 0.161344 0.291673 0.195234
H23   H     H_    0.901499 0.847678 0.375064 0.154834
H24   H     H_    0.221965 0.283771 0.349501 0.249279
H25   H     H_    0.228647 0.190974 0.454995 0.245428
H26   H     H_    0.212469 0.136078 0.322245 0.202859
H27   H     H_    0.554114 0.845921 0.712011 0.189937
H28   H     H_    0.768515 0.832720 0.575977 0.252682
H29   H     H_    0.758571 0.712834 0.653184 0.259825
H30   H     H_    0.765842 0.849597 0.715597 0.196802
H31   H     H_    0.639543 0.218109 0.653880 0.135033
H32   H     H_    0.369462 0.779320 0.340450 0.153414
H33   H     H_    0.122229 0.171776 0.702499 0.149077
H34   H     H_    0.357531 0.979644 0.316148 0.161285
H35   H     H_    0.645723 0.019830 0.681275 0.166478
H36   H     H_    0.729689 0.349202 0.750176 0.214870
H37   H     H_    0.844899 0.567291 0.757133 0.244601
H38   H     H_    0.904933 0.457351 0.838793 0.241182
N1    N     N_R   0.523130 0.207800 0.519340 -0.111628
N2    N     N_R   0.476870 0.792200 0.480660 -0.110364
N3    N     N_2   0.779913 0.407587 0.716386 -0.293787
N4    N     N_2   0.206774 0.747812 0.615560 -0.272922
N5    N     N_2   0.634022 0.619669 0.179358 -0.300052
N6    N     N_2   0.357078 0.372368 0.816077 -0.315580
N7    N     N_2   0.392684 0.190023 0.364560 -0.273694
N8    N     N_2   0.591812 0.812917 0.643299 -0.274425
O1    O     O_R   0.506170 0.421700 0.658830 -0.609947
O2    O     O_R   0.493830 0.578300 0.341170 -0.616106
O3    O     O_R   0.491330 0.609310 0.646410 -0.602341
O4    O     O_R   0.508670 0.390690 0.353590 -0.605464
O5    O     O_R   0.690650 0.406190 0.506220 -0.610672
O6    O     O_R   0.309350 0.593810 0.493780 -0.602154
O7    O     O_R   0.675800 0.593810 0.493800 -0.609657
O8    O     O_R   0.324200 0.406190 0.506200 -0.620279
Zn1   Zn    Zn3+2 0.509910 0.374730 0.508290 0.955337
Zn2   Zn    Zn3+2 0.490090 0.625270 0.491710 0.966270

loop_
_geom_bond_atom_site_label_1
_geom_bond_atom_site_label_2
_ccdc_geom_bond_type
C33   H13   S    
C3    C42   A    
C32   H6    S    
C37   N8    S    
C34   C42   A    
H9    N5    S    
C15   O6    A    
O7    Zn2   S    
C31   H38   S    
C39   C41   A    
C33   H10   S    
C12   C23   S    
C35   H16   S    
C34   C40   A    
C12   O2    A    
C28   C29   A    
C19   C21   A    
C24   C26   A    
C9    N8    S    
C35   N6    S    
C36   H24   S    
O6    Zn2   S    
C24   H12   S    
C31   N3    S    
C2    N5    S    
C35   H17   S    
C33   N5    S    
H36   N3    S    
C22   C25   A    
O4    Zn1   S    
C42   N6    S    
C14   O5    A    
C5    C13   A    
C9    N2    A    
C16   C27   A    
C3    C39   A    
C1    O3    A    
C37   H28   S    
C27   C30   A    
C25   C29   A    
N2    Zn2   S    
C14   C30   S    
C1    C34   S    
C15   C29   S    
C7    H32   S    
C36   N7    S    
C33   H11   S    
C32   N4    S    
C10   N7    S    
C36   H25   S    
C31   H2    S    
C8    N1    A    
C15   O8    A    
C5    C7    A    
C6    H35   S    
C6    C8    A    
C16   N3    S    
C40   H19   S    
C20   H33   S    
O1    Zn1   S    
C2    C4    A    
H14   N6    S    
C22   H1    S    
O8    Zn1   S    
C9    C11   A    
H27   N8    S    
C20   C22   A    
C26   C30   A    
C37   H29   S    
C32   H5    S    
C21   C24   A    
H3    N4    S    
C3    C4    A    
O5    Zn1   S    
C14   O7    A    
C6    C11   A    
C1    O1    A    
H22   N7    S    
C21   H23   S    
C17   C28   A    
C32   H4    S    
C12   O4    A    
C41   H18   S    
C4    C38   A    
C10   C13   A    
C36   H26   S    
C31   H37   S    
C25   C27   A    
C39   H21   S    
C10   N1    A    
C26   C28   A    
C23   C41   A    
C35   H15   S    
C17   N4    S    
C5    H34   S    
C38   C40   A    
C11   C13   A    
C19   H8    S    
N1    Zn1   S    
C8    H31   S    
C17   C19   A    
C18   C20   A    
O3    Zn2   S    
C7    N2    A    
C16   C18   A    
C37   H30   S    
C2    C23   A    
O2    Zn2   S    
C18   H7    S    
C38   H20   S    
