data_mof_unit_40764.cif
_audit_creation_date              2012-12-10T17:45:15-0500
_audit_creation_method            fapswitch 2.2
_symmetry_space_group_name_H-M    P1
_symmetry_Int_Tables_number       1
_space_group_crystal_system       triclinic
_cell_length_a                    17.710108
_cell_length_b                    17.729654
_cell_length_c                    17.965436
_cell_angle_alpha                 115.606645
_cell_angle_beta                  92.330561
_cell_angle_gamma                 69.952789
_cell_volume                      4740.14973924

loop_
_atom_site_label
_atom_site_type_symbol
_atom_type_description
_atom_site_fract_x
_atom_site_fract_y
_atom_site_fract_z
_atom_type_partial_charge
C1    C     C_R   0.464984 0.463375 0.287475 0.818536
C2    C     C_R   0.913733 0.596956 0.591859 -0.359077
C3    C     C_R   0.957512 0.639860 0.651194 0.481900
C4    C     C_R   0.535688 0.536151 0.712098 0.827276
C5    C     C_R   0.037290 0.626402 0.627024 0.013431
C6    C     C_R   0.069982 0.576076 0.541760 0.012588
C7    C     C_R   0.085721 0.660014 0.687194 -0.137923
C8    C     C_R   0.167926 0.639501 0.665070 -0.045386
C9    C     C_R   0.153424 0.551713 0.521091 -0.244555
C10   C     C_R   0.544887 0.557656 0.799667 -0.137871
C11   C     C_R   0.454318 0.445453 0.201178 -0.143301
C12   C     C_R   0.815339 0.407651 0.330819 0.458801
C13   C     C_R   0.563681 0.657935 0.935779 -0.201936
C14   C     C_R   0.560789 0.634743 0.851548 -0.268445
C15   C     C_R   0.533612 0.502614 0.832371 0.435858
C16   C     C_R   0.464205 0.730519 0.554418 0.851140
C17   C     C_R   0.521615 0.534324 0.919805 -0.019936
C18   C     C_R   0.544044 0.608654 0.970323 0.106229
C19   C     C_R   0.491494 0.493161 0.958559 0.051213
C20   C     C_R   0.493934 0.519645 0.045358 0.110473
C21   C     C_R   0.529919 0.583457 0.089671 -0.136728
C22   C     C_R   0.549995 0.630759 0.054131 -0.198061
C23   C     C_R   0.847849 0.462818 0.473654 -0.121120
C24   C     C_R   0.457560 0.427622 0.913970 -0.140970
C25   C     C_R   0.444751 0.375312 0.947534 -0.200082
C26   C     C_R   0.452565 0.396108 0.030976 0.019269
C27   C     C_R   0.465932 0.476320 0.083440 0.032235
C28   C     C_R   0.535586 0.268260 0.444522 0.839082
C29   C     C_R   0.445629 0.338772 0.062987 0.467946
C30   C     C_R   0.452823 0.361128 0.146744 -0.266282
C31   C     C_R   0.453520 0.507034 0.171055 -0.106556
C32   C     C_R   0.555942 0.171420 0.421950 -0.118176
C33   C     C_R   0.451100 0.824424 0.579002 -0.114182
C34   C     C_R   0.907507 0.488314 0.449996 0.024265
C35   C     C_R   0.633546 0.011627 0.338626 0.397662
C36   C     C_R   0.608258 0.100601 0.349338 -0.118912
C37   C     C_R   0.526368 0.149990 0.478615 -0.294169
C38   C     C_R   0.555804 0.062582 0.472363 0.045464
C39   C     C_R   0.608847 0.992944 0.400476 -0.007480
C40   C     C_R   0.287959 0.554979 0.554416 0.760425
C41   C     C_R   0.529291 0.041624 0.532920 -0.123661
C42   C     C_R   0.541847 0.950421 0.510583 -0.035608
C43   C     C_R   0.603733 0.882793 0.444192 0.444934
C44   C     C_R   0.635720 0.904818 0.390317 -0.276028
C45   C     C_R   0.927773 0.460044 0.364442 0.035960
C46   C     C_R   0.491803 0.107533 0.614807 -0.147028
C47   C     C_R   0.446266 0.087827 0.661910 0.462848
C48   C     C_R   0.448523 0.999646 0.633975 -0.057302
C49   C     C_R   0.495079 0.930671 0.557461 0.043740
C50   C     C_R   0.406976 0.978738 0.683339 -0.274341
C51   C     C_R   0.411230 0.890627 0.657753 0.461880
C52   C     C_R   0.712971 0.446443 0.445651 0.927445
C53   C     C_R   0.490200 0.844939 0.528641 -0.264207
C54   C     C_R   0.794790 0.434461 0.416010 -0.186774
C55   C     C_R   0.201805 0.583206 0.581190 -0.072139
C56   C     C_R   0.947771 0.540861 0.508211 0.007135
C57   C     C_R   0.882472 0.418963 0.305850 -0.272858
C58   C     C_2   0.430920 0.603417 0.230845 0.420472
C59   C     C_3   0.621536 0.359414 0.751258 0.127193
C60   C     C_3   0.650713 0.308840 0.803539 -0.836211
C61   C     C_3   0.365108 0.255719 0.018791 0.105430
C62   C     C_3   0.363192 0.163998 0.959679 -0.804962
C63   C     C_3   0.418290 0.867897 0.773648 0.069622
C64   C     C_3   0.389287 0.822171 0.815122 -0.765036
C65   C     C_3   0.324517 0.198114 0.724174 0.133831
C66   C     C_3   0.276691 0.274183 0.806319 -0.800878
C67   C     C_R   0.019987 0.544366 0.480780 -0.010809
C68   C     C_3   0.636099 0.908643 0.206462 0.079798
C69   C     C_3   0.691129 0.829544 0.129937 -0.805945
C70   C     C_2   0.635565 0.114955 0.281204 0.445460
C71   C     C_3   0.693859 0.787172 0.486734 0.086233
C72   C     C_3   0.727867 0.690698 0.474516 -0.779018
C73   C     C_2   0.512650 0.189685 0.656921 0.445078
C74   C     C_2   0.217652 0.676553 0.729798 0.428654
C75   C     C_3   0.908324 0.646296 0.771636 0.092883
C76   C     C_3   0.818932 0.683388 0.804856 -0.803323
C77   C     C_3   0.787765 0.284511 0.240430 0.164998
C78   C     C_R   0.037245 0.518478 0.394491 -0.017856
C79   C     C_3   0.845770 0.235340 0.159908 -0.875495
C80   C     C_2   0.851823 0.448644 0.550335 0.392219
C81   C     C_2   0.092201 0.548738 0.363286 0.375459
C82   C     C_R   0.991123 0.476076 0.337861 -0.166278
H1    H     H_    0.003047 0.457670 0.272354 0.183119
H2    H     H_    0.183073 0.503567 0.458856 0.143807
H3    H     H_    0.680786 0.851251 0.338900 0.210253
H4    H     H_    0.515686 0.792598 0.466781 0.207140
H5    H     H_    0.478829 0.202753 0.527448 0.186653
H6    H     H_    0.372730 0.029905 0.742911 0.183978
H7    H     H_    0.896423 0.399975 0.240567 0.169045
H8    H     H_    0.852009 0.609362 0.611695 0.172019
H9    H     H_    0.451859 0.623354 0.291537 0.069893
H10   H     H_    0.663181 0.394612 0.751471 0.119785
H11   H     H_    0.626298 0.309637 0.685699 0.161774
H12   H     H_    0.059975 0.700614 0.751954 0.214398
H13   H     H_    0.610266 0.272650 0.802878 0.285994
H14   H     H_    0.713159 0.259382 0.777691 0.214800
H15   H     H_    0.651276 0.356267 0.868714 0.248638
H16   H     H_    0.320841 0.306812 0.002582 0.140235
H17   H     H_    0.346526 0.269794 0.083371 0.151935
H18   H     H_    0.404250 0.112067 0.976590 0.256419
H19   H     H_    0.300636 0.164386 0.963575 0.206596
H20   H     H_    0.383173 0.146940 0.894740 0.280307
H21   H     H_    0.409431 0.937473 0.820799 0.150596
H22   H     H_    0.484293 0.829510 0.751445 0.145782
H23   H     H_    0.572988 0.682984 0.091840 0.146042
H24   H     H_    0.398946 0.751899 0.769609 0.237375
H25   H     H_    0.423810 0.821537 0.867991 0.204741
H26   H     H_    0.323794 0.858791 0.838886 0.272631
H27   H     H_    0.291311 0.150969 0.697767 0.126095
H28   H     H_    0.327332 0.227362 0.680959 0.164758
H29   H     H_    0.307439 0.323377 0.833606 0.265831
H30   H     H_    0.214958 0.308916 0.795769 0.207996
H31   H     H_    0.271262 0.247378 0.850575 0.244048
H32   H     H_    0.598483 0.960706 0.187647 0.162222
H33   H     H_    0.595556 0.884822 0.229214 0.146444
H34   H     H_    0.454878 0.313304 0.169893 0.182744
H35   H     H_    0.728468 0.775660 0.146444 0.258905
H36   H     H_    0.653988 0.802636 0.081287 0.194690
H37   H     H_    0.731706 0.851213 0.104797 0.263380
H38   H     H_    0.698463 0.081256 0.253436 0.085193
H39   H     H_    0.665967 0.831178 0.552712 0.150486
H40   H     H_    0.744895 0.805056 0.474292 0.151886
H41   H     H_    0.757808 0.644815 0.409723 0.258318
H42   H     H_    0.773116 0.684192 0.518072 0.214653
H43   H     H_    0.678329 0.671073 0.487011 0.257629
H44   H     H_    0.567024 0.191509 0.633222 0.057121
H45   H     H_    0.426908 0.319428 0.908134 0.224235
H46   H     H_    0.280628 0.663486 0.713223 0.051935
H47   H     H_    0.944000 0.654791 0.825047 0.169749
H48   H     H_    0.927170 0.572561 0.731083 0.117994
H49   H     H_    0.781570 0.674798 0.752766 0.249786
H50   H     H_    0.808543 0.647004 0.838203 0.212470
H51   H     H_    0.799880 0.755811 0.848720 0.263393
H52   H     H_    0.731777 0.268807 0.225966 0.193906
H53   H     H_    0.814281 0.257933 0.285576 0.118684
H54   H     H_    0.905395 0.242483 0.172753 0.245982
H55   H     H_    0.855017 0.162881 0.131102 0.228607
H56   H     H_    0.579210 0.715852 0.974393 0.145575
H57   H     H_    0.820252 0.262846 0.115527 0.272464
H58   H     H_    0.901902 0.454094 0.586434 0.070966
H59   H     H_    0.107329 0.605892 0.405283 0.093728
H60   H     H_    0.571387 0.676753 0.826909 0.182780
H61   H     H_    0.544453 0.597082 0.151964 0.142645
H62   H     H_    0.441106 0.414489 0.852486 0.248744
O1    O     O_3   0.500000 0.500000 0.500000 -0.496508
O2    O     O_R   0.309700 0.585900 0.509470 -0.624232
O3    O     O_R   0.674980 0.398780 0.398780 -0.645338
O4    O     O_R   0.340340 0.501790 0.578230 -0.638647
O5    O     O_R   0.674980 0.513530 0.513520 -0.615259
O6    O     O_2   0.386973 0.661721 0.213004 -0.538738
O7    O     O_3   0.539083 0.416278 0.778038 -0.605362
O8    O     O_3   0.444213 0.254965 0.010147 -0.600092
O9    O     O_3   0.372874 0.869492 0.707499 -0.614492
O10   O     O_3   0.402949 0.154030 0.738085 -0.589427
O11   O     O_3   0.684222 0.942500 0.267628 -0.629689
O12   O     O_R   0.524320 0.685780 0.578230 -0.660099
O13   O     O_2   0.587130 0.158739 0.251387 -0.564023
O14   O     O_3   0.636108 0.794559 0.431285 -0.634011
O15   O     O_2   0.470473 0.255524 0.718101 -0.539883
O16   O     O_2   0.188735 0.722752 0.802795 -0.563774
O17   O     O_3   0.922041 0.695967 0.732867 -0.615526
O18   O     O_3   0.765716 0.378543 0.272151 -0.611057
O19   O     O_2   0.802551 0.425407 0.571753 -0.583373
O20   O     O_2   0.120216 0.511091 0.289988 -0.565643
O21   O     O_R   0.567430 0.291230 0.398780 -0.611056
O22   O     O_R   0.417260 0.532000 0.348010 -0.644808
O23   O     O_R   0.490990 0.490990 0.674980 -0.597989
O24   O     O_R   0.524330 0.409580 0.302030 -0.615435
O25   O     O_R   0.567420 0.567430 0.674980 -0.645278
O26   O     O_R   0.417260 0.693460 0.509470 -0.626935
O27   O     O_R   0.490990 0.329540 0.513520 -0.640500
Zn1   Zn    Zn3+2 0.565540 0.565550 0.565540 0.979560
Zn2   Zn    Zn3+2 0.412570 0.576510 0.467300 0.994905
Zn3   Zn    Zn3+2 0.456340 0.456340 0.565550 0.995157
Zn4   Zn    Zn3+2 0.565550 0.401610 0.401610 1.009398

loop_
_geom_bond_atom_site_label_1
_geom_bond_atom_site_label_2
_ccdc_geom_bond_type
O24   Zn4   S    
C79   H57   S    
C14   H60   S    
C34   C56   A    
C66   H31   S    
O5    Zn1   S    
C41   C42   A    
C71   H40   S    
C61   H16   S    
C1    C11   S    
C75   C76   S    
C68   O11   S    
C6    C9    A    
C15   O7    S    
C7    C8    A    
C30   H34   S    
C79   H54   S    
C45   C57   A    
C26   C27   A    
C29   C30   A    
C57   H7    S    
C13   C18   A    
C64   H25   S    
C32   C36   A    
C31   C58   S    
C35   O11   S    
C10   C15   A    
C38   C39   A    
C76   H49   S    
O3    Zn4   S    
C45   C82   A    
C73   H44   S    
O2    Zn2   S    
C69   H36   S    
C69   H35   S    
C2    H8    S    
C17   C19   A    
C74   H46   S    
O1    Zn4   S    
C11   C30   A    
C52   C54   S    
C52   O5    A    
C16   O12   A    
C41   C46   A    
C53   H4    S    
C9    C55   A    
C66   H29   S    
C58   H9    S    
C75   H48   S    
C50   H6    S    
C62   H19   S    
C43   O14   S    
C81   H59   S    
C42   C49   A    
O1    Zn1   S    
C11   C31   A    
C59   C60   S    
C13   C14   A    
C72   H42   S    
C61   H17   S    
C67   C78   A    
C8    C55   A    
C36   C70   S    
C64   H26   S    
C77   C79   S    
C33   C53   A    
O27   Zn3   S    
C4    O25   A    
C40   O4    A    
C27   C31   A    
C28   C32   S    
C24   C25   A    
C63   O9    S    
C38   C41   A    
C63   H21   S    
C60   H15   S    
C10   C14   A    
C70   H38   S    
C5    C7    A    
C68   C69   S    
C68   H33   S    
C1    O24   A    
C50   C51   A    
C25   C26   A    
C80   H58   S    
O12   Zn1   S    
O4    Zn3   S    
C35   C36   A    
C35   C39   A    
C43   C44   A    
C80   O19   D    
C37   C38   A    
C16   C33   S    
C78   C82   A    
C28   O27   A    
C47   C48   A    
C40   C55   S    
C8    C74   S    
C17   C18   A    
C7    H12   S    
C34   C45   A    
C32   C37   A    
O1    Zn3   S    
C65   H27   S    
C28   O21   A    
C23   C34   A    
O23   Zn3   S    
C62   H18   S    
C12   C57   A    
C60   H14   S    
C48   C49   A    
C79   H55   S    
O1    Zn2   S    
C65   C66   S    
C52   O3    A    
C72   H41   S    
C23   C80   S    
O25   Zn1   S    
C33   C51   A    
C42   C43   A    
C4    C10   S    
C44   H3    S    
C56   C67   A    
C23   C54   A    
C77   O18   S    
C15   C17   A    
C71   O14   S    
C46   C47   A    
C6    C67   A    
O22   Zn2   S    
C18   C22   A    
C71   H39   S    
C37   H5    S    
C63   H22   S    
C3    C5    A    
C19   C20   A    
C76   H51   S    
C64   H24   S    
C39   C44   A    
C20   C27   A    
C59   O7    S    
O21   Zn4   S    
C22   H23   S    
C77   H53   S    
C73   O15   D    
C4    O23   A    
C40   O2    A    
C72   H43   S    
C75   O17   S    
C70   O13   D    
C66   H30   S    
C13   H56   S    
C47   O10   S    
C2    C3    A    
C25   H45   S    
C71   C72   S    
C2    C56   A    
C29   O8    S    
C76   H50   S    
C78   C81   S    
C5    C6    A    
C1    O22   A    
C24   H62   S    
C49   C53   A    
C48   C50   A    
C81   O20   D    
C69   H37   S    
C19   C24   A    
C58   O6    D    
C59   H10   S    
C61   C62   S    
C61   O8    S    
C65   H28   S    
C74   O16   D    
C3    O17   S    
C9    H2    S    
C12   O18   S    
C63   C64   S    
C60   H13   S    
C16   O26   A    
C20   C21   A    
C26   C29   A    
C82   H1    S    
C77   H52   S    
C21   H61   S    
C59   H11   S    
C65   O10   S    
C51   O9    S    
C21   C22   A    
C46   C73   S    
C12   C54   A    
C75   H47   S    
C68   H32   S    
C62   H20   S    
O26   Zn2   S    
