data_mof_unit_31645.cif
_audit_creation_date              2012-12-11T16:28:23-0500
_audit_creation_method            fapswitch 2.2
_symmetry_space_group_name_H-M    P1
_symmetry_Int_Tables_number       1
_space_group_crystal_system       triclinic
_cell_length_a                    16.587042
_cell_length_b                    7.254939
_cell_length_c                    15.21248
_cell_angle_alpha                 90.048563
_cell_angle_beta                  94.721465
_cell_angle_gamma                 89.976505
_cell_volume                      1824.42626604

loop_
_atom_site_label
_atom_site_type_symbol
_atom_type_description
_atom_site_fract_x
_atom_site_fract_y
_atom_site_fract_z
_atom_type_partial_charge
O1    O     O_R   0.663460 0.361760 0.165970 -0.532542
O2    O     O_R   0.336540 0.638240 0.834030 -0.532541
O3    O     O_R   0.836540 0.861760 0.334030 -0.532864
O4    O     O_R   0.163460 0.138240 0.665970 -0.532864
O5    O     O_R   0.827100 0.689870 0.163730 -0.536261
O6    O     O_R   0.172900 0.310130 0.836270 -0.536261
O7    O     O_R   0.672900 0.189870 0.336270 -0.535701
O8    O     O_R   0.327100 0.810130 0.663730 -0.535701
H1    H     H_    0.205330 0.870860 0.497882 0.103135
H2    H     H_    0.794670 0.129139 0.502118 0.103136
H3    H     H_    0.292838 0.617575 0.993913 0.103017
H4    H     H_    0.707162 0.382425 0.006087 0.103017
C1    C     C_R   0.853273 0.522888 0.143577 0.708406
C2    C     C_R   0.146727 0.477112 0.856422 0.708406
C3    C     C_R   0.646729 0.022986 0.356437 0.708164
C4    C     C_R   0.353270 0.977014 0.643563 0.708163
O9    O     O_R   0.663490 0.691370 0.155500 -0.535871
O10   O     O_R   0.336510 0.308630 0.844500 -0.535871
O11   O     O_R   0.836510 0.191370 0.344500 -0.535443
O12   O     O_R   0.163490 0.808630 0.655500 -0.535443
O13   O     O_R   0.671770 0.863320 0.325740 -0.533132
O14   O     O_R   0.328230 0.136680 0.674260 -0.533132
O15   O     O_R   0.828230 0.363320 0.174260 -0.532787
O16   O     O_R   0.171770 0.636680 0.825740 -0.532787
C5    C     C_R   0.636191 0.522866 0.133728 0.679563
C6    C     C_R   0.363809 0.477134 0.866272 0.679564
C7    C     C_R   0.863873 0.022845 0.366196 0.680506
C8    C     C_R   0.136126 0.977155 0.633804 0.680506
H5    H     H_    0.106531 0.809951 0.232315 0.114529
H6    H     H_    0.893469 0.190049 0.767685 0.114529
H7    H     H_    0.391442 0.772663 0.250419 0.114841
H8    H     H_    0.608558 0.227337 0.749581 0.114841
O17   O     O_3   0.752910 0.528800 0.305860 -0.373494
O18   O     O_3   0.247090 0.471200 0.694140 -0.373494
O19   O     O_3   0.747090 0.028800 0.194140 -0.374509
O20   O     O_3   0.252910 0.971200 0.805860 -0.374508
V1    V     V_3+5 0.749460 0.803010 0.239640 1.424055
V2    V     V_3+5 0.250540 0.196990 0.760360 1.424055
V3    V     V_3+5 0.750540 0.303010 0.260360 1.426440
V4    V     V_3+5 0.249460 0.696990 0.739640 1.426440
C9    C     C_1   0.468824 0.994712 0.530117 -0.000694
C10   C     C_1   0.531176 0.005288 0.469883 -0.000694
C11   C     C_1   0.031175 0.494822 0.969876 -0.001323
C12   C     C_1   0.968825 0.505178 0.030124 -0.001323
H9    H     H_    0.778450 0.211080 0.654498 0.111788
H10   H     H_    0.221550 0.788920 0.345502 0.111788
H11   H     H_    0.724174 0.250750 0.861928 0.111330
H12   H     H_    0.275826 0.749250 0.138071 0.111330
C13   C     C_R   0.022715 0.904080 0.323118 -0.135003
C14   C     C_R   0.977285 0.095919 0.676882 -0.135003
C15   C     C_R   0.476398 0.653453 0.167355 -0.136895
C16   C     C_R   0.523602 0.346547 0.832645 -0.136895
C17   C     C_R   0.098155 0.845282 0.300129 -0.123076
C18   C     C_R   0.901845 0.154718 0.699871 -0.123076
C19   C     C_R   0.400157 0.715335 0.186148 -0.123084
C20   C     C_R   0.599843 0.284665 0.813852 -0.123084
C21   C     C_R   0.162912 0.833396 0.363866 -0.119684
C22   C     C_R   0.837088 0.166604 0.636134 -0.119684
C23   C     C_R   0.335068 0.702220 0.122877 -0.120291
C24   C     C_R   0.664932 0.297780 0.877123 -0.120291
C25   C     C_R   0.152716 0.879955 0.451137 -0.129795
C26   C     C_R   0.847284 0.120045 0.548863 -0.129795
C27   C     C_R   0.345721 0.627320 0.040261 -0.126350
C28   C     C_R   0.654279 0.372680 0.959739 -0.126350
C29   C     C_R   0.076623 0.938264 0.476784 0.067721
C30   C     C_R   0.923377 0.061735 0.523216 0.067721
C31   C     C_R   0.422587 0.564910 0.018810 0.068169
C32   C     C_R   0.577413 0.435090 0.981190 0.068169
C33   C     C_R   0.010178 0.950822 0.411367 0.067576
C34   C     C_R   0.989822 0.049178 0.588633 0.067576
C35   C     C_R   0.489374 0.578119 0.083776 0.066690
C36   C     C_R   0.510626 0.421881 0.916224 0.066690
C37   C     C_R   0.066524 0.987327 0.565495 -0.176779
C38   C     C_R   0.933476 0.012673 0.434505 -0.176779
C39   C     C_R   0.433136 0.486918 0.934940 -0.177367
C40   C     C_R   0.566864 0.513081 0.065060 -0.177367
C41   C     C_1   0.416000 0.986077 0.581460 -0.193117
C42   C     C_1   0.584000 0.013923 0.418540 -0.193116
C43   C     C_1   0.083998 0.486309 0.918524 -0.193044
C44   C     C_1   0.916002 0.513691 0.081476 -0.193044
H13   H     H_    0.974739 0.913776 0.270693 0.110523
H14   H     H_    0.025261 0.086223 0.729307 0.110523
H15   H     H_    0.524673 0.664326 0.219388 0.112650
H16   H     H_    0.475327 0.335674 0.780611 0.112650

loop_
_geom_bond_atom_site_label_1
_geom_bond_atom_site_label_2
_ccdc_geom_bond_type
C22   C26   A    
O5    C1    A    
O5    V1    S    
C9    C10   S    
O10   C6    A    
H6    C18   S    
O17   V3    S    
C2    O16   A    
H1    C25   S    
C28   C32   A    
O19   V1    S    
C19   C23   A    
C9    C41   T    
C35   C40   A    
O12   V4    S    
C29   C33   A    
C3    C42   S    
C11   C43   T    
C30   C38   A    
C29   C37   A    
C1    O15   A    
C4    C41   S    
C13   H13   S    
C16   H16   S    
H11   C24   S    
O6    V2    S    
C7    C38   S    
O11   C7    A    
C15   C19   A    
O7    C3    A    
C1    C44   S    
O8    C4    A    
C13   C33   A    
O1    C5    A    
H2    C26   S    
C15   C35   A    
C36   C39   A    
C8    C37   S    
O4    C8    A    
C27   C31   A    
H9    C22   S    
C26   C30   A    
C12   C44   T    
C17   C21   A    
O9    V1    S    
O12   C8    A    
C20   C24   A    
C11   C12   S    
C16   C36   A    
O2    V4    S    
O6    C2    A    
C32   C36   A    
C34   C37   A    
C6    C39   S    
C33   C38   A    
O2    C6    A    
C14   C18   A    
C2    C43   S    
O11   V3    S    
O4    V2    S    
C10   C42   T    
H10   C21   S    
O18   V4    S    
C31   C39   A    
C15   H15   S    
C14   H14   S    
H12   C23   S    
C18   C22   A    
H4    C28   S    
C4    O14   A    
C23   C27   A    
C21   C25   A    
C32   C40   A    
H3    C27   S    
C24   C28   A    
C5    C40   S    
O9    C5    A    
O3    C7    A    
C14   C34   A    
C30   C34   A    
H5    C17   S    
C13   C17   A    
O20   V2    S    
O16   V4    S    
H8    C20   S    
C31   C35   A    
O10   V2    S    
O1    V3    S    
C25   C29   A    
C3    O13   A    
O13   V1    S    
O3    V1    S    
O7    V3    S    
O8    V4    S    
H7    C19   S    
O15   V3    S    
C16   C20   A    
O14   V2    S    
