data_mof_unit_49241.cif
_audit_creation_date              2012-12-10T20:44:48-0500
_audit_creation_method            fapswitch 2.2
_symmetry_space_group_name_H-M    P1
_symmetry_Int_Tables_number       1
_space_group_crystal_system       triclinic
_cell_length_a                    9.876298
_cell_length_b                    10.730691
_cell_length_c                    16.827174
_cell_angle_alpha                 89.378954
_cell_angle_beta                  96.253411
_cell_angle_gamma                 89.824219
_cell_volume                      1772.60408658

loop_
_atom_site_label
_atom_site_type_symbol
_atom_type_description
_atom_site_fract_x
_atom_site_fract_y
_atom_site_fract_z
_atom_type_partial_charge
C1    C     C_R   0.500467 0.260043 0.504320 0.957795
C2    C     C_R   0.501720 0.128639 0.519801 -0.222757
C3    C     C_R   0.386416 0.066116 0.542813 0.317330
C4    C     C_R   0.519638 0.498761 0.653337 0.978586
C5    C     C_R   0.383074 0.934926 0.538530 0.316615
C6    C     C_R   0.502722 0.870508 0.522948 -0.229069
C7    C     C_R   0.624955 0.935181 0.523206 -0.183575
C8    C     C_3   0.736447 0.923946 0.469092 0.208895
C9    C     C_3   0.725178 0.065328 0.456883 0.774025
C10   C     C_R   0.079239 0.410293 0.541074 0.180916
C11   C     C_R   0.062149 0.584269 0.454548 0.308836
C12   C     C_R   0.632505 0.422385 0.783603 0.230274
C13   C     C_R   0.915844 0.580194 0.451258 0.498974
C14   C     C_R   0.937008 0.410697 0.541221 0.158278
C15   C     C_3   0.946809 0.386626 0.628810 -0.431548
C16   C     C_R   0.500422 0.739919 0.504969 0.927740
C17   C     C_3   0.100298 0.387808 0.629290 -0.449598
C18   C     C_R   0.480455 0.499099 0.346646 1.031445
C19   C     C_R   0.535174 0.500257 0.740065 -0.230926
C20   C     C_R   0.453099 0.581023 0.779409 0.362290
C21   C     C_R   0.462098 0.577925 0.862117 -0.366486
C22   C     C_R   0.552664 0.495923 0.906039 0.189190
C23   C     C_R   0.527910 0.395973 0.138998 0.272791
C24   C     C_R   0.639118 0.418693 0.867984 0.357288
C25   C     C_3   0.776991 0.376542 0.260975 0.134168
C26   C     C_3   0.877565 0.268772 0.273963 -0.765006
C27   C     C_3   0.549467 0.062268 0.344948 0.088028
C28   C     C_3   0.549078 0.036909 0.256121 -0.764396
C29   C     C_3   0.873260 0.696831 0.330721 0.154378
C30   C     C_3   0.751049 0.720130 0.268780 -0.906348
C31   C     C_3   0.403527 0.782660 0.740744 0.138524
C32   C     C_3   0.281441 0.869367 0.741130 -0.755043
C33   C     C_R   0.549064 0.408686 0.222504 0.198939
C34   C     C_R   0.438039 0.478664 0.094045 0.162968
C35   C     C_R   0.464656 0.490702 0.259977 -0.276627
C36   C     C_R   0.363364 0.562426 0.215065 0.236452
C37   C     C_R   0.354778 0.560391 0.130937 0.266200
C38   C     C_R   0.621114 0.062333 0.515643 -0.060937
H1    H     H_    0.707496 0.869358 0.414730 0.158141
H2    H     H_    0.980303 0.300439 0.261728 0.194843
H3    H     H_    0.884055 0.235826 0.336833 0.279873
H4    H     H_    0.185061 0.924181 0.524828 0.366231
H5    H     H_    0.873078 0.920911 0.563796 0.359107
H6    H     H_    0.914399 0.108585 0.453940 0.341010
H7    H     H_    0.471876 0.135127 0.352334 0.165443
H8    H     H_    0.516691 0.975155 0.372921 0.087352
H9    H     H_    0.644528 0.989036 0.244402 0.249221
H10   H     H_    0.460896 0.977293 0.235108 0.214343
H11   H     H_    0.539281 0.125276 0.221648 0.275335
H12   H     H_    0.907394 0.465577 0.661965 0.230718
H13   H     H_    0.207406 0.650077 0.400714 0.409483
H14   H     H_    0.929822 0.786030 0.338368 0.223961
H15   H     H_    0.938416 0.624929 0.306179 0.119844
H16   H     H_    0.673594 0.778797 0.293436 0.261823
H17   H     H_    0.784700 0.767627 0.215410 0.226530
H18   H     H_    0.702761 0.631152 0.249542 0.239348
H19   H     H_    0.648065 0.250566 0.137306 0.362333
H20   H     H_    0.736343 0.260927 0.883117 0.343578
H21   H     H_    0.802432 0.334501 0.776065 0.338995
H22   H     H_    0.189321 0.644001 0.221577 0.343243
H23   H     H_    0.906345 0.293307 0.642738 0.250091
H24   H     H_    0.255599 0.716975 0.113283 0.347896
H25   H     H_    0.456331 0.803253 0.687194 0.155629
H26   H     H_    0.475444 0.804005 0.794746 0.120064
H27   H     H_    0.234197 0.856181 0.797559 0.245154
H28   H     H_    0.314655 0.967748 0.736762 0.201310
H29   H     H_    0.204216 0.849083 0.690016 0.290004
H30   H     H_    0.228492 0.081659 0.601504 0.329969
H31   H     H_    0.149037 0.467940 0.662427 0.245462
H32   H     H_    0.148125 0.295976 0.645391 0.235930
H33   H     H_    0.396141 0.638166 0.892202 0.218415
H34   H     H_    0.805336 0.445393 0.308180 0.169276
H35   H     H_    0.789484 0.420161 0.201718 0.139322
H36   H     H_    0.845462 0.190741 0.233488 0.259977
N1    N     N_2   0.553339 0.485180 0.989265 -0.048449
N2    N     N_2   0.436468 0.487721 0.010519 -0.080450
N3    N     N_R   0.142860 0.499130 0.500540 -0.177984
N4    N     N_R   0.857210 0.499170 0.500530 -0.176577
O1    O     O_R   0.614690 0.316790 0.499990 -0.570536
O2    O     O_3   0.263648 0.869968 0.543723 -0.711219
O3    O     O_3   0.861440 0.883277 0.509810 -0.706606
O4    O     O_3   0.842027 0.129883 0.488065 -0.754656
O5    O     O_3   0.680035 0.105726 0.376862 -0.607584
O6    O     O_3   0.120465 0.680382 0.416195 -0.741055
O7    O     O_3   0.828209 0.661238 0.404790 -0.559099
O8    O     O_3   0.594456 0.306522 0.098839 -0.704106
O9    O     O_3   0.721392 0.335977 0.914759 -0.714118
O10   O     O_3   0.715058 0.348628 0.742342 -0.770725
O11   O     O_3   0.278330 0.636346 0.254657 -0.770798
O12   O     O_R   0.385350 0.316760 0.500000 -0.579520
O13   O     O_3   0.271880 0.640977 0.082806 -0.743012
O14   O     O_3   0.357598 0.657848 0.737024 -0.580657
O15   O     O_3   0.277767 0.133655 0.565159 -0.761858
O16   O     O_R   0.627460 0.498860 0.616130 -0.602994
O17   O     O_R   0.398120 0.498820 0.616130 -0.591216
O18   O     O_R   0.614650 0.683240 0.500000 -0.581222
O19   O     O_R   0.385310 0.683210 0.500010 -0.550131
O20   O     O_R   0.601880 0.501180 0.383870 -0.578198
O21   O     O_R   0.372540 0.501140 0.383870 -0.636357
O22   O     O_3   0.643221 0.333715 0.268147 -0.567879
Zn1   Zn    Zn3+2 0.653130 0.500020 0.499990 1.040405
Zn2   Zn    Zn3+2 0.346870 0.499980 0.500010 1.018735

loop_
_geom_bond_atom_site_label_1
_geom_bond_atom_site_label_2
_ccdc_geom_bond_type
C36   O11   S    
C28   H9    S    
H4    O2    S    
C1    O12   A    
C34   C37   A    
C35   C36   A    
H20   O9    S    
C7    C8    S    
H22   O11   S    
C17   H31   S    
C20   O14   S    
C21   H33   S    
C36   C37   A    
H6    O4    S    
C5    C6    A    
C16   O19   A    
C10   C17   S    
H19   O8    S    
C1    C2    S    
C15   H12   S    
H21   O10   S    
O12   Zn2   S    
C11   N3    A    
C33   C35   A    
C4    C19   S    
C19   C20   A    
O16   Zn1   S    
C8    C9    S    
C23   C33   A    
C23   O8    S    
C8    H1    S    
C18   C35   S    
C29   O7    S    
O19   Zn2   S    
O17   Zn2   S    
C9    O4    S    
C27   H7    S    
C17   H32   S    
C21   C22   A    
N4    Zn1   S    
N3    Zn2   S    
C22   N1    S    
C10   N3    A    
C16   O18   A    
C12   O10   S    
C8    O3    S    
C31   H25   S    
C10   C14   A    
C37   O13   S    
C25   C26   S    
C30   H18   S    
N1    N2    D    
C29   C30   S    
C4    O17   A    
C30   H16   S    
C28   H11   S    
C2    C38   A    
C25   O22   S    
C31   C32   S    
C23   C34   A    
H24   O13   S    
C15   H23   S    
C3    O15   S    
C25   H34   S    
C5    O2    S    
C9    O5    S    
C32   H29   S    
C4    O16   A    
C27   H8    S    
C1    O1    A    
C22   C24   A    
C18   O21   A    
C32   H28   S    
C15   C17   S    
C13   N4    A    
C28   H10   S    
C31   H26   S    
C3    C5    A    
C6    C7    A    
C11   O6    S    
O20   Zn1   S    
C30   H17   S    
C12   C24   A    
H30   O15   S    
C33   O22   S    
C27   O5    S    
C2    C3    A    
C11   C13   A    
C26   H2    S    
C29   H15   S    
H5    O3    S    
C12   C19   A    
C9    C38   S    
C26   H36   S    
C7    C38   A    
C25   H35   S    
C14   N4    A    
C24   O9    S    
C6    C16   S    
O21   Zn2   S    
C20   C21   A    
C31   O14   S    
C13   O7    S    
C27   C28   S    
C14   C15   S    
O1    Zn1   S    
C18   O20   A    
O18   Zn1   S    
H13   O6    S    
C26   H3    S    
C34   N2    S    
C32   H27   S    
C29   H14   S    
