data_mof_unit_57366.cif
_audit_creation_date              2013-03-05T15:49:13-0500
_audit_creation_method            fapswitch 2.2
_symmetry_space_group_name_H-M    P1
_symmetry_Int_Tables_number       1
_space_group_crystal_system       triclinic
_cell_length_a                    18.729424
_cell_length_b                    18.367688
_cell_length_c                    18.814311
_cell_angle_alpha                 108.566764
_cell_angle_beta                  110.071197
_cell_angle_gamma                 108.392553
_cell_volume                      5064.74678314

loop_
_atom_site_label
_atom_site_type_symbol
_atom_site_description
_atom_site_fract_x
_atom_site_fract_y
_atom_site_fract_z
_atom_type_partial_charge
O1    O     O_R   0.592010 0.539900 0.448660 -0.613933
O2    O     O_R   0.591210 0.643320 0.551330 -0.639491
C1    C     C_R   0.619873 0.620122 0.500158 0.842698
O3    O     O_R   0.408080 0.448290 0.356360 -0.579094
O4    O     O_R   0.407280 0.551710 0.459030 -0.636488
C2    C     C_R   0.378645 0.499824 0.379761 0.853226
Zn1   Zn    Zn3+2 0.500540 0.430950 0.431450 1.000885
Zn2   Zn    Zn3+2 0.499460 0.569050 0.568550 1.005940
O5    O     O_R   0.408790 0.356680 0.448670 -0.629709
O6    O     O_R   0.407990 0.460100 0.551340 -0.606193
O7    O     O_R   0.592720 0.448290 0.540970 -0.670975
O8    O     O_R   0.591920 0.551710 0.643640 -0.554628
C3    C     C_R   0.380447 0.379690 0.500846 0.914509
C4    C     C_R   0.620099 0.498007 0.619805 0.934763
C5    C     C_3   0.321184 0.577929 0.296915 -0.208731
C6    C     C_3   0.231770 0.562029 0.288757 -0.125299
H1    H     H_    0.215017 0.613086 0.316182 0.128342
H2    H     H_    0.380752 0.642164 0.334808 0.141875
C7    C     C_3   0.189586 0.499250 0.192352 -0.035676
C8    C     C_3   0.277789 0.515455 0.199104 -0.212814
C9    C     C_3   0.267171 0.438211 0.217008 0.361629
C10   C     C_3   0.178244 0.420422 0.208129 -0.240141
C11   C     C_3   0.222222 0.483305 0.306051 -0.188004
C12   C     C_3   0.310613 0.499421 0.313245 -0.075802
H3    H     H_    0.298768 0.527536 0.153612 0.173784
H4    H     H_    0.119188 0.355730 0.169841 0.159447
H5    H     H_    0.201435 0.470600 0.351423 0.149351
H6    H     H_    0.855706 0.549014 0.528907 0.133251
C13   C     C_R   0.600822 0.765182 0.485621 -0.144648
C14   C     C_R   0.597293 0.841603 0.492498 -0.151711
C15   C     C_R   0.669492 0.913184 0.511763 -0.136838
C16   C     C_R   0.743527 0.906674 0.519123 -0.143360
C17   C     C_R   0.746531 0.827601 0.507280 0.071767
C18   C     C_R   0.677528 0.759150 0.498102 0.079835
C19   C     C_R   0.816224 0.815059 0.503732 -0.212248
C20   C     C_R   0.823335 0.740155 0.502243 0.072988
C21   C     C_R   0.761960 0.679562 0.509262 0.069570
C22   C     C_R   0.687188 0.686975 0.502051 -0.206668
C23   C     C_R   0.890246 0.723984 0.494252 -0.150819
C24   C     C_R   0.901026 0.655074 0.502945 -0.135438
C25   C     C_R   0.845862 0.601019 0.519633 -0.138191
C26   C     C_R   0.776888 0.612734 0.522766 -0.149840
H7    H     H_    0.542652 0.711309 0.470012 0.145733
H8    H     H_    0.538785 0.845665 0.484161 0.132524
H9    H     H_    0.667749 0.973518 0.519729 0.134485
H10   H     H_    0.798171 0.964469 0.534858 0.148736
H11   H     H_    0.934806 0.763503 0.480863 0.152451
H12   H     H_    0.953178 0.644453 0.497993 0.137468
H13   H     H_    0.736258 0.569233 0.536512 0.143868
H14   H     H_    0.564805 0.195381 0.548824 0.136546
C27   C     C_R   0.777359 0.657602 0.741865 -0.228033
C28   C     C_R   0.846655 0.738558 0.809118 0.287162
C29   C     C_R   0.904910 0.741675 0.881580 -0.169516
C30   C     C_R   0.895663 0.664890 0.885253 -0.123804
C31   C     C_R   0.827507 0.581815 0.815873 0.108110
C32   C     C_R   0.764513 0.579187 0.746564 0.024113
C33   C     C_R   0.820813 0.501525 0.813043 -0.156818
C34   C     C_R   0.755838 0.420243 0.740065 0.048004
C35   C     C_R   0.686656 0.417869 0.676940 0.102236
C36   C     C_R   0.690555 0.498198 0.682817 -0.150159
C37   C     C_R   0.758834 0.341093 0.728127 -0.141114
C38   C     C_R   0.690759 0.261008 0.659493 -0.126825
C39   C     C_R   0.618640 0.257793 0.601308 -0.155256
C40   C     C_R   0.616252 0.334908 0.609385 -0.062032
H15   H     H_    0.734601 0.656961 0.685560 0.135295
H16   H     H_    0.959113 0.803512 0.934653 0.145236
H17   H     H_    0.943076 0.672898 0.943618 0.193398
H18   H     H_    0.814227 0.339932 0.770346 0.139148
H19   H     H_    0.693804 0.201275 0.651830 0.137024
H20   H     H_    0.558173 0.327321 0.561753 0.180434
H21   H     H_    0.169942 0.147792 0.202220 0.173921
C41   C     C_R   0.378218 0.394727 0.663420 0.307553
C42   C     C_R   0.360180 0.415809 0.731547 -0.218889
C43   C     C_R   0.280932 0.363612 0.720967 0.213118
C44   C     C_R   0.221373 0.287491 0.642868 -0.225033
C45   C     C_R   0.237666 0.266043 0.572847 0.012012
C46   C     C_R   0.311307 0.325353 0.579076 -0.032877
C47   C     C_R   0.181970 0.185655 0.496937 -0.147382
C48   C     C_R   0.185383 0.170689 0.420386 0.070749
C49   C     C_R   0.245674 0.239109 0.420251 0.054417
C50   C     C_R   0.313109 0.313238 0.500695 -0.187132
C51   C     C_R   0.127608 0.090267 0.343006 -0.157124
C52   C     C_R   0.123793 0.081695 0.265407 -0.146750
C53   C     C_R   0.175742 0.153044 0.263130 -0.119875
C54   C     C_R   0.235470 0.231258 0.339275 -0.133731
H22   H     H_    0.409574 0.470910 0.794279 0.186194
H23   H     H_    0.161971 0.245611 0.637338 0.139055
H24   H     H_    0.083931 0.033796 0.341174 0.140437
H25   H     H_    0.078436 0.020429 0.206533 0.144247
H26   H     H_    0.271223 0.285316 0.332779 0.186640
O9    O     O_R   0.951440 0.539900 0.094740 -0.597415
O10   O     O_R   0.054870 0.643310 0.094700 -0.634776
C55   C     C_R   0.001410 0.620245 0.121826 0.924206
O11   O     O_R   0.044440 0.448270 0.096110 -0.633068
O12   O     O_R   0.147870 0.551680 0.096080 -0.629772
C56   C     C_R   0.123842 0.499960 0.125012 0.864480
Zn3   Zn    Zn3+2 0.934770 0.430930 0.003810 1.015358
Zn4   Zn    Zn3+2 0.072900 0.569020 0.003770 0.948457
O13   O     O_R   0.952810 0.356650 0.912880 -0.639099
O14   O     O_R   0.056240 0.460060 0.912840 -0.617074
O15   O     O_R   0.859800 0.448280 0.911500 -0.550182
O16   O     O_R   0.963240 0.551690 0.911470 -0.668206
C57   C     C_R   0.004270 0.379842 0.884447 0.847584
C58   C     C_R   0.883974 0.501831 0.883516 0.936212
O17   O     O_R   0.052860 0.908430 0.461230 -0.630358
O18   O     O_R   0.948620 0.908400 0.356980 -0.612918
C59   C     C_R   0.003526 0.882108 0.382122 0.846597
O19   O     O_R   0.960510 0.908410 0.552140 -0.628363
O20   O     O_R   0.856270 0.908390 0.447890 -0.617523
C60   C     C_R   0.880768 0.879924 0.500675 0.847914
Zn5   Zn    Zn3+2 0.069600 0.000030 0.569620 0.959930
Zn6   Zn    Zn3+2 0.930400 1.000000 0.430410 0.954277
O21   O     O_R   0.051380 0.091620 0.643040 -0.614260
O22   O     O_R   0.947140 0.091600 0.538800 -0.629650
O23   O     O_R   0.143730 0.091640 0.552130 -0.612477
O24   O     O_R   0.039490 0.091610 0.447890 -0.630551
C61   C     C_R   0.998305 0.119963 0.618443 0.848557
C62   C     C_R   0.118794 0.118206 0.497740 0.850057
C63   C     C_R   0.163031 0.765552 0.268775 -0.157109
C64   C     C_R   0.239940 0.842774 0.329663 -0.148755
C65   C     C_R   0.238161 0.914671 0.381491 -0.123418
C66   C     C_R   0.160136 0.907548 0.376362 -0.158073
C67   C     C_R   0.081883 0.828042 0.317463 0.067318
C68   C     C_R   0.081809 0.759263 0.257380 0.076286
C69   C     C_R   0.004528 0.814299 0.319389 -0.157001
C70   C     C_R   0.927749 0.734753 0.262485 0.042074
C71   C     C_R   0.921611 0.675328 0.189173 -0.060533
C72   C     C_R   0.000905 0.686393 0.188787 -0.187729
C73   C     C_R   0.856702 0.714537 0.277263 -0.197416
C74   C     C_R   0.777907 0.640969 0.216450 -0.226784
C75   C     C_R   0.765163 0.588975 0.135843 0.183174
C76   C     C_R   0.836445 0.607861 0.120740 0.288200
H27   H     H_    0.169103 0.711030 0.232964 0.151728
H28   H     H_    0.301041 0.846832 0.336374 0.133941
H29   H     H_    0.297668 0.975225 0.427702 0.140325
H30   H     H_    0.162305 0.964417 0.419867 0.140667
H31   H     H_    0.861357 0.755545 0.336346 0.153930
H32   H     H_    0.725529 0.629263 0.230882 0.174494
H33   H     H_    0.018498 0.150349 0.958839 0.144487
C77   C     C_R   0.980401 0.389639 0.728816 -0.147175
C78   C     C_R   0.982523 0.402046 0.660178 -0.137203
C79   C     C_R   0.996827 0.347163 0.602925 -0.134672
C80   C     C_R   0.004091 0.276814 0.611334 -0.167431
C81   C     C_R   0.997181 0.260083 0.678006 0.060185
C82   C     C_R   0.992662 0.321348 0.741402 0.073163
C83   C     C_R   0.994698 0.184189 0.683169 -0.212229
C84   C     C_R   0.992091 0.170982 0.752555 0.076367
C85   C     C_R   0.003611 0.239620 0.823121 0.072401
C86   C     C_R   0.001010 0.313084 0.815739 -0.203691
C87   C     C_R   0.979225 0.091053 0.753795 -0.139457
C88   C     C_R   0.987965 0.083709 0.827384 -0.144290
C89   C     C_R   0.009256 0.155183 0.900795 -0.123120
C90   C     C_R   0.017060 0.232523 0.899117 -0.126348
H34   H     H_    0.968345 0.433777 0.770988 0.145111
H35   H     H_    0.974267 0.455180 0.652163 0.132848
H36   H     H_    0.000978 0.358263 0.550976 0.137224
H37   H     H_    0.015584 0.236715 0.565153 0.155928
H38   H     H_    0.961759 0.033282 0.698097 0.149268
H39   H     H_    0.979547 0.022794 0.827785 0.151279
H40   H     H_    0.034208 0.286308 0.958127 0.147722
N1    N     N_2   0.858665 0.816241 0.802511 -0.314306
H41   H     H_    0.823425 0.805789 0.741021 0.226452
C91   C     C_3   0.853686 0.880614 0.866442 -0.775024
H42   H     H_    0.863579 0.938160 0.855602 0.232600
H43   H     H_    0.904731 0.903359 0.932399 0.241724
H44   H     H_    0.789001 0.852567 0.861244 0.252879
N2    N     N_R   0.467106 0.433323 0.684908 0.215041
O25   O     O_R   0.497612 0.382497 0.658200 -0.449405
O26   O     O_R   0.520988 0.513008 0.746949 -0.379683
N3    N     N_2   0.262101 0.385764 0.789669 -0.302381
H45   H     H_    0.197058 0.355831 0.770432 0.234158
C92   C     C_3   0.313821 0.380370 0.863305 -0.717294
H46   H     H_    0.294995 0.399799 0.913413 0.249025
H47   H     H_    0.383633 0.425262 0.891890 0.240756
H48   H     H_    0.302887 0.312259 0.843884 0.246677
N4    N     N_2   0.680449 0.522270 0.066914 -0.263596
H49   H     H_    0.659058 0.531432 0.013754 0.272241
C93   C     C_3   0.613573 0.484820 0.086081 -0.741180
H50   H     H_    0.558088 0.424920 0.027006 0.252423
H51   H     H_    0.590205 0.531802 0.107229 0.229305
H52   H     H_    0.638243 0.466278 0.136533 0.250983
N5    N     N_R   0.818898 0.568649 0.033538 0.195322
O27   O     O_R   0.765878 0.485608 0.982084 -0.360974
O28   O     O_R   0.841248 0.619034 0.001337 -0.454746
N6    N     N_R   0.285894 0.369647 0.177464 0.215904
O29   O     O_R   0.316719 0.373364 0.125669 -0.399341
O30   O     O_R   0.266740 0.301729 0.189534 -0.426279

loop_
_geom_bond_atom_site_label_1
_geom_bond_atom_site_label_2
_geom_bond_distance
_ccdc_geom_bond_type
C5    H2    1.110303 S    
O13   C57   1.279257 A    
C31   C32   1.400985 A    
C25   C26   1.392199 A    
C24   C25   1.387699 A    
C70   C71   1.400122 A    
C42   C43   1.392669 A    
C75   N4    1.431610 S    
O12   C56   1.276301 A    
Zn6   O24   2.032480 S    
C93   H52   1.111157 S    
C48   C51   1.418783 A    
Zn6   O22   2.032490 S    
N1    H41   1.032177 S    
N6    O29   1.300484 A    
O12   Zn4   2.012461 S    
O10   Zn4   2.025704 S    
C67   C68   1.400786 A    
N2    O26   1.301744 A    
O18   Zn6   2.015319 S    
C63   C68   1.422306 A    
C28   C29   1.393660 A    
Zn1   O7    2.030102 S    
O17   C59   1.272266 A    
C35   C40   1.422854 A    
C49   C54   1.421704 A    
C52   C53   1.387688 A    
C20   C21   1.402849 A    
C91   H43   1.109944 S    
C21   C22   1.414180 A    
C45   C47   1.403788 A    
H21   C53   1.082550 S    
C14   C15   1.388077 A    
O7    C4    1.271510 A    
C80   C81   1.420040 A    
N6    O30   1.300172 A    
O18   C59   1.280423 A    
C5    C6    1.549131 S    
C3    C50   1.450631 S    
H33   C89   1.082652 S    
Zn1   O5    2.025626 S    
C27   C32   1.420290 A    
C27   H15   1.080494 S    
C21   C26   1.419785 A    
O5    C3    1.288070 A    
C71   C76   1.436892 A    
C41   C46   1.432485 A    
Zn3   O13   2.025748 S    
N5    O27   1.301445 A    
N3    H45   1.032138 S    
C84   C85   1.401603 A    
C1    C22   1.436311 S    
O24   C62   1.272251 A    
C6    H1    1.110324 S    
C88   C89   1.388184 A    
C80   H37   1.079180 S    
C40   H20   1.077741 S    
C92   H48   1.111946 S    
C28   N1    1.425328 S    
C68   C72   1.425114 A    
C76   N5    1.430557 S    
C34   C37   1.421033 A    
N4    C93   1.447863 S    
O17   Zn5   2.032492 S    
C35   C36   1.420244 A    
O1    Zn1   2.021789 S    
C9    C10   1.529568 S    
C13   H7    1.080469 S    
H14   C39   1.082679 S    
C14   H8    1.082621 S    
O3    Zn1   2.012853 S    
N1    C91   1.447198 S    
C29   C30   1.392856 A    
C92   H47   1.110567 S    
C93   H50   1.110287 S    
C10   C11   1.552317 S    
C77   C78   1.392161 A    
C5    C8    1.550460 S    
C52   H25   1.082607 S    
C54   H26   1.078478 S    
C43   C44   1.393104 A    
C27   C28   1.397634 A    
O22   C61   1.279562 A    
C7    C10   1.533790 S    
C45   C46   1.400849 A    
C59   C69   1.427741 S    
C41   C42   1.403816 A    
C81   C83   1.415354 A    
O20   Zn6   2.014630 S    
N2    O25   1.298228 A    
C92   H46   1.110745 S    
C47   C48   1.405759 A    
C78   H35   1.082641 S    
C30   H17   1.077697 S    
C26   H13   1.080457 S    
O11   Zn3   2.030488 S    
C34   C35   1.402318 A    
Zn4   O16   2.030441 S    
C13   C18   1.420168 A    
O14   C57   1.280855 A    
C65   H29   1.082579 S    
C32   C36   1.411836 A    
C38   H19   1.082675 S    
C61   C83   1.439135 S    
O1    C1    1.280952 A    
C19   C20   1.415986 A    
C88   H39   1.082420 S    
O11   C56   1.278234 A    
C44   C45   1.416035 A    
C13   C14   1.392883 A    
O9    C55   1.278905 A    
C15   C16   1.392704 A    
C46   C50   1.433628 A    
Zn2   O8    2.012853 S    
O23   C62   1.279515 A    
C2    C12   1.443401 S    
C91   H44   1.111508 S    
C38   C39   1.385624 A    
C17   C18   1.401441 A    
Zn5   O21   2.015105 S    
C63   H27   1.079151 S    
C53   C54   1.393865 A    
O16   C58   1.272293 A    
C29   H16   1.082619 S    
C66   H30   1.081034 S    
C65   C66   1.391605 A    
C19   C60   1.437602 S    
O21   C61   1.279683 A    
O3    C2    1.274478 A    
N4    H49   1.031441 S    
O8    C4    1.289140 A    
O15   C58   1.289213 A    
C11   H5    1.110135 S    
C31   C33   1.422018 A    
C10   H4    1.110357 S    
C69   C70   1.403619 A    
C41   N2    1.431218 S    
C48   C49   1.401047 A    
C85   C90   1.420218 A    
C15   H9    1.082616 S    
C71   C72   1.436947 A    
C74   H32   1.081314 S    
C84   C87   1.419983 A    
C23   C24   1.392831 A    
C64   C65   1.387761 A    
C23   H11   1.079509 S    
C83   C84   1.415403 A    
C44   H23   1.081588 S    
C24   H12   1.082565 S    
C33   C58   1.439425 S    
C30   C31   1.421428 A    
C5    C12   1.535160 S    
C87   H38   1.081057 S    
C47   C62   1.426279 S    
C18   C22   1.414418 A    
C16   H10   1.080868 S    
C20   C23   1.420247 A    
O2    Zn2   2.025627 S    
C49   C50   1.424861 A    
O6    C3    1.280343 A    
C77   C82   1.419793 A    
O4    Zn2   2.030100 S    
C93   H51   1.110757 S    
C63   C64   1.393694 A    
C9    N6    1.457238 S    
C6    C11   1.550835 S    
C4    C36   1.437876 S    
Zn4   O14   2.022044 S    
C70   C73   1.412006 A    
O19   Zn5   2.032565 S    
C81   C82   1.403840 A    
C16   C17   1.419978 A    
C7    C8    1.534733 S    
O2    C1    1.278480 A    
O9    Zn3   2.022084 S    
C55   C72   1.450560 S    
C78   C79   1.387547 A    
C37   H18   1.080216 S    
C33   C34   1.412908 A    
O4    C2    1.281968 A    
N3    C92   1.447193 S    
C90   H40   1.080871 S    
C6    C7    1.534041 S    
C51   H24   1.081056 S    
O10   C55   1.289661 A    
C17   C19   1.414599 A    
O19   C60   1.278109 A    
C74   C75   1.397979 A    
C64   H28   1.082646 S    
C85   C86   1.413726 A    
C37   C38   1.390555 A    
N5    O28   1.298241 A    
C42   H22   1.082668 S    
C43   N3    1.424521 S    
C91   H42   1.110315 S    
C67   C69   1.405402 A    
C57   C86   1.437879 S    
C11   C12   1.535614 S    
C39   C40   1.392443 A    
C7    C56   1.439252 S    
C73   H31   1.081408 S    
C8    C9    1.529127 S    
Zn2   O6    2.021788 S    
C51   C52   1.391520 A    
C8    H3    1.110382 S    
C9    C12   1.523032 S    
C79   C80   1.392672 A    
C82   C86   1.415484 A    
C73   C74   1.382387 A    
Zn5   O23   2.014757 S    
C89   C90   1.393210 A    
C79   H36   1.082562 S    
C66   C67   1.418700 A    
O20   C60   1.280409 A    
Zn3   O15   2.012581 S    
H6    C25   1.082632 S    
C75   C76   1.419303 A    
C77   H34   1.080103 S    
C87   C88   1.392560 A    
