data_mof_unit_32582.cif
_audit_creation_date              2012-12-10T17:48:38-0500
_audit_creation_method            fapswitch 2.2
_symmetry_space_group_name_H-M    P1
_symmetry_Int_Tables_number       1
_space_group_crystal_system       triclinic
_cell_length_a                    15.733879
_cell_length_b                    10.728569
_cell_length_c                    9.887302
_cell_angle_alpha                 89.167753
_cell_angle_beta                  89.913864
_cell_angle_gamma                 91.694248
_cell_volume                      1668.08767796

loop_
_atom_site_label
_atom_site_type_symbol
_atom_type_description
_atom_site_fract_x
_atom_site_fract_y
_atom_site_fract_z
_atom_type_partial_charge
C1    C     C_R   0.504726 0.259730 0.502079 0.864261
C2    C     C_R   0.481576 0.042507 0.878147 -0.137759
C3    C     C_R   0.437273 0.929391 0.865972 -0.129590
C4    C     C_R   0.338365 0.499522 0.500152 0.880677
C5    C     C_R   0.430039 0.874422 0.739624 -0.156026
C6    C     C_R   0.466961 0.933242 0.623453 0.093605
C7    C     C_R   0.495447 0.057470 0.631584 0.096553
C8    C     C_R   0.507214 0.125633 0.507891 -0.118986
C9    C     C_R   0.508088 0.064426 0.384030 -0.224330
C10   C     C_R   0.497596 0.937540 0.380816 -0.219417
C11   C     C_R   0.479808 0.871122 0.500257 -0.127091
C12   C     C_3   0.948716 0.458057 0.647530 0.426460
C13   C     C_R   0.387681 0.337437 0.142862 -0.198264
C14   C     C_R   0.332116 0.257772 0.074101 -0.223475
C15   C     C_R   0.331314 0.257529 0.933810 0.136666
C16   C     C_R   0.491213 0.738817 0.499590 0.880174
C17   C     C_R   0.387550 0.337785 0.862306 -0.203896
C18   C     C_R   0.444576 0.419928 0.929005 0.125108
C19   C     C_R   0.444628 0.419885 0.073655 0.170315
C20   C     C_R   0.552673 0.577043 0.070222 -0.126745
C21   C     C_R   0.552656 0.577002 0.926939 -0.114966
C22   C     C_R   0.661687 0.500034 0.499872 0.913656
C23   C     C_3   0.917355 0.493204 0.503127 0.181751
C24   C     C_3   0.047983 0.456051 0.647221 -0.207934
C25   C     C_3   0.047436 0.400058 0.394255 0.430694
C26   C     C_3   0.948869 0.397518 0.399712 -0.445084
C27   C     C_1   0.750564 0.497717 0.499951 -0.191076
C28   C     C_3   0.082630 0.492323 0.502537 0.167051
C29   C     C_3   0.892432 0.338956 0.827195 -0.306399
C30   C     C_3   0.084647 0.337675 0.177560 -0.344204
C31   C     C_3   0.953933 0.624259 0.463115 -0.523563
C32   C     C_3   0.051842 0.625036 0.467484 -0.409343
C33   C     C_1   0.825845 0.495431 0.500937 -0.027895
C34   C     C_1   0.174218 0.495072 0.501206 -0.049883
C35   C     C_1   0.249528 0.497384 0.500471 -0.187040
C36   C     C_R   0.510777 0.106322 0.762430 -0.170376
H1    H     H_    0.071017 0.529147 0.718512 0.138297
H2    H     H_    0.595631 0.639968 0.123092 0.143916
H3    H     H_    0.383901 0.331228 0.250090 0.215002
H4    H     H_    0.289459 0.195345 0.130695 0.149553
H5    H     H_    0.385671 0.332293 0.755190 0.207632
H6    H     H_    0.595579 0.639936 0.871823 0.150719
H7    H     H_    0.070366 0.305157 0.419724 0.040313
H8    H     H_    0.925077 0.301950 0.428007 0.169095
H9    H     H_    0.922480 0.419133 0.297858 0.191296
H10   H     H_    0.075054 0.692522 0.544594 0.161824
H11   H     H_    0.077908 0.658326 0.368204 0.231717
H12   H     H_    0.928872 0.534642 0.715565 0.039955
H13   H     H_    0.930148 0.695709 0.533227 0.175540
H14   H     H_    0.839244 0.401919 0.848291 0.158741
H15   H     H_    0.948960 0.365125 0.889321 0.170320
H16   H     H_    0.871479 0.242949 0.857511 0.188617
H17   H     H_    0.145535 0.341201 0.705902 0.175103
H18   H     H_    0.061787 0.263445 0.635834 0.213122
H19   H     H_    0.212268 0.199527 0.886410 0.177294
H20   H     H_    0.282208 0.181345 0.760436 0.171586
H21   H     H_    0.024613 0.280580 0.171530 0.149360
H22   H     H_    0.137936 0.279050 0.211418 0.162638
H23   H     H_    0.932713 0.650240 0.359346 0.213521
H24   H     H_    0.100009 0.373230 0.074190 0.202372
H25   H     H_    0.518324 0.114232 0.288961 0.171907
H26   H     H_    0.547909 0.190838 0.778819 0.172917
H27   H     H_    0.491913 0.082202 0.977057 0.139390
H28   H     H_    0.411143 0.882170 0.954867 0.139455
H29   H     H_    0.395446 0.786004 0.733773 0.159697
H30   H     H_    0.505214 0.891513 0.284883 0.169481
N1    N     N_R   0.499210 0.498800 0.142780 -0.115742
N2    N     N_R   0.499180 0.498720 0.857170 -0.119033
N3    N     N_3   0.079238 0.336668 0.699318 -0.440817
N4    N     N_3   0.274234 0.172939 0.865243 -0.452271
O1    O     O_R   0.500000 0.316780 0.614690 -0.653244
O2    O     O_3   0.075938 0.440290 0.263733 -0.588568
O3    O     O_R   0.499990 0.316750 0.385360 -0.640003
O4    O     O_R   0.377150 0.500020 0.614720 -0.642493
O5    O     O_R   0.377140 0.499990 0.385380 -0.621734
O6    O     O_R   0.500010 0.683250 0.614640 -0.623639
O7    O     O_R   0.500000 0.683220 0.385310 -0.619786
O8    O     O_R   0.622860 0.500010 0.614620 -0.610689
O9    O     O_R   0.622850 0.499980 0.385280 -0.612116
O10   O     O_3   0.911995 0.340490 0.687811 -0.593255
Zn1   Zn    Zn3+2 0.500010 0.500020 0.653130 0.923168
Zn2   Zn    Zn3+2 0.499990 0.499980 0.346870 0.936212

loop_
_geom_bond_atom_site_label_1
_geom_bond_atom_site_label_2
_ccdc_geom_bond_type
C1    C8    S    
C7    C36   A    
C20   N1    A    
C12   H12   S    
H17   N3    S    
C25   H7    S    
C26   H8    S    
C7    C8    A    
C3    H28   S    
C27   C33   T    
C25   C28   S    
H18   N3    S    
C12   C23   S    
C1    O1    A    
C9    H25   S    
N2    Zn1   S    
C22   O9    A    
C34   C35   T    
C5    C6    A    
C18   N2    A    
C30   H21   S    
C30   H22   S    
C16   O7    A    
C23   C26   S    
C31   H23   S    
C4    O5    A    
C26   H9    S    
C8    C9    A    
C23   C33   S    
C30   H24   S    
C19   N1    A    
C9    C10   A    
C4    O4    A    
C4    C35   S    
C28   C34   S    
C13   C14   A    
C31   H13   S    
C36   H26   S    
C24   N3    S    
C24   H1    S    
C29   H14   S    
C10   H30   S    
C13   C19   A    
C28   C32   S    
C22   O8    A    
C5    H29   S    
C6    C11   A    
C18   C19   A    
C25   C26   S    
C23   C31   S    
C20   H2    S    
C11   C16   S    
C31   C32   S    
C17   C18   A    
C25   O2    S    
H20   N4    S    
C22   C27   S    
C21   N2    A    
C32   H11   S    
O4    Zn1   S    
O3    Zn2   S    
C2    H27   S    
C29   H15   S    
C2    C36   A    
C15   C17   A    
C15   N4    S    
C16   O6    A    
C32   H10   S    
C24   C28   S    
C3    C5    A    
O6    Zn1   S    
O9    Zn2   S    
C30   O2    S    
O5    Zn2   S    
C6    C7    A    
C12   C24   S    
C1    O3    A    
C2    C3    A    
O8    Zn1   S    
C29   O10   S    
O7    Zn2   S    
C12   O10   S    
C17   H5    S    
C13   H3    S    
H19   N4    S    
C10   C11   A    
C14   H4    S    
C21   H6    S    
C20   C21   A    
N1    Zn2   S    
C14   C15   A    
O1    Zn1   S    
C29   H16   S    
