data_mof_unit_40197.cif
_audit_creation_date              2012-12-11T14:33:52-0500
_audit_creation_method            fapswitch 2.2
_symmetry_space_group_name_H-M    P1
_symmetry_Int_Tables_number       1
_space_group_crystal_system       triclinic
_cell_length_a                    14.111443
_cell_length_b                    14.181686
_cell_length_c                    27.217113
_cell_angle_alpha                 89.771358
_cell_angle_beta                  90.272911
_cell_angle_gamma                 119.701507
_cell_volume                      4731.12826033

loop_
_atom_site_label
_atom_site_type_symbol
_atom_type_description
_atom_site_fract_x
_atom_site_fract_y
_atom_site_fract_z
_atom_type_partial_charge
C1    C     C_R   0.260657 0.767462 0.574133 0.519986
C2    C     C_R   0.214650 0.450721 0.569220 0.526781
C3    C     C_R   0.551253 0.764119 0.568934 0.528992
C4    C     C_3   0.682380 0.740613 0.790017 0.248346
C5    C     C_3   0.249870 0.946874 0.783688 0.252677
C6    C     C_3   0.031611 0.267904 0.777203 0.261794
C7    C     C_3   0.641168 0.715953 0.735616 0.614298
C8    C     C_3   0.291538 0.911425 0.738522 0.633802
C9    C     C_3   0.062078 0.328069 0.726945 0.616293
C10   C     C_1   0.697570 0.856215 0.862523 0.055587
C11   C     C_1   0.117680 0.873933 0.853965 0.094977
C12   C     C_1   0.115625 0.238150 0.853436 0.073225
C13   C     C_1   0.619878 0.804948 0.659917 0.176443
C14   C     C_1   0.226634 0.779650 0.668981 0.226365
C15   C     C_1   0.194585 0.384430 0.659706 0.185280
C16   C     C_1   0.595526 0.791008 0.617217 0.129840
C17   C     C_1   0.243348 0.772614 0.625965 0.115967
C18   C     C_1   0.202593 0.410460 0.617566 0.130727
C19   C     C_R   0.067143 0.154782 0.096475 0.572883
C20   C     C_R   0.773661 0.881237 0.085957 0.578761
C21   C     C_R   0.116369 0.893750 0.087894 0.591298
C22   C     C_R   0.070230 0.162343 0.943477 0.530372
C23   C     C_R   0.779665 0.886911 0.951413 0.551766
C24   C     C_R   0.091468 0.928523 0.943281 0.521137
C25   C     C_R   0.593167 0.878839 0.355154 0.356946
C26   C     C_R   0.098120 0.731659 0.363408 0.362691
C27   C     C_R   0.269926 0.370873 0.363040 0.362481
C28   C     C_R   0.609571 0.887193 0.304410 0.028612
C29   C     C_R   0.082778 0.743436 0.313572 0.025103
C30   C     C_R   0.246997 0.317460 0.318070 0.027303
C31   C     C_R   0.642337 0.904966 0.201890 0.032546
C32   C     C_R   0.064031 0.755978 0.210968 0.012482
C33   C     C_R   0.207775 0.239683 0.220831 0.015024
C34   C     C_R   0.231795 0.788850 0.432494 0.565905
C35   C     C_R   0.211792 0.443679 0.432501 0.558500
C36   C     C_R   0.552991 0.766008 0.430943 0.558473
C37   C     C_R   0.613773 0.974797 0.226712 0.024001
C38   C     C_R   0.984748 0.665003 0.237477 -0.027123
C39   C     C_R   0.314161 0.286732 0.241175 -0.026713
C40   C     C_R   0.596307 0.964198 0.277335 -0.078884
C41   C     C_R   0.995588 0.659278 0.288155 -0.115454
C42   C     C_R   0.332401 0.325084 0.289240 -0.117449
C43   C     C_R   0.675381 0.920789 0.152164 0.349562
C44   C     C_R   0.053719 0.769272 0.160214 0.347873
C45   C     C_R   0.185853 0.204385 0.171601 0.352270
C46   C     C_R   0.702418 0.849180 0.129666 -0.025534
C47   C     C_R   0.138171 0.856615 0.134943 -0.029750
C48   C     C_R   0.086749 0.182210 0.149391 -0.039455
C49   C     C_R   0.648578 0.741637 0.359380 -0.066010
C50   C     C_R   0.247703 0.917327 0.366057 -0.070090
C51   C     C_R   0.075986 0.295253 0.378531 -0.079623
C52   C     C_R   0.648203 0.736324 0.307457 -0.073928
C53   C     C_R   0.245601 0.925040 0.314299 -0.076542
C54   C     C_R   0.051542 0.252291 0.330224 -0.076911
C55   C     C_R   0.633687 0.813973 0.280169 -0.026858
C56   C     C_R   0.160982 0.836354 0.288137 -0.028356
C57   C     C_R   0.139317 0.265136 0.299827 -0.026885
C58   C     C_R   0.656926 0.654143 0.281653 -0.000492
C59   C     C_R   0.327220 0.014160 0.287408 -0.009237
C60   C     C_R   0.944926 0.203398 0.309758 0.004604
C61   C     C_R   0.658661 0.654843 0.230493 0.361245
C62   C     C_R   0.325232 0.012158 0.236293 0.350827
C63   C     C_R   0.929865 0.178516 0.259984 0.360330
C64   C     C_R   0.657003 0.739271 0.203628 -0.014654
C65   C     C_R   0.240842 0.925183 0.210426 -0.009959
C66   C     C_R   0.017306 0.196006 0.229481 -0.009775
C67   C     C_3   0.547601 0.828360 0.738574 0.733376
C68   C     C_3   0.181625 0.712034 0.758025 0.726647
C69   C     C_3   0.264522 0.435348 0.745833 0.729217
C70   C     C_R   0.644507 0.819488 0.228608 -0.060957
C71   C     C_R   0.154847 0.839577 0.236539 -0.062833
C72   C     C_R   0.120869 0.230959 0.250336 -0.058893
C73   C     C_R   0.671929 0.748478 0.152537 -0.064839
C74   C     C_R   0.237906 0.923403 0.158911 -0.055720
C75   C     C_R   0.004858 0.184953 0.178210 -0.089797
C76   C     C_R   0.606707 0.801788 0.382550 0.001140
C77   C     C_R   0.187507 0.814849 0.388457 0.000920
C78   C     C_R   0.185158 0.366815 0.391549 0.004027
C79   C     C_3   0.751095 0.923261 0.724239 0.241824
C80   C     C_3   0.088844 0.803059 0.714426 0.200868
C81   C     C_3   0.184579 0.242464 0.715650 0.235007
C82   C     C_3   0.762741 0.944603 0.781465 0.337619
C83   C     C_3   0.049021 0.814510 0.767216 0.323317
C84   C     C_3   0.174814 0.209566 0.771641 0.335863
C85   C     C_1   0.728975 0.870137 0.904362 0.072008
C86   C     C_1   0.103663 0.898548 0.894496 0.075112
C87   C     C_1   0.096578 0.203606 0.894670 0.070262
C88   C     C_3   0.640525 0.817884 0.713217 -0.103845
C89   C     C_3   0.198358 0.800229 0.718872 -0.064341
C90   C     C_3   0.177240 0.348507 0.710839 -0.091956
C91   C     C_3   0.558081 0.825857 0.796118 0.231283
C92   C     C_3   0.164876 0.746936 0.810711 0.200211
C93   C     C_3   0.230698 0.401844 0.800869 0.203976
C94   C     C_3   0.673590 0.841135 0.809308 -0.201566
C95   C     C_3   0.144487 0.845964 0.805473 -0.175102
C96   C     C_3   0.137728 0.279335 0.802501 -0.188069
Cr1   Cr    Cr6+3 0.164410 0.584450 0.499910 1.167639
Cr2   Cr    Cr6+3 0.415550 0.579960 0.499910 1.157781
Cr3   Cr    Cr6+3 0.420040 0.835590 0.499910 1.161462
Cr4   Cr    Cr6+3 0.155170 0.075460 0.019960 1.137275
Cr5   Cr    Cr6+3 0.924540 0.079710 0.019960 1.110173
Cr6   Cr    Cr6+3 0.920290 0.844830 0.019960 1.128755
H1    H     H_    0.575860 0.019281 0.295873 0.190317
H2    H     H_    0.936041 0.587541 0.307725 0.195685
H3    H     H_    0.415148 0.365256 0.303494 0.196774
O1    O     O_R   0.137150 0.468200 0.553200 -0.473776
O2    O     O_R   0.531800 0.668950 0.553200 -0.472461
O3    O     O_R   0.331050 0.862850 0.553200 -0.459825
O4    O     O_R   0.179100 0.982980 0.967000 -0.494558
O5    O     O_R   0.017020 0.196120 0.967000 -0.469255
O6    O     O_R   0.803880 0.820900 0.967000 -0.499975
O7    O     O_R   0.173970 0.688730 0.549930 -0.473534
O8    O     O_R   0.311270 0.485240 0.549930 -0.490766
O9    O     O_R   0.514760 0.826030 0.549930 -0.496931
O10   O     O_R   0.140110 0.470540 0.446010 -0.484601
O11   O     O_R   0.529460 0.669570 0.446010 -0.477447
O12   O     O_R   0.330430 0.859890 0.446010 -0.474495
O13   O     O_R   0.176710 0.690910 0.450560 -0.422634
O14   O     O_R   0.309090 0.485800 0.450560 -0.426916
O15   O     O_R   0.514200 0.823290 0.450560 -0.424628
O16   O     O_3   0.333333 0.666667 0.499990 -0.366207
O17   O     O_R   0.176750 0.985260 0.074180 -0.493390
O18   O     O_R   0.014740 0.191490 0.074180 -0.493531
O19   O     O_R   0.808510 0.823250 0.074180 -0.503286
O20   O     O_R   0.146100 0.172630 0.068980 -0.394832
O21   O     O_R   0.827370 0.973470 0.068980 -0.466049
O22   O     O_R   0.026530 0.853900 0.068980 -0.425547
O23   O     O_3   1.000000 1.000000 0.020040 -0.348175
O24   O     O_R   0.148270 0.170520 0.969620 -0.483625
O25   O     O_R   0.829480 0.977750 0.969620 -0.514909
O26   O     O_R   0.022250 0.851730 0.969620 -0.469572
F1    F     F_    0.544153 0.907373 0.816764 -0.565874
F2    F     F_    0.076173 0.660176 0.832983 -0.587591
F3    F     F_    0.320913 0.416187 0.827529 -0.587187
F4    F     F_    0.447747 0.746356 0.722060 -0.463844
F5    F     F_    0.269993 0.696336 0.758420 -0.470176
F6    F     F_    0.277044 0.535884 0.735221 -0.450801
C97   C     C_1   0.472784 0.725103 0.818152 0.410159
N1    N     N_1   0.408148 0.646562 0.836986 -0.143832
C98   C     C_1   0.257343 0.773511 0.844392 0.361981
N2    N     N_1   0.328202 0.794741 0.871682 -0.187792
C99   C     C_1   0.194456 0.471215 0.825203 0.380942
N3    N     N_1   0.165666 0.524337 0.845156 -0.117004
F7    F     F_    0.790568 0.767754 0.791412 -0.565658
F8    F     F_    0.222245 0.021605 0.767200 -0.549402
F9    F     F_    0.961279 0.160191 0.767731 -0.537727
F10   F     F_    0.681734 0.004209 0.125165 -0.609133
F11   F     F_    0.960274 0.701744 0.135681 -0.596244
F12   F     F_    0.262008 0.195947 0.144564 -0.593449
F13   F     F_    0.559813 0.943222 0.377299 -0.602556
F14   F     F_    0.029895 0.636629 0.386494 -0.599194
F15   F     F_    0.375950 0.433001 0.377155 -0.611794
C100  C     C_1   0.609484 0.063427 0.202437 0.384939
N4    N     N_1   0.607735 0.135362 0.183102 -0.083979
C101  C     C_1   0.895455 0.572115 0.213867 0.339297
N5    N     N_1   0.824241 0.497283 0.195096 -0.106901
C102  C     C_1   0.409324 0.309791 0.212529 0.375768
N6    N     N_1   0.485875 0.329024 0.189715 -0.065680
C103  C     C_1   0.655687 0.656069 0.123245 0.367989
N7    N     N_1   0.642544 0.582540 0.099834 -0.152440
C104  C     C_1   0.335710 0.988826 0.130165 0.363264
N8    N     N_1   0.413288 0.040544 0.107036 -0.150628
C105  C     C_1   0.917343 0.194929 0.155004 0.359813
N9    N     N_1   0.849542 0.206119 0.136524 -0.112596
F16   F     F_    0.667517 0.574643 0.207514 -0.615421
F17   F     F_    0.403890 0.099442 0.212012 -0.623889
F18   F     F_    0.827837 0.136625 0.241422 -0.661581
C106  C     C_1   0.654953 0.561815 0.305644 0.284723
N10   N     N_1   0.653223 0.487557 0.324386 -0.193634
C107  C     C_1   0.420400 0.105661 0.309973 0.270364
N11   N     N_1   0.495420 0.179202 0.327470 -0.186226
C108  C     C_1   0.849196 0.186797 0.336386 0.284130
N12   N     N_1   0.771982 0.173300 0.357107 -0.166761
F19   F     F_    0.555842 0.925977 0.724095 -0.431012
F20   F     F_    0.091370 0.614292 0.745369 -0.430438
F21   F     F_    0.364688 0.442713 0.737458 -0.427096
C109  C     C_1   0.699209 0.694012 0.389513 0.258182
N13   N     N_1   0.739986 0.656774 0.413763 -0.185026
C110  C     C_1   0.304509 0.012352 0.397137 0.264839
N14   N     N_1   0.349028 0.087728 0.422241 -0.188319
C111  C     C_1   0.993105 0.264047 0.416156 0.247033
N15   N     N_1   0.927963 0.239413 0.446607 -0.188891
C112  C     C_1   0.838634 0.907620 0.704226 0.528405
N16   N     N_1   0.902586 0.889525 0.687264 -0.115964
C113  C     C_1   0.106245 0.892005 0.680611 0.461575
N17   N     N_1   0.122980 0.960635 0.652995 -0.153055
C114  C     C_1   0.099426 0.158734 0.684150 0.486871
N18   N     N_1   0.033513 0.098650 0.657422 -0.166907
F22   F     F_    0.756261 0.011102 0.698940 -0.532192
F23   F     F_    0.010467 0.708406 0.691672 -0.560956
F24   F     F_    0.282917 0.259467 0.696283 -0.541219
C115  C     C_1   0.750915 0.040012 0.793720 0.535815
N19   N     N_1   0.739641 0.113302 0.803207 -0.092531
C116  C     C_1   0.950257 0.711863 0.781146 0.579654
N20   N     N_1   0.873819 0.630785 0.791810 -0.037431
C117  C     C_1   0.280420 0.225269 0.790570 0.546013
N21   N     N_1   0.363254 0.238632 0.805316 -0.091718
F25   F     F_    0.865631 0.968032 0.797753 -0.490518
F26   F     F_    0.018494 0.893308 0.767382 -0.482126
F27   F     F_    0.099059 0.100694 0.777597 -0.472117
F28   F     F_    0.536846 0.627479 0.733218 -0.484043
F29   F     F_    0.380056 0.900613 0.751829 -0.482106
F30   F     F_    0.064011 0.426397 0.729967 -0.490858
F31   F     F_    0.706947 0.688200 0.708651 -0.511611
F32   F     F_    0.327634 0.991115 0.702370 -0.490832
F33   F     F_    0.982842 0.267055 0.692192 -0.493456
C118  C     C_1   0.625534 0.642231 0.821051 0.385327
N22   N     N_1   0.581641 0.565222 0.845298 -0.128479
C119  C     C_1   0.338279 0.004444 0.820212 0.377124
N23   N     N_1   0.407382 0.049568 0.848696 -0.155520
C120  C     C_1   0.970699 0.305040 0.808317 0.363609
N24   N     N_1   0.923299 0.334335 0.832645 -0.148784

loop_
_geom_bond_atom_site_label_1
_geom_bond_atom_site_label_2
_ccdc_geom_bond_type
C34   O13   A    
Cr2   O16   S    
C43   C46   A    
C10   C85   T    
C27   F15   S    
C82   C94   S    
C3    C16   S    
C2    C18   S    
C33   C45   A    
C15   C18   T    
C35   O14   A    
C105  N9    T    
C48   C75   A    
C27   C78   A    
C6    C9    S    
C104  N8    T    
C53   C59   A    
Cr2   O14   S    
C54   C60   A    
C111  N15   T    
C84   F27   S    
C25   C28   A    
Cr3   O3    S    
C19   O18   A    
C67   C88   S    
C33   C39   A    
C31   C43   A    
C60   C63   A    
C69   C93   S    
C26   F14   S    
C61   F16   S    
C82   F25   S    
C37   C40   A    
Cr6   O23   S    
C9    F33   S    
C80   C83   S    
C1    O7    A    
C6    F9    S    
C2    O8    A    
C45   C48   A    
C107  N11   T    
C28   C40   A    
C11   C86   T    
C30   C57   A    
Cr1   O13   S    
Cr5   O23   S    
C75   C105  S    
C84   C96   S    
C80   C89   S    
C39   C42   A    
C81   F24   S    
Cr1   O16   S    
C36   C76   S    
C33   C72   A    
C44   F11   S    
Cr3   O15   S    
C28   C55   A    
C31   C70   A    
C66   C72   A    
C7    C88   S    
C22   O5    A    
Cr5   O21   S    
C80   C113  S    
C9    F30   S    
C35   O10   A    
C69   F21   S    
C64   C70   A    
C21   O22   A    
C59   C107  S    
C58   C106  S    
Cr4   O17   S    
C12   C87   T    
C44   C47   A    
Cr3   O16   S    
C82   C115  S    
Cr5   O25   S    
C56   C71   A    
C92   F2    S    
C63   F18   S    
C116  N20   T    
C63   C66   A    
Cr4   O4    S    
C3    O9    A    
Cr4   O23   S    
C39   C102  S    
C27   C30   A    
C102  N6    T    
C14   C17   T    
Cr6   O6    S    
C38   C101  S    
Cr3   O9    S    
C4    C7    S    
Cr6   O19   S    
C79   C88   S    
C5    C95   S    
C68   F20   S    
C119  N23   T    
C32   C71   A    
C49   C109  S    
C69   F6    S    
C26   C77   A    
C5    F8    S    
C118  N22   T    
C60   C108  S    
C37   C100  S    
C68   F5    S    
C98   N2    T    
C38   C41   A    
C93   F3    S    
Cr1   O7    S    
C19   C48   S    
Cr2   O8    S    
C91   F1    S    
C3    O2    A    
Cr5   O5    S    
C65   C71   A    
C19   O20   A    
C92   C95   S    
Cr2   O2    S    
C31   C37   A    
C23   O25   A    
C25   F13   S    
C61   C64   A    
C67   F4    S    
C112  N16   T    
C14   C89   S    
C20   O21   A    
C7    F31   S    
Cr3   O12   S    
C91   C97   S    
Cr2   O11   S    
C103  N7    T    
C64   C73   A    
C49   C52   A    
C83   C95   S    
C67   C91   S    
C68   C89   S    
C32   C44   A    
C49   C76   A    
Cr5   O18   S    
C22   C87   S    
Cr6   O26   S    
C52   C58   A    
C4    C94   S    
C81   C90   S    
C106  N10   T    
C62   F17   S    
C74   C104  S    
Cr6   O22   S    
C93   C96   S    
C32   C38   A    
C22   O24   A    
C79   F22   S    
C5    C8    S    
Cr1   O10   S    
Cr1   O1    S    
C83   F26   S    
C69   C90   S    
C92   C98   S    
C50   C77   A    
C81   C84   S    
C5    C119  S    
C108  N12   T    
C4    C118  S    
C21   O17   A    
C53   C56   A    
C11   C95   S    
C59   C62   A    
C62   C65   A    
C29   C41   A    
Cr4   O24   S    
C80   F23   S    
C58   C61   A    
C30   C42   A    
C24   O4    A    
C47   C74   A    
C117  N21   T    
C51   C111  S    
C34   O12   A    
C9    C90   S    
C4    F7    S    
C79   C82   S    
C52   C55   A    
C6    C120  S    
C29   C56   A    
C110  N14   T    
C23   O6    A    
C73   C103  S    
C35   C78   S    
C6    C96   S    
Cr4   O20   S    
C41   H2    S    
C51   C54   A    
C115  N19   T    
C25   C76   A    
C83   C116  S    
C8    F29   S    
C50   C110  S    
C51   C78   A    
C114  N18   T    
C34   C77   S    
C91   C94   S    
C24   O26   A    
C15   C90   S    
C113  N17   T    
C84   C117  S    
C66   C75   A    
C13   C88   S    
C68   C92   S    
C79   C112  S    
C45   F12   S    
C57   C72   A    
C8    F32   S    
C36   O15   A    
C42   H3    S    
C20   O19   A    
C55   C70   A    
C43   F10   S    
C97   N1    T    
C65   C74   A    
C1    O3    A    
C2    O1    A    
C120  N24   T    
C1    C17   S    
C26   C29   A    
C7    F28   S    
C109  N13   T    
C23   C85   S    
C13   C16   T    
C101  N5    T    
C10   C94   S    
C99   N3    T    
C12   C96   S    
C8    C89   S    
C67   F19   S    
C21   C47   S    
C100  N4    T    
C24   C86   S    
C81   C114  S    
C46   C73   A    
C20   C46   S    
C93   C99   S    
C50   C53   A    
C40   H1    S    
C54   C57   A    
C36   O11   A    
