data_mof_unit_11804.cif
_audit_creation_date              2012-12-10T16:40:38-0500
_audit_creation_method            fapswitch 2.2
_symmetry_space_group_name_H-M    P1
_symmetry_Int_Tables_number       1
_space_group_crystal_system       triclinic
_cell_length_a                    16.931828
_cell_length_b                    16.931548
_cell_length_c                    16.931784
_cell_angle_alpha                 67.596587
_cell_angle_beta                  67.59568
_cell_angle_gamma                 67.594823
_cell_volume                      3987.79832706

loop_
_atom_site_label
_atom_site_type_symbol
_atom_type_description
_atom_site_fract_x
_atom_site_fract_y
_atom_site_fract_z
_atom_type_partial_charge
C1    C     C_R   0.591413 0.026620 0.596771 -0.029098
C2    C     C_R   0.170153 0.432393 0.979699 0.795936
C3    C     C_R   0.185063 0.691600 0.039325 -0.102369
C4    C     C_R   0.215190 0.687330 0.951530 -0.117315
C5    C     C_R   0.261820 0.606065 0.932067 -0.093770
C6    C     C_R   0.286638 0.931308 0.549050 0.134719
C7    C     C_R   0.276722 0.845574 0.596548 -0.148819
C8    C     C_R   0.233571 0.826291 0.687584 -0.121585
C9    C     C_R   0.199462 0.892712 0.731077 -0.138481
C10   C     C_R   0.210470 0.977418 0.684303 -0.137173
C11   C     C_R   0.254903 0.996603 0.593838 -0.068968
C12   C     C_R   0.725063 0.000209 0.471046 0.154533
C13   C     C_R   0.565449 0.026361 0.829141 0.793707
C14   C     C_R   0.752684 0.912734 0.465269 -0.123223
C15   C     C_R   0.796851 0.894921 0.383000 -0.133847
C16   C     C_R   0.818722 0.963168 0.307402 -0.104272
C17   C     C_R   0.790323 0.050443 0.312759 -0.115350
C18   C     C_R   0.741298 0.069597 0.393841 -0.091248
C19   C     C_R   0.549039 0.286633 0.931360 0.134700
C20   C     C_R   0.596528 0.276575 0.845677 -0.148691
C21   C     C_R   0.687547 0.233394 0.826434 -0.121490
C22   C     C_R   0.731040 0.199417 0.892838 -0.138451
C23   C     C_R   0.684284 0.210573 0.977483 -0.137310
C24   C     C_R   0.432398 0.979686 0.170156 0.795880
C25   C     C_R   0.593830 0.255019 0.996631 -0.069139
C26   C     C_R   0.470969 0.725014 0.000416 0.154492
C27   C     C_R   0.465156 0.752642 0.912962 -0.123001
C28   C     C_R   0.382890 0.796888 0.895167 -0.133835
C29   C     C_R   0.307332 0.818810 0.963415 -0.104384
C30   C     C_R   0.312722 0.790405 0.050673 -0.115270
C31   C     C_R   0.393797 0.741308 0.069809 -0.091355
C32   C     C_R   0.931085 0.549090 0.286655 0.134555
C33   C     C_R   0.845415 0.596474 0.276514 -0.148839
C34   C     C_R   0.826139 0.687454 0.233170 -0.121405
C35   C     C_R   0.434592 0.170866 0.973445 0.794104
C36   C     C_R   0.892501 0.731011 0.199103 -0.138268
C37   C     C_R   0.977124 0.684372 0.210364 -0.137339
C38   C     C_R   0.996297 0.593962 0.254990 -0.069073
C39   C     C_R   0.000099 0.471083 0.725102 0.154602
C40   C     C_R   0.912610 0.465339 0.752794 -0.123245
C41   C     C_R   0.894787 0.383070 0.796898 -0.133865
C42   C     C_R   0.963050 0.307430 0.818622 -0.104179
C43   C     C_R   0.050337 0.312757 0.790163 -0.115409
C44   C     C_R   0.069490 0.393850 0.741219 -0.091349
C45   C     C_R   0.567507 0.829791 0.020544 0.795713
C46   C     C_R   0.973430 0.434596 0.170867 0.794130
C47   C     C_R   0.020510 0.567518 0.829800 0.795760
C48   C     C_R   0.170866 0.973440 0.434593 0.794139
C49   C     C_R   0.829796 0.020521 0.567515 0.795708
C50   C     C_R   0.540353 0.013198 0.550840 0.122771
C51   C     C_R   0.403203 0.972478 0.408904 -0.028941
C52   C     C_R   0.448953 0.985887 0.460122 0.121729
C53   C     C_R   0.013086 0.550860 0.540396 0.122788
C54   C     C_R   0.985751 0.460179 0.448972 0.121667
C55   C     C_R   0.550797 0.540316 0.013343 0.122790
C56   C     C_R   0.460076 0.448941 0.985997 0.121658
C57   C     C_R   0.543618 0.926622 0.558084 -0.186498
C58   C     C_R   0.442891 0.072489 0.455669 -0.184144
C59   C     C_R   0.086001 0.500225 0.489023 -0.158002
C60   C     C_R   0.912848 0.512329 0.498826 -0.159686
C61   C     C_R   0.500028 0.489082 0.086254 -0.158062
C62   C     C_R   0.026532 0.596788 0.591446 -0.029117
C63   C     C_R   0.512356 0.498662 0.913103 -0.159685
C64   C     C_R   0.498766 0.912973 0.512305 -0.159642
C65   C     C_R   0.489014 0.086121 0.500181 -0.158030
C66   C     C_R   0.455514 0.442972 0.072604 -0.184107
C67   C     C_R   0.558131 0.543507 0.926768 -0.186649
C68   C     C_R   0.072356 0.455733 0.442888 -0.184281
C69   C     C_R   0.926507 0.558094 0.543689 -0.186458
C70   C     C_R   0.549484 0.042864 0.680548 -0.045969
C71   C     C_R   0.440830 0.981890 0.316949 -0.049330
C72   C     C_R   0.042810 0.680549 0.549506 -0.046004
C73   C     C_R   0.972342 0.408953 0.403231 -0.028913
C74   C     C_R   0.981785 0.316991 0.440856 -0.049320
C75   C     C_R   0.680523 0.549462 0.042967 -0.045932
C76   C     C_R   0.316918 0.440805 0.981979 -0.049331
C77   C     C_R   0.319758 0.955475 0.450784 -0.045035
C78   C     C_R   0.683079 0.018442 0.558757 -0.048951
C79   C     C_R   0.450770 0.319754 0.955524 -0.044983
C80   C     C_R   0.558703 0.683041 0.018596 -0.048961
C81   C     C_R   0.955344 0.450819 0.319781 -0.044947
C82   C     C_R   0.018358 0.558781 0.683110 -0.048976
C83   C     C_R   0.601749 0.037241 0.732093 -0.105581
C84   C     C_R   0.596724 0.591375 0.026772 -0.029097
C85   C     C_R   0.394341 0.974228 0.266623 -0.109843
C86   C     C_R   0.037220 0.732093 0.601756 -0.105577
C87   C     C_R   0.974187 0.266639 0.394350 -0.109857
C88   C     C_R   0.732082 0.601740 0.037285 -0.105580
C89   C     C_R   0.266611 0.394329 0.974270 -0.109834
C90   C     C_R   0.267966 0.962162 0.398280 -0.105341
C91   C     C_R   0.733294 0.026063 0.605434 -0.109534
C92   C     C_R   0.398276 0.267966 0.962182 -0.105348
C93   C     C_R   0.605410 0.733278 0.026135 -0.109528
C94   C     C_R   0.962116 0.398291 0.267973 -0.105342
C95   C     C_R   0.408874 0.403187 0.972566 -0.028951
C96   C     C_R   0.026026 0.605445 0.733308 -0.109541
C97   C     C_R   0.691918 0.032909 0.692478 -0.265261
C98   C     C_R   0.307381 0.967174 0.307962 -0.264970
C99   C     C_R   0.032899 0.692479 0.691923 -0.265211
C100  C     C_R   0.967169 0.307964 0.307378 -0.265036
C101  C     C_R   0.692469 0.691914 0.032937 -0.265315
C102  C     C_R   0.307960 0.307379 0.967187 -0.265022
C103  C     C_R   0.451268 0.065661 0.713637 0.138168
C104  C     C_R   0.402226 0.151690 0.721734 -0.146524
C105  C     C_R   0.310487 0.170798 0.761355 -0.123342
C106  C     C_R   0.026359 0.829140 0.565450 0.793716
C107  C     C_R   0.267792 0.103955 0.793568 -0.140214
C108  C     C_R   0.316298 0.018786 0.784888 -0.137722
C109  C     C_R   0.407587 0.999629 0.744336 -0.069984
C110  C     C_R   0.528005 0.001227 0.274909 0.156485
C111  C     C_R   0.532622 0.089266 0.245610 -0.124512
C112  C     C_R   0.614754 0.107703 0.203106 -0.134771
C113  C     C_R   0.691608 0.039245 0.185058 -0.102388
C114  C     C_R   0.687337 0.951458 0.215064 -0.117287
C115  C     C_R   0.606084 0.931980 0.261729 -0.093661
C116  C     C_R   0.065615 0.713606 0.451292 0.138283
C117  C     C_R   0.979675 0.170161 0.432401 0.795879
C118  C     C_R   0.151668 0.721544 0.402242 -0.146668
C119  C     C_R   0.170799 0.761007 0.310493 -0.123455
C120  C     C_R   0.103961 0.793216 0.267794 -0.140269
C121  C     C_R   0.018769 0.784706 0.316309 -0.137868
C122  C     C_R   0.999585 0.744312 0.407611 -0.069911
C123  C     C_R   0.001069 0.274963 0.528056 0.156448
C124  C     C_R   0.089088 0.245666 0.532730 -0.124405
C125  C     C_R   0.107485 0.203077 0.614875 -0.134802
C126  C     C_R   0.039007 0.184944 0.691678 -0.102485
C127  C     C_R   0.951239 0.214952 0.687351 -0.117188
C128  C     C_R   0.829139 0.565448 0.026370 0.793701
C129  C     C_R   0.931798 0.261707 0.606093 -0.093654
C130  C     C_R   0.713627 0.451247 0.065780 0.138088
C131  C     C_R   0.721830 0.402234 0.151783 -0.146481
C132  C     C_R   0.761559 0.310514 0.170872 -0.123245
C133  C     C_R   0.793770 0.267810 0.104038 -0.140171
C134  C     C_R   0.784970 0.316283 0.018902 -0.137771
C135  C     C_R   0.744312 0.407550 0.999765 -0.070018
C136  C     C_R   0.274864 0.527977 0.001328 0.156565
C137  C     C_R   0.245434 0.532587 0.089379 -0.124517
C138  C     C_R   0.202948 0.614726 0.107811 -0.134816
Cu1   Cu    Cu3+1 0.995180 0.995180 0.424630 0.962072
Cu2   Cu    Cu3+1 0.004820 0.004820 0.575370 0.961879
Cu3   Cu    Cu3+1 0.995180 0.424630 0.995180 0.962101
Cu4   Cu    Cu3+1 0.004820 0.575370 0.004820 0.961884
Cu5   Cu    Cu3+1 0.424630 0.995180 0.995180 0.962124
Cu6   Cu    Cu3+1 0.575370 0.004820 0.004820 0.961859
H1    H     H_    0.485061 0.153202 0.495001 0.122274
H2    H     H_    0.494763 0.485201 0.153336 0.122257
H3    H     H_    0.845759 0.517115 0.503193 0.122614
H4    H     H_    0.153084 0.495051 0.485049 0.122283
H5    H     H_    0.730980 0.032065 0.730865 0.185201
H6    H     H_    0.268901 0.968403 0.268788 0.185640
H7    H     H_    0.032087 0.730860 0.730977 0.185219
H8    H     H_    0.968456 0.268772 0.268884 0.185625
H9    H     H_    0.730871 0.730990 0.032038 0.185199
H10   H     H_    0.268795 0.268906 0.968386 0.185629
H11   H     H_    0.435345 0.203105 0.699081 0.105757
H12   H     H_    0.503104 0.845884 0.517108 0.122605
H13   H     H_    0.272901 0.236844 0.768411 0.117064
H14   H     H_    0.197358 0.117198 0.826101 0.101690
H15   H     H_    0.282948 0.967464 0.810530 0.115978
H16   H     H_    0.444964 0.932948 0.739399 0.108883
H17   H     H_    0.472814 0.143293 0.255662 0.101889
H18   H     H_    0.618780 0.175111 0.183200 0.119493
H19   H     H_    0.754876 0.053960 0.149346 0.094812
H20   H     H_    0.746991 0.898531 0.202635 0.102619
H21   H     H_    0.603387 0.863728 0.284527 0.099433
H22   H     H_    0.203085 0.698861 0.435361 0.105818
H23   H     H_    0.869653 0.598629 0.581677 0.116117
H24   H     H_    0.236863 0.767923 0.272903 0.117079
H25   H     H_    0.117231 0.825595 0.197347 0.101710
H26   H     H_    0.967449 0.810341 0.282958 0.116031
H27   H     H_    0.932893 0.739462 0.445001 0.108888
H28   H     H_    0.143134 0.255759 0.472954 0.101876
H29   H     H_    0.174879 0.183155 0.618947 0.119462
H30   H     H_    0.053688 0.149163 0.754954 0.094717
H31   H     H_    0.898300 0.202430 0.746962 0.102542
H32   H     H_    0.863563 0.284486 0.603351 0.099382
H33   H     H_    0.699200 0.435368 0.203182 0.105737
H34   H     H_    0.129231 0.417054 0.403041 0.116591
H35   H     H_    0.768715 0.272954 0.236891 0.117050
H36   H     H_    0.826402 0.197398 0.117257 0.101693
H37   H     H_    0.810611 0.282927 0.967586 0.115993
H38   H     H_    0.739302 0.444908 0.933103 0.108904
H39   H     H_    0.255379 0.472770 0.143416 0.101853
H40   H     H_    0.182939 0.618748 0.175230 0.119556
H41   H     H_    0.149377 0.754878 0.054027 0.094795
H42   H     H_    0.202887 0.746997 0.898585 0.102629
H43   H     H_    0.284719 0.603374 0.863808 0.099419
H44   H     H_    0.299975 0.794782 0.562525 0.105953
H45   H     H_    0.598756 0.581403 0.869920 0.116114
H46   H     H_    0.224742 0.760627 0.723864 0.117944
H47   H     H_    0.163409 0.879476 0.800690 0.102288
H48   H     H_    0.183354 0.028461 0.718233 0.114690
H49   H     H_    0.261178 0.063053 0.557596 0.109323
H50   H     H_    0.740488 0.858559 0.524344 0.102239
H51   H     H_    0.815386 0.828018 0.378093 0.117952
H52   H     H_    0.856070 0.948820 0.244164 0.094314
H53   H     H_    0.806397 0.103133 0.254201 0.100683
H54   H     H_    0.720054 0.137414 0.397435 0.098394
H55   H     H_    0.562502 0.299724 0.794906 0.105884
H56   H     H_    0.416734 0.403225 0.129479 0.116602
H57   H     H_    0.723807 0.224434 0.760821 0.117905
H58   H     H_    0.800638 0.163354 0.879639 0.102267
H59   H     H_    0.718209 0.183542 0.028519 0.114777
H60   H     H_    0.557598 0.261402 0.063044 0.109391
H61   H     H_    0.524205 0.740407 0.858785 0.102257
H62   H     H_    0.377960 0.815444 0.828275 0.117916
H63   H     H_    0.244101 0.856215 0.949080 0.094254
H64   H     H_    0.254205 0.806558 0.103358 0.100677
H65   H     H_    0.397425 0.720074 0.137607 0.098346
H66   H     H_    0.794693 0.562383 0.299692 0.105905
H67   H     H_    0.403067 0.129375 0.416969 0.116569
H68   H     H_    0.760544 0.723626 0.224129 0.117966
H69   H     H_    0.879286 0.800563 0.162877 0.102310
H70   H     H_    0.028134 0.718340 0.183254 0.114664
H71   H     H_    0.062700 0.557809 0.261427 0.109414
H72   H     H_    0.858436 0.524436 0.740681 0.102225
H73   H     H_    0.827869 0.378189 0.815489 0.118001
H74   H     H_    0.948699 0.244187 0.855911 0.094302
H75   H     H_    0.103041 0.254166 0.806116 0.100727
H76   H     H_    0.137319 0.397420 0.719914 0.098409
H77   H     H_    0.581574 0.869760 0.598644 0.116106
H78   H     H_    0.517238 0.502936 0.846015 0.122632
O1    O     O_R   0.124540 0.978640 0.385460 -0.587729
O2    O     O_R   0.124540 0.385460 0.978640 -0.590134
O3    O     O_R   0.021360 0.875460 0.614540 -0.586904
O4    O     O_R   0.978640 0.124540 0.385460 -0.590144
O5    O     O_R   0.013780 0.867370 0.487190 -0.569492
O6    O     O_R   0.986220 0.132630 0.512810 -0.574696
O7    O     O_R   0.867370 0.487190 0.013780 -0.569425
O8    O     O_R   0.132630 0.512810 0.986220 -0.574730
O9    O     O_R   0.487190 0.013780 0.867370 -0.569445
O10   O     O_R   0.512810 0.986220 0.132630 -0.574738
O11   O     O_R   0.512810 0.132630 0.986220 -0.568325
O12   O     O_R   0.875460 0.021360 0.614540 -0.590138
O13   O     O_R   0.487190 0.867370 0.013780 -0.574357
O14   O     O_R   0.986220 0.512810 0.132630 -0.568296
O15   O     O_R   0.013780 0.487190 0.867370 -0.574420
O16   O     O_R   0.132630 0.986220 0.512810 -0.568363
O17   O     O_R   0.867370 0.013780 0.487190 -0.574412
O18   O     O_R   0.978640 0.385460 0.124540 -0.587743
O19   O     O_R   0.021360 0.614540 0.875460 -0.590131
O20   O     O_R   0.385460 0.124540 0.978640 -0.587720
O21   O     O_R   0.614540 0.875460 0.021360 -0.590162
O22   O     O_R   0.614540 0.021360 0.875460 -0.586931
O23   O     O_R   0.385460 0.978640 0.124540 -0.590120
O24   O     O_R   0.875460 0.614540 0.021360 -0.586921

loop_
_geom_bond_atom_site_label_1
_geom_bond_atom_site_label_2
_ccdc_geom_bond_type
C56   C95   S    
C71   C110  S    
C117  O6    A    
C128  O7    A    
C133  C134  A    
C89   C102  A    
C5    C136  A    
C28   H62   S    
C41   C42   A    
C94   C100  A    
C111  C112  A    
C111  H17   S    
C38   H71   S    
C49   O17   A    
C25   H60   S    
C53   C69   A    
C96   C99   A    
C127  C129  A    
C88   C101  A    
C76   C136  S    
C7    C8    A    
C108  H15   S    
C57   H77   S    
C58   H67   S    
C100  H8    S    
C32   C81   S    
C105  C107  A    
Cu2   O3    S    
C126  C127  A    
C116  C122  A    
Cu6   O11   S    
Cu1   O4    S    
C28   C29   A    
C37   C38   A    
Cu5   Cu6   S    
C87   C117  S    
C76   C95   A    
C98   H6    S    
C30   C31   A    
C36   H69   S    
C75   C84   A    
Cu4   O8    S    
C13   O22   A    
C113  H19   S    
Cu5   O13   S    
C15   C16   A    
Cu6   O21   S    
C55   C61   A    
C108  C109  A    
Cu1   O5    S    
C73   C74   A    
C4    H42   S    
C48   O16   A    
C118  C119  A    
C104  C105  A    
C85   C98   A    
C103  C104  A    
C47   O15   A    
C135  H38   S    
C61   C66   A    
C105  H13   S    
C19   C20   A    
C8    H46   S    
C16   C17   A    
Cu4   O24   S    
C44   H76   S    
C18   H54   S    
C47   C96   S    
C129  H32   S    
C17   H53   S    
C35   O11   A    
C60   H3    S    
C32   C38   A    
C74   C87   A    
C115  H21   S    
C49   O12   A    
C138  H40   S    
C1    C50   S    
C45   O21   A    
C126  H30   S    
C75   C130  S    
C92   C102  A    
C76   C89   A    
C15   H51   S    
C59   H4    S    
Cu4   O14   S    
C74   C123  S    
C14   H50   S    
C45   C93   S    
C26   C31   A    
C71   C85   A    
C21   C22   A    
C123  C129  A    
Cu2   O12   S    
C1    C78   A    
C63   H78   S    
C24   O23   A    
C86   C106  S    
C51   C71   A    
C49   C91   S    
C19   C25   A    
C3    H41   S    
C119  H24   S    
C73   C81   A    
C112  C113  A    
C114  C115  A    
C6    C7    A    
C22   C23   A    
C131  H33   S    
C117  O4    A    
Cu1   Cu2   S    
C63   C67   A    
C77   C90   A    
Cu5   O20   S    
Cu2   O6    S    
Cu2   O16   S    
C22   H58   S    
Cu1   O17   S    
C80   C84   A    
C21   H57   S    
C7    H44   S    
C123  C124  A    
C82   C96   A    
C113  C114  A    
C52   C64   A    
C93   C101  A    
C6    C11   A    
C47   O19   A    
C70   C103  S    
C8    C9    A    
C6    C77   S    
C54   C60   A    
Cu3   O2    S    
C24   O10   A    
C52   C58   A    
C99   H7    S    
C118  H22   S    
C10   H48   S    
C110  C111  A    
C12   C78   S    
C27   H61   S    
C46   O14   A    
C2    C89   S    
C61   H2    S    
C51   C77   A    
C20   H55   S    
C79   C95   A    
C29   C30   A    
C16   H52   S    
C59   C68   A    
C13   O9    A    
C54   C73   S    
C33   H66   S    
C58   C65   A    
C114  H20   S    
C31   H65   S    
C101  H9    S    
C107  C108  A    
C30   H64   S    
C40   H72   S    
C2    O2    A    
C17   C18   A    
C121  C122  A    
C56   C63   A    
C62   C72   A    
C3    C138  A    
C35   O20   A    
C91   C97   A    
C19   C79   S    
C86   C99   A    
C79   C92   A    
C39   C44   A    
C34   H68   S    
C116  C118  A    
C40   C41   A    
C130  C135  A    
C12   C14   A    
Cu3   O18   S    
C46   O18   A    
C69   H23   S    
C43   C44   A    
C26   C27   A    
C125  C126  A    
C42   C43   A    
C5    H43   S    
C134  H37   S    
C65   H1    S    
C3    C4    A    
C37   H70   S    
C39   C40   A    
C107  H14   S    
C106  O3    A    
C120  C121  A    
C57   C64   A    
C87   C100  A    
C9    C10   A    
Cu1   O1    S    
C102  H10   S    
C36   C37   A    
Cu3   O15   S    
C46   C94   S    
C53   C59   A    
C106  O5    A    
C50   C57   A    
Cu6   O10   S    
C43   H75   S    
C11   H49   S    
C39   C82   S    
C4    C5    A    
C42   H74   S    
C127  H31   S    
C41   H73   S    
C119  C120  A    
C67   H45   S    
C133  H36   S    
C134  C135  A    
C137  H39   S    
C48   O1    A    
C78   C91   A    
Cu4   O19   S    
C112  H18   S    
C137  C138  A    
C72   C116  S    
C1    C70   A    
C29   H63   S    
C12   C18   A    
C103  C109  A    
C128  O24   A    
C32   C33   A    
C130  C131  A    
C80   C93   A    
C51   C52   S    
C88   C128  S    
Cu3   Cu4   S    
C35   C92   S    
C81   C94   A    
C70   C83   A    
C55   C67   A    
C60   C69   A    
C56   C66   A    
Cu6   O22   S    
C68   H34   S    
C45   O13   A    
C33   C34   A    
C64   H12   S    
C132  C133  A    
C34   C36   A    
C124  H28   S    
C23   C25   A    
C104  H11   S    
C62   C82   A    
C125  H29   S    
C120  H25   S    
C50   C65   A    
C26   C80   S    
C10   C11   A    
C2    O8    A    
C132  H35   S    
C24   C85   S    
Cu5   O23   S    
C75   C88   A    
C54   C68   A    
C20   C21   A    
C53   C62   S    
C122  H27   S    
C83   C97   A    
C23   H59   S    
C27   C28   A    
C97   H5    S    
C14   C15   A    
C136  C137  A    
C48   C90   S    
C72   C86   A    
Cu5   O9    S    
C55   C84   S    
C9    H47   S    
C109  H16   S    
Cu3   O7    S    
C110  C115  A    
C90   C98   A    
C66   H56   S    
C121  H26   S    
C131  C132  A    
C13   C83   S    
C124  C125  A    
