data_mof_unit_41315.cif
_audit_creation_date              2012-12-10T19:48:01-0500
_audit_creation_method            fapswitch 2.2
_symmetry_space_group_name_H-M    P1
_symmetry_Int_Tables_number       1
_space_group_crystal_system       triclinic
_cell_length_a                    15.017678
_cell_length_b                    14.102509
_cell_length_c                    10.565225
_cell_angle_alpha                 91.158905
_cell_angle_beta                  90.004997
_cell_angle_gamma                 90.014568
_cell_volume                      2237.11887961

loop_
_atom_site_label
_atom_site_type_symbol
_atom_type_description
_atom_site_fract_x
_atom_site_fract_y
_atom_site_fract_z
_atom_type_partial_charge
C1    C     C_R   0.328072 0.499936 0.498824 0.926234
C2    C     C_R   0.539954 0.796828 0.596285 0.003210
C3    C     C_R   0.565942 0.205693 0.561073 0.020021
C4    C     C_R   0.460212 0.793808 0.403354 0.022343
C5    C     C_R   0.500274 0.053447 0.499501 0.148602
C6    C     C_R   0.500507 0.946620 0.499291 0.144214
C7    C     C_R   0.514759 0.498814 0.260474 0.870443
C8    C     C_R   0.486391 0.501091 0.740022 0.890123
C9    C     C_R   0.570717 0.665615 0.114943 -0.213226
C10   C     C_R   0.431426 0.333506 0.885995 -0.209230
C11   C     C_R   0.465508 0.679006 0.900069 -0.231941
C12   C     C_R   0.673099 0.500069 0.496510 0.886888
C13   C     C_R   0.534431 0.320287 0.102826 -0.201394
C14   C     C_R   0.553661 0.755764 0.065509 0.202729
C15   C     C_R   0.446410 0.243427 0.937362 0.199194
C16   C     C_R   0.494848 0.762656 0.962200 0.181767
C17   C     C_R   0.502368 0.236458 0.043940 0.190106
C18   C     C_R   0.489423 0.588724 0.944495 0.043463
C19   C     C_R   0.512469 0.410546 0.056470 0.032409
C20   C     C_R   0.531197 0.583290 0.061520 0.037231
C21   C     C_R   0.471128 0.415868 0.939131 0.029143
C22   C     C_R   0.471890 0.503370 0.876574 -0.200080
C23   C     C_R   0.050276 0.504425 0.464020 0.081550
C24   C     C_R   0.530236 0.496004 0.124147 -0.204359
C25   C     C_R   0.099761 0.445494 0.383238 -0.254464
C26   C     C_R   0.910701 0.416338 0.471968 -0.247428
C27   C     C_R   0.907916 0.586911 0.451991 -0.254109
C28   C     C_R   0.091304 0.561288 0.556669 -0.248922
C29   C     C_R   0.191801 0.443749 0.393494 0.162086
C30   C     C_R   0.818680 0.414055 0.481927 0.180425
C31   C     C_R   0.816159 0.587644 0.465329 0.173130
C32   C     C_R   0.182902 0.558484 0.571129 0.166881
C33   C     C_R   0.232982 0.499964 0.488629 -0.098193
C34   C     C_R   0.954606 0.502255 0.458612 0.079681
C35   C     C_R   0.770154 0.500581 0.482335 -0.139754
C36   C     C_3   0.596007 0.133089 0.178813 -0.818151
C37   C     C_3   0.384908 0.865095 0.854140 -0.812336
C38   C     C_3   0.345665 0.164699 0.779190 -0.800658
C39   C     C_3   0.661583 0.834502 0.213751 -0.812964
C40   C     C_3   0.277790 0.435640 0.200649 -0.751635
C41   C     C_3   0.758964 0.276608 0.373772 -0.780827
C42   C     C_3   0.770864 0.728469 0.580479 -0.758556
C43   C     C_3   0.242130 0.557998 0.782916 -0.813834
C44   C     C_R   0.432295 0.104376 0.438678 -0.285840
C45   C     C_R   0.540715 0.896256 0.598046 -0.289714
C46   C     C_R   0.567943 0.106343 0.560806 -0.296648
C47   C     C_R   0.460310 0.893172 0.400600 -0.282927
C48   C     C_R   0.433936 0.203805 0.439047 -0.012458
H1    H     H_    0.613284 0.658832 0.196808 0.173513
H2    H     H_    0.571274 0.932849 0.677731 0.135793
H3    H     H_    0.623040 0.071837 0.606951 0.134625
H4    H     H_    0.430291 0.927248 0.320360 0.134250
H5    H     H_    0.381940 0.242209 0.391210 0.154409
H6    H     H_    0.570887 0.758960 0.672648 0.142642
H7    H     H_    0.617717 0.245571 0.609348 0.152497
H8    H     H_    0.429069 0.753589 0.327168 0.140469
H9    H     H_    0.467700 0.102211 0.108930 0.229457
H10   H     H_    0.607873 0.056475 0.193059 0.245820
H11   H     H_    0.580618 0.166557 0.272024 0.255832
H12   H     H_    0.389331 0.340355 0.803737 0.168820
H13   H     H_    0.657550 0.164395 0.138939 0.247854
H14   H     H_    0.519337 0.899334 0.895675 0.224767
H15   H     H_    0.367007 0.941330 0.852599 0.246298
H16   H     H_    0.330910 0.826688 0.903542 0.247668
H17   H     H_    0.390688 0.838366 0.755037 0.251013
H18   H     H_    0.453134 0.102184 0.873142 0.235934
H19   H     H_    0.320238 0.092759 0.754603 0.236960
H20   H     H_    0.377546 0.194178 0.693951 0.258002
H21   H     H_    0.288202 0.209369 0.809117 0.241872
H22   H     H_    0.547034 0.895970 0.134620 0.233505
H23   H     H_    0.422364 0.684337 0.818748 0.191774
H24   H     H_    0.688493 0.906464 0.234319 0.237805
H25   H     H_    0.716828 0.789773 0.176197 0.240608
H26   H     H_    0.635981 0.805211 0.303392 0.259151
H27   H     H_    0.210954 0.323768 0.281046 0.215563
H28   H     H_    0.222551 0.460456 0.139637 0.226871
H29   H     H_    0.320950 0.386998 0.144005 0.243606
H30   H     H_    0.318453 0.497468 0.232263 0.242600
H31   H     H_    0.808086 0.280514 0.556388 0.212823
H32   H     H_    0.822517 0.259552 0.324441 0.226135
H33   H     H_    0.717308 0.321834 0.312511 0.245556
H34   H     H_    0.577635 0.315504 0.184022 0.174293
H35   H     H_    0.722704 0.209442 0.390423 0.233965
H36   H     H_    0.792956 0.718189 0.387834 0.215338
H37   H     H_    0.839919 0.746898 0.609821 0.220330
H38   H     H_    0.738883 0.685696 0.655083 0.249628
H39   H     H_    0.732545 0.795162 0.570211 0.229894
H40   H     H_    0.191916 0.675052 0.692360 0.223559
H41   H     H_    0.178855 0.532312 0.824712 0.240054
H42   H     H_    0.276656 0.603614 0.854291 0.237865
H43   H     H_    0.285603 0.496389 0.759737 0.226749
H44   H     H_    0.066817 0.402004 0.311552 0.141390
H45   H     H_    0.948217 0.350829 0.477202 0.141581
H46   H     H_    0.943330 0.653244 0.440657 0.143871
H47   H     H_    0.051691 0.604743 0.621083 0.142871
H48   H     H_    0.377405 0.068302 0.392215 0.136458
N1    N     N_R   0.500000 0.252470 0.500000 -0.099526
N2    N     N_2   0.224031 0.612091 0.670844 -0.296314
N3    N     N_R   0.500000 0.747530 0.500000 -0.094057
N4    N     N_2   0.522162 0.144827 0.092556 -0.315241
N5    N     N_2   0.468530 0.854174 0.920409 -0.320862
N6    N     N_2   0.409782 0.158719 0.881012 -0.314763
N7    N     N_2   0.590812 0.840383 0.121088 -0.311357
N8    N     N_2   0.242567 0.385899 0.308141 -0.302437
N9    N     N_2   0.776362 0.324382 0.493715 -0.286145
N10   N     N_2   0.771471 0.676527 0.460969 -0.281191
O1    O     O_R   0.369060 0.579480 0.500010 -0.607862
O2    O     O_R   0.630940 0.420520 0.499990 -0.598982
O3    O     O_R   0.630940 0.579480 0.499990 -0.593388
O4    O     O_R   0.369060 0.420520 0.500010 -0.620312
O5    O     O_R   0.499990 0.579480 0.316780 -0.627939
O6    O     O_R   0.500010 0.420520 0.683220 -0.617467
O7    O     O_R   0.500010 0.579480 0.683220 -0.623826
O8    O     O_R   0.499990 0.420520 0.316780 -0.613199
Zn1   Zn    Zn3+2 0.500000 0.606140 0.500000 0.941947
Zn2   Zn    Zn3+2 0.500000 0.393860 0.500000 0.938359

loop_
_geom_bond_atom_site_label_1
_geom_bond_atom_site_label_2
_ccdc_geom_bond_type
C11   C18   A    
C6    C45   A    
H18   N6    S    
C43   N2    S    
C36   H11   S    
C41   H32   S    
C1    C33   S    
C48   N1    A    
C43   H41   S    
C41   N9    S    
C30   C35   A    
C28   H47   S    
C7    O8    A    
C19   C21   A    
C36   H10   S    
C10   C15   A    
C8    O6    A    
N3    Zn1   S    
C5    C6    S    
C11   H23   S    
C7    C24   S    
C41   H35   S    
C29   C33   A    
H31   N9    S    
C39   H26   S    
C3    H7    S    
C26   C34   A    
C20   C24   A    
C7    O5    A    
C37   H17   S    
C8    C22   S    
C39   H24   S    
C42   H38   S    
H14   N5    S    
C26   H45   S    
C39   H25   S    
C38   H21   S    
C10   C21   A    
C21   C22   A    
C4    H8    S    
C12   O3    A    
C37   H15   S    
C27   C34   A    
C25   C29   A    
C48   H5    S    
C43   H42   S    
C6    C47   A    
C13   C19   A    
C27   C31   A    
C28   C32   A    
C9    H1    S    
C2    H6    S    
C12   O2    A    
H22   N7    S    
H9    N4    S    
C46   H3    S    
C43   H43   S    
C40   H28   S    
C29   N8    S    
N1    Zn2   S    
C10   H12   S    
C9    C14   A    
C44   H48   S    
C1    O4    A    
C40   N8    S    
C11   C16   A    
C3    N1    A    
C9    C20   A    
H36   N10   S    
C23   C34   S    
C41   H33   S    
C36   N4    S    
C42   H37   S    
C23   C28   A    
C12   C35   S    
C42   N10   S    
O1    Zn1   S    
C8    O7    A    
C1    O1    A    
C40   H30   S    
C5    C44   A    
C38   H20   S    
C2    N3    A    
C26   C30   A    
C30   N9    S    
H27   N8    S    
C31   N10   S    
C14   C16   A    
C36   H13   S    
O4    Zn2   S    
O6    Zn2   S    
C37   H16   S    
C15   C17   A    
C25   H44   S    
C18   C22   A    
O8    Zn2   S    
C39   N7    S    
C47   H4    S    
C5    C46   A    
C3    C46   A    
C13   C17   A    
C32   C33   A    
O2    Zn2   S    
C19   C24   A    
C38   N6    S    
C37   N5    S    
C14   N7    S    
C45   H2    S    
C13   H34   S    
C31   C35   A    
C32   N2    S    
C18   C20   A    
C23   C25   A    
C15   N6    S    
C17   N4    S    
C2    C45   A    
O3    Zn1   S    
C16   N5    S    
C38   H19   S    
C4    N3    A    
C40   H29   S    
C27   H46   S    
O5    Zn1   S    
C42   H39   S    
H40   N2    S    
C44   C48   A    
O7    Zn1   S    
C4    C47   A    
