data_mof_unit_37573.cif
_audit_creation_date              2012-12-11T19:58:30-0500
_audit_creation_method            fapswitch 2.2
_symmetry_space_group_name_H-M    P1
_symmetry_Int_Tables_number       1
_space_group_crystal_system       triclinic
_cell_length_a                    8.342205
_cell_length_b                    16.644993
_cell_length_c                    22.987685
_cell_angle_alpha                 107.853713
_cell_angle_beta                  88.616074
_cell_angle_gamma                 84.395487
_cell_volume                      3018.80109189

loop_
_atom_site_label
_atom_site_type_symbol
_atom_type_description
_atom_site_fract_x
_atom_site_fract_y
_atom_site_fract_z
_atom_type_partial_charge
Ba1   Ba    Ba6+2 0.335320 0.541410 0.478120 1.813975
Ba2   Ba    Ba6+2 0.854470 0.458670 0.521900 1.831717
Br1   Br    Br    0.497303 0.128640 0.270783 -0.412303
Br2   Br    Br    0.770381 0.895261 0.347207 -0.567859
Br3   Br    Br    0.493120 0.187248 0.757815 -0.447051
Br4   Br    Br    0.056638 0.108369 0.596626 -0.487127
Br5   Br    Br    0.083041 0.171255 0.743569 -0.353104
Br6   Br    Br    0.655610 0.753155 0.975004 -0.395692
Br7   Br    Br    0.170435 0.619009 0.732565 -0.625054
Br8   Br    Br    0.099570 0.078286 0.372845 -0.444905
Br9   Br    Br    0.103055 0.909110 0.622520 -0.374834
C1    C     C_3   0.920782 0.795621 0.308174 0.045707
C2    C     C_R   0.581076 0.575352 0.952885 -0.073607
C3    C     C_R   0.536455 0.569924 0.892177 0.651720
C4    C     C_3   0.521381 0.714064 0.341430 0.369333
C5    C     C_R   0.492592 0.424486 0.872591 0.626131
C6    C     C_R   0.520931 0.428452 0.934002 -0.050030
C7    C     C_R   0.572787 0.503479 0.973475 -0.081527
C8    C     C_R   0.632436 0.649971 0.994329 0.305218
C9    C     C_R   0.672964 0.651757 0.053486 -0.049900
C10   C     C_R   0.666061 0.580804 0.073977 -0.064158
C11   C     C_R   0.616421 0.506490 0.033868 -0.044312
C12   C     C_3   0.013399 0.767593 0.356651 0.212393
C13   C     C_R   0.505062 0.358587 0.956754 -0.048752
C14   C     C_R   0.555782 0.361847 0.014995 -0.079939
C15   C     C_R   0.611320 0.434938 0.054036 -0.023200
C16   C     C_3   0.486342 0.730429 0.281141 -0.235790
C17   C     C_R   0.658553 0.437935 0.113442 0.621619
C18   C     C_R   0.707183 0.583206 0.134027 0.599723
C19   C     C_2   0.318585 0.450145 0.765546 -0.067737
C20   C     C_3   0.283503 0.445298 0.700198 -0.073632
C21   C     C_1   0.480632 0.538611 0.698085 -0.044533
C22   C     C_2   0.544967 0.526675 0.748534 -0.106379
C23   C     C_3   0.041134 0.271131 0.310610 0.267001
C24   C     C_2   0.451078 0.488278 0.789434 0.247808
C25   C     C_R   0.881978 0.554025 0.241497 -0.053918
C26   C     C_R   0.914517 0.565108 0.302841 -0.018556
C27   C     C_R   0.691085 0.486559 0.313776 0.008349
C28   C     C_3   0.471713 0.733634 0.692126 0.068580
C29   C     C_R   0.652694 0.479388 0.252929 -0.095704
C30   C     C_R   0.744769 0.515685 0.216302 0.193804
C31   C     C_2   0.326321 0.525908 0.690264 0.122193
C32   C     C_2   0.399787 0.243739 0.490637 -0.394643
C33   C     C_R   0.797797 0.750657 0.512125 -0.303093
C34   C     C_3   0.054580 0.204050 0.246609 -0.232991
C35   C     C_2   0.267795 0.126603 0.423288 0.243641
C36   C     C_2   0.266498 0.211075 0.451223 -0.051087
C37   C     C_2   0.518109 0.189839 0.502752 -0.102016
C38   C     C_3   0.496114 0.096406 0.483241 -0.096060
C39   C     C_3   0.416269 0.067578 0.422653 0.260042
C40   C     C_3   0.494537 0.751587 0.760960 -0.285205
C41   C     C_2   0.626980 0.030967 0.490167 -0.094403
C42   C     C_2   0.585015 0.963952 0.506534 -0.026298
C43   C     C_R   0.841773 0.922111 0.547792 0.101214
C44   C     C_R   0.706625 0.896431 0.514856 -0.085992
C45   C     C_3   0.610461 0.203217 0.642500 0.208887
C46   C     C_R   0.949724 0.864606 0.564729 0.195061
C47   C     C_R   0.930817 0.777845 0.546150 -0.030986
C48   C     C_R   0.681562 0.808982 0.498350 0.012563
C49   C     C_3   0.591235 0.271626 0.364901 0.280720
C50   C     C_3   0.638471 0.176514 0.335098 0.155412
C51   C     C_3   0.925903 0.758584 0.683600 0.282999
C52   C     C_3   0.954985 0.826825 0.742813 -0.281698
C53   C     C_2   0.058468 0.358231 0.308428 0.757239
C54   C     C_2   0.933352 0.222657 0.203793 0.884196
C55   C     C_2   0.032099 0.815993 0.263522 0.986229
C56   C     C_3   0.662791 0.170365 0.695901 0.094602
C57   C     C_2   0.713168 0.076771 0.677130 0.959239
C58   C     C_2   0.424265 0.283408 0.923893 1.005792
C59   C     C_2   0.403178 0.336554 0.514383 0.919970
C60   C     C_2   0.414580 0.963930 0.524881 0.956486
C61   C     C_2   0.450681 0.816483 0.677233 0.949809
C62   C     C_3   0.197425 0.255379 0.662111 0.296133
C63   C     C_3   0.176899 0.166838 0.664405 0.497859
C64   C     C_R   0.810954 0.537243 0.339587 -0.239686
H1    H     H_    0.067251 0.822827 0.386942 0.140047
H2    H     H_    0.842065 0.788078 0.657245 -0.031163
H3    H     H_    0.023083 0.798234 0.773787 0.165380
H4    H     H_    0.837810 0.858994 0.766470 0.105627
H5    H     H_    0.024849 0.875080 0.733282 0.199157
H6    H     H_    0.927595 0.748319 0.386489 -0.037571
H7    H     H_    0.851276 0.743460 0.283076 0.057122
H8    H     H_    0.922874 0.270916 0.333146 -0.020237
H9    H     H_    0.038892 0.140910 0.251603 0.128701
H10   H     H_    0.177804 0.199460 0.225466 0.176606
H11   H     H_    0.497602 0.669261 0.243618 0.081367
H12   H     H_    0.596524 0.790073 0.775077 0.120642
H13   H     H_    0.540892 0.266453 0.662024 -0.001435
H14   H     H_    0.534805 0.158256 0.612429 -0.030474
H15   H     H_    0.760643 0.206580 0.718719 0.152632
H16   H     H_    0.287408 0.281234 0.695347 -0.018116
H17   H     H_    0.241381 0.248179 0.614653 -0.085506
H18   H     H_    0.296566 0.129202 0.657758 0.090393
H19   H     H_    0.457191 0.659351 0.343018 0.079319
H20   H     H_    0.544704 0.307606 0.030974 0.158627
H21   H     H_    0.711415 0.709679 0.083634 0.177137
H22   H     H_    0.963975 0.575147 0.213464 0.123952
H23   H     H_    0.382901 0.786459 0.787924 0.165415
H24   H     H_    0.658723 0.550577 0.762918 0.135719
H25   H     H_    0.240672 0.423731 0.791735 0.139239
H26   H     H_    0.551144 0.445992 0.234643 0.155566
H27   H     H_    0.833900 0.548185 0.387358 0.097223
H28   H     H_    0.653247 0.697913 0.342652 -0.087281
H29   H     H_    0.779950 0.684101 0.499189 0.068801
H30   H     H_    0.751894 0.034837 0.477972 0.166768
H31   H     H_    0.362292 0.761617 0.283040 0.167664
H32   H     H_    0.570834 0.772280 0.270936 0.172085
H33   H     H_    0.361383 0.702752 0.678772 0.083538
H34   H     H_    0.521127 0.692542 0.772698 0.147355
H35   H     H_    0.118099 0.464080 0.366250 0.346603
H36   H     H_    0.895351 0.248159 0.124644 0.361544
H37   H     H_    0.198980 0.889240 0.249915 0.340318
H38   H     H_    0.641932 0.959579 0.651116 0.338471
H39   H     H_    0.229715 0.238604 0.879793 0.370616
H40   H     H_    0.394237 0.338486 0.600826 0.184940
H41   H     H_    0.184775 0.954905 0.499603 0.348794
H42   H     H_    0.520338 0.760326 0.588296 0.273946
H43   H     H_    0.461481 0.281457 0.378539 0.034970
H44   H     H_    0.665696 0.292527 0.405004 0.030732
H45   H     H_    0.630770 0.143717 0.370185 0.006443
H46   H     H_    0.764335 0.163620 0.315503 0.109059
H47   H     H_    0.867346 0.709168 0.696416 0.126063
N1    N     N_R   0.495315 0.494569 0.852382 -0.435120
N2    N     N_R   0.702648 0.512198 0.153841 -0.427643
O1    O     O_2   0.414630 0.451750 0.353890 -0.453511
O2    O     O_2   0.849775 0.195419 0.498785 -0.414886
O3    O     O_3   0.748083 0.214002 0.610392 -0.540300
O4    O     O_3   0.654720 0.452660 0.425060 -0.457544
O5    O     O_3   0.021450 0.605740 0.544090 -0.461020
O6    O     O_2   0.953100 0.285520 0.441860 -0.458541
O7    O     O_3   0.169651 0.249671 0.343216 -0.615262
O8    O     O_2   0.937503 0.465947 0.701681 -0.435599
O9    O     O_3   0.051745 0.308918 0.678056 -0.540044
O10   O     O_2   0.531711 0.632448 0.875008 -0.526967
O11   O     O_2   0.470570 0.357129 0.836029 -0.530964
O12   O     O_3   0.074920 0.720635 0.652400 -0.588327
O13   O     O_2   0.662458 0.373664 0.128689 -0.569045
O14   O     O_2   0.745670 0.649222 0.168758 -0.592137
O15   O     O_3   0.116150 0.611500 0.411510 -0.490352
O16   O     O_2   0.250244 0.545181 0.299637 -0.464408
O17   O     O_3   0.618362 0.315279 0.323077 -0.587083
O18   O     O_3   0.140664 0.704513 0.328058 -0.625587
O19   O     O_2   0.236590 0.714510 0.558180 -0.423873
O20   O     O_3   0.511480 0.656670 0.446630 -0.520470
O21   O     O_2   0.342308 0.801078 0.498353 -0.411574
O22   O     O_2   0.103986 0.372181 0.261807 -0.585630
O23   O     O_3   0.466383 0.786757 0.390367 -0.547768
O24   O     O_R   0.037727 0.422525 0.363642 -0.771258
O25   O     O_2   0.789529 0.222010 0.214551 -0.532826
O26   O     O_R   0.987000 0.238550 0.150725 -0.677603
O27   O     O_2   0.037389 0.774938 0.209228 -0.570013
O28   O     O_R   0.129252 0.881708 0.284197 -0.678966
O29   O     O_2   0.846043 0.050229 0.688524 -0.505254
O30   O     O_R   0.600531 0.020182 0.654365 -0.694713
O31   O     O_2   0.485730 0.212044 0.920043 -0.528818
O32   O     O_R   0.273914 0.294475 0.900085 -0.694581
O33   O     O_2   0.450993 0.374715 0.481277 -0.567010
O34   O     O_2   0.775060 0.548280 0.646150 -0.429406
O35   O     O_R   0.381036 0.379308 0.576329 -0.740004
O36   O     O_2   0.378653 0.968547 0.577448 -0.473554
O37   O     O_R   0.295842 0.958141 0.482254 -0.716598
O38   O     O_2   0.401444 0.882925 0.716727 -0.507118
O39   O     O_R   0.485308 0.818542 0.618109 -0.687529
O40   O     O_3   0.534950 0.547420 0.574950 -0.427046
O41   O     O_3   0.073530 0.388570 0.588510 -0.429931
O42   O     O_3   0.608113 0.683694 0.657732 -0.679129
O43   O     O_3   0.168220 0.394330 0.455930 -0.415090
O44   O     O_3   0.678190 0.343400 0.553390 -0.441229
P1    P     P_3+3 0.594550 0.425840 0.359090 1.074331
P2    P     P_3+3 0.065650 0.701630 0.573510 1.085116
P3    P     P_3+3 0.501263 0.765293 0.459302 1.017386
P4    P     P_3+3 0.595130 0.574230 0.640920 1.040342
P5    P     P_3+3 0.697554 0.233243 0.541726 1.033624
P6    P     P_3+3 0.102827 0.606200 0.334548 0.959820
P7    P     P_3+3 0.135700 0.286071 0.423634 1.059921
P8    P     P_3+3 0.086870 0.405973 0.668048 1.094388

loop_
_geom_bond_atom_site_label_1
_geom_bond_atom_site_label_2
_ccdc_geom_bond_type
O3    P5    S    
C28   C40   S    
O21   P3    D    
O42   P4    S    
C20   C31   S    
C44   C48   A    
C62   C63   S    
C51   H2    S    
C8    C9    A    
Ba1   O4    S    
C12   H1    S    
Br3   C56   S    
C4    H19   S    
C33   H29   S    
O18   P6    S    
C52   H4    S    
H42   O39   S    
O41   P8    S    
C18   O14   D    
O20   P3    S    
Br7   C31   S    
C58   O31   D    
C2    C7    A    
C30   N2    S    
C25   C26   A    
C47   P2    S    
C5    N1    Am   
Ba1   O1    S    
C59   O35   S    
Ba1   O5    S    
C19   C20   S    
H35   O24   S    
C45   H13   S    
Ba1   O43   S    
C33   C48   A    
C18   N2    Am   
C19   H25   S    
Ba1   P2    S    
Ba2   O5    S    
C49   H44   S    
C50   H46   S    
Ba1   Ba2   S    
O8    P8    D    
C45   O3    S    
C51   O12   S    
C54   O26   S    
C4    O23   S    
Ba2   O6    S    
C26   P6    S    
C35   C36   D    
Ba1   O40   S    
C33   C47   A    
C5    C6    A    
Br8   C35   S    
C64   H27   S    
C28   C61   S    
H37   O28   S    
C12   O18   S    
C49   H43   S    
C25   H22   S    
Br2   C1    S    
O1    P1    D    
C32   C37   D    
H38   O30   S    
Ba1   O15   S    
C27   C64   A    
C40   H23   S    
Br1   C50   S    
C21   P4    S    
O4    P1    S    
C40   H34   S    
C10   C11   A    
C53   O24   S    
C50   H45   S    
C54   O25   D    
C63   H18   S    
C25   C30   A    
O44   P5    S    
C48   P3    S    
O17   P1    S    
O23   P3    S    
C13   C58   S    
Br4   C63   S    
Br5   C63   S    
C20   P8    S    
C42   C44   S    
C28   H33   S    
Br6   C8    S    
C2    C8    A    
C56   C57   S    
C6    C13   A    
H41   O37   S    
C13   C14   A    
C62   H16   S    
C57   O29   D    
Ba2   O40   S    
C3    O10   D    
C16   H31   S    
C14   C15   A    
C10   C18   A    
C56   H15   S    
H40   O35   S    
C49   C50   S    
C22   H24   S    
C58   O32   S    
C16   H11   S    
C34   H10   S    
C55   O28   S    
C51   C52   S    
Ba1   O19   S    
C49   O17   S    
O5    P2    S    
C4    C16   S    
C1    C12   S    
C16   H32   S    
Ba2   O34   S    
C38   C41   S    
C23   C53   S    
C6    C7    A    
C1    H7    S    
C23   C34   S    
C62   H17   S    
Ba2   O41   S    
O2    P5    D    
C19   C24   D    
C29   C30   A    
O12   P2    S    
C23   O7    S    
C14   H20   S    
C32   C59   S    
C34   C54   S    
O40   P4    S    
C34   H9    S    
C23   H8    S    
C40   H12   S    
C42   C60   S    
H36   O26   S    
Ba2   O44   S    
C51   H47   S    
C41   C42   D    
C27   P1    S    
O43   P7    S    
C37   P5    S    
C45   H14   S    
C43   C44   A    
C37   C38   S    
C61   O38   D    
C3    N1    Am   
C60   O37   S    
C53   O22   D    
C7    C11   A    
C15   C17   A    
H39   O32   S    
C12   H6    S    
C17   O13   D    
C9    H21   S    
O19   P2    D    
C62   O9    S    
C41   H30   S    
C17   N2    Am   
O6    P7    D    
C52   H5    S    
C45   C56   S    
C60   O36   D    
C35   C39   S    
C57   O30   S    
C59   O33   D    
C21   C22   D    
C28   O42   S    
C24   N1    S    
C55   O27   D    
Ba1   O20   S    
Br9   C46   S    
C27   C29   A    
O34   P4    D    
C46   C47   A    
C1    C55   S    
O7    P7    S    
C22   C24   S    
C61   O39   S    
C26   C64   A    
O9    P8    S    
C9    C10   A    
O16   P6    D    
C38   C39   S    
C11   C15   A    
C29   H26   S    
Ba1   P1    S    
C21   C31   D    
O15   P6    S    
C4    H28   S    
C2    C3    A    
C5    O11   D    
C32   C36   S    
Ba2   O43   S    
C52   H3    S    
C36   P7    S    
Ba2   P4    S    
C43   C46   A    
Ba2   O4    S    
