data_mof_unit_63119.cif
_audit_creation_date              2013-03-05T16:35:57-0500
_audit_creation_method            fapswitch 2.2
_symmetry_space_group_name_H-M    P1
_symmetry_Int_Tables_number       1
_space_group_crystal_system       triclinic
_cell_length_a                    47.687793
_cell_length_b                    35.494215
_cell_length_c                    35.497946
_cell_angle_alpha                 90.024454
_cell_angle_beta                  138.072247
_cell_angle_gamma                 89.98044
_cell_volume                      40148.5542101

loop_
_atom_site_label
_atom_site_type_symbol
_atom_site_description
_atom_site_fract_x
_atom_site_fract_y
_atom_site_fract_z
_atom_type_partial_charge
O1    O     O_R   0.000000 0.968690 0.444560 -0.594747
O2    O     O_R   0.000000 0.968690 0.555440 -0.597760
O3    O     O_R   0.500000 0.468690 0.444560 -0.597924
O4    O     O_R   0.500000 0.468690 0.555440 -0.597748
O5    O     O_R   0.999990 0.031300 0.444600 -0.607253
O6    O     O_R   0.000010 0.031300 0.555400 -0.598528
O7    O     O_R   0.499990 0.531300 0.444600 -0.598130
O8    O     O_R   0.500010 0.531300 0.555400 -0.598119
C1    C     C_R   0.999937 0.000060 0.426651 0.983703
C2    C     C_R   0.000107 0.000086 0.573400 0.982089
C3    C     C_R   0.499908 0.500070 0.426615 0.980737
C4    C     C_R   0.500092 0.500085 0.573389 0.980515
O9    O     O_R   0.061610 0.968700 0.561610 -0.603341
O10   O     O_R   0.938390 0.968700 0.438390 -0.602372
O11   O     O_R   0.561610 0.468700 0.561610 -0.602478
O12   O     O_R   0.438390 0.468700 0.438390 -0.602388
O13   O     O_R   0.061610 0.031300 0.561650 -0.603516
O14   O     O_R   0.938390 0.031300 0.438350 -0.605180
O15   O     O_R   0.561610 0.531300 0.561650 -0.603240
O16   O     O_R   0.438390 0.531300 0.438350 -0.603250
C5    C     C_R   0.081253 0.999995 0.581373 0.919850
C6    C     C_R   0.918748 0.999997 0.418643 0.921733
C7    C     C_R   0.581255 0.500000 0.581387 0.917470
C8    C     C_R   0.418745 0.500001 0.418614 0.917427
Zn1   Zn    Zn3+2 0.000000 0.958200 0.500000 1.057350
Zn2   Zn    Zn3+2 0.500000 0.458200 0.500000 1.058750
Zn3   Zn    Zn3+2 1.000000 0.041800 0.500000 1.072282
Zn4   Zn    Zn3+2 0.500000 0.541800 0.500000 1.080990
C9    C     C_3   0.263588 0.972064 0.740898 0.070142
C10   C     C_3   0.736412 0.973248 0.260391 0.071087
C11   C     C_3   0.763580 0.474472 0.738358 0.071718
C12   C     C_3   0.236433 0.474715 0.261960 0.071502
C13   C     C_3   0.235920 0.005561 0.701333 0.182660
C14   C     C_3   0.764084 0.007275 0.298364 0.182453
C15   C     C_3   0.735953 0.508967 0.702036 0.182980
C16   C     C_3   0.264035 0.509331 0.297855 0.182948
C17   C     C_1   0.125543 0.999949 0.625825 -0.104024
C18   C     C_1   0.874458 0.999955 0.374193 -0.102315
C19   C     C_1   0.625549 0.499986 0.625822 -0.103523
C20   C     C_1   0.374449 0.499983 0.374184 -0.103463
C21   C     C_1   0.374416 0.999746 0.874426 -0.078201
C22   C     C_1   0.625586 0.999822 0.125577 -0.078373
C23   C     C_1   0.874422 0.499808 0.874420 -0.065613
C24   C     C_1   0.125576 0.499719 0.125583 -0.065476
C25   C     C_3   0.236229 0.965909 0.748652 0.280236
C26   C     C_3   0.763771 0.965409 0.252969 0.280108
C27   C     C_3   0.736210 0.465066 0.745362 0.279917
C28   C     C_3   0.263814 0.464894 0.255081 0.279865
C29   C     C_3   0.208204 0.999388 0.708822 -0.075251
C30   C     C_3   0.791799 0.999412 0.291209 -0.075756
C31   C     C_3   0.708219 0.499529 0.708763 -0.073981
C32   C     C_3   0.291780 0.499479 0.291252 -0.073921
C33   C     C_3   0.263913 0.993189 0.798832 0.130292
C34   C     C_3   0.736092 0.991578 0.201529 0.129746
C35   C     C_3   0.763911 0.490084 0.798031 0.131114
C36   C     C_3   0.236096 0.489583 0.202103 0.131174
C37   C     C_3   0.291698 0.999276 0.791672 -0.063329
C38   C     C_3   0.708305 0.999343 0.208360 -0.062995
C39   C     C_3   0.791711 0.499402 0.791618 -0.063419
C40   C     C_3   0.208287 0.499312 0.208394 -0.063525
C41   C     C_3   0.235828 0.027147 0.759762 -0.295188
C42   C     C_3   0.764180 0.026022 0.238987 -0.293932
C43   C     C_3   0.735865 0.524952 0.762240 -0.297069
C44   C     C_3   0.264116 0.524561 0.237461 -0.297203
C45   C     C_3   0.263492 0.032597 0.751913 0.209296
C46   C     C_3   0.736515 0.033178 0.246536 0.208521
C47   C     C_3   0.763553 0.533693 0.755091 0.200258
C48   C     C_3   0.236419 0.533721 0.244496 0.200109
C49   C     C_1   0.162932 0.999752 0.663380 0.063339
C50   C     C_1   0.837070 0.999767 0.336640 0.064241
C51   C     C_1   0.662941 0.499851 0.663352 0.063176
C52   C     C_1   0.337057 0.499829 0.336659 0.063178
C53   C     C_1   0.337015 0.999535 0.836974 0.003100
C54   C     C_1   0.662987 0.999611 0.163040 0.001757
C55   C     C_1   0.837024 0.499630 0.836948 0.006086
C56   C     C_1   0.162974 0.499532 0.163058 0.007543
H1    H     H_    0.224285 0.049609 0.767362 0.185138
H2    H     H_    0.775728 0.047537 0.230353 0.186536
H3    H     H_    0.724339 0.545529 0.771879 0.185434
H4    H     H_    0.275627 0.544877 0.227570 0.185489
C57   C     C_R   0.969789 0.021459 0.144714 0.147149
C58   C     C_R   0.030799 0.020477 0.855786 0.144902
C59   C     C_R   0.469421 0.520425 0.144475 0.144731
C60   C     C_R   0.530197 0.521243 0.855259 0.145064
C61   C     C_R   0.965653 0.015817 0.101407 0.131227
C62   C     C_R   0.034796 0.014788 0.898956 0.129488
C63   C     C_R   0.465355 0.514836 0.101227 0.129513
C64   C     C_R   0.534354 0.515611 0.898581 0.128124
C65   C     C_R   0.000342 0.002023 0.115355 -0.149379
C66   C     C_R   0.999695 0.001930 0.884649 -0.149223
C67   C     C_R   0.500326 0.501774 0.115362 -0.145486
C68   C     C_R   0.499670 0.501862 0.884653 -0.145218
C69   C     C_R   0.037474 0.992190 0.171235 -0.286646
C70   C     C_R   0.962249 0.993030 0.828476 -0.286541
C71   C     C_R   0.537657 0.492446 0.171383 -0.258623
C72   C     C_R   0.462583 0.491889 0.828822 -0.256714
H5    H     H_    0.064013 0.981617 0.181875 0.219798
H6    H     H_    0.935394 0.983150 0.817526 0.220103
H7    H     H_    0.564380 0.482329 0.182161 0.222123
H8    H     H_    0.436091 0.481240 0.818233 0.221907
C73   C     C_R   0.041239 0.995986 0.213954 0.292611
C74   C     C_R   0.958526 0.996976 0.785814 0.290943
C75   C     C_R   0.541426 0.496262 0.214102 0.289203
C76   C     C_R   0.458782 0.495699 0.786073 0.289056
C77   C     C_R   0.007041 0.010533 0.200242 -0.066793
C78   C     C_R   0.993137 0.010641 0.799903 -0.072291
C79   C     C_R   0.506989 0.510247 0.200228 -0.074027
C80   C     C_R   0.492903 0.510387 0.799704 -0.074233
C81   C     C_1   0.007777 0.010433 0.241220 0.092313
C82   C     C_1   0.992198 0.010851 0.758721 0.094917
C83   C     C_1   0.507977 0.510495 0.241455 0.098206
C84   C     C_1   0.491961 0.510668 0.758515 0.098005
C85   C     C_1   0.007198 0.009210 0.274286 0.062755
C86   C     C_1   0.992472 0.009909 0.725336 0.107089
C87   C     C_1   0.507717 0.509618 0.274856 0.106319
C88   C     C_1   0.492239 0.509790 0.725128 0.105942
C89   C     C_R   0.976220 0.028967 0.303342 0.080854
C90   C     C_R   0.023031 0.029811 0.695940 0.085402
C91   C     C_R   0.477223 0.529742 0.304281 0.085011
C92   C     C_R   0.522687 0.529909 0.695642 0.084808
C93   C     C_R   0.972798 0.025054 0.339095 0.244039
C94   C     C_R   0.026720 0.025566 0.660421 0.209451
C95   C     C_R   0.473468 0.525559 0.339731 0.209234
C96   C     C_R   0.526466 0.525682 0.660216 0.209262
C97   C     C_R   0.000555 0.000787 0.386102 -0.257381
C98   C     C_R   0.999336 0.000938 0.613809 -0.235735
C99   C     C_R   0.500742 0.500879 0.386271 -0.235676
C100  C     C_R   0.499250 0.500933 0.613734 -0.235576
C101  C     C_R   0.030687 0.979410 0.396413 0.097728
C102  C     C_R   0.969179 0.979611 0.603464 0.098787
C103  C     C_R   0.530859 0.479446 0.396613 0.098845
C104  C     C_R   0.469176 0.479475 0.603438 0.098806
C105  C     C_R   0.032189 0.981581 0.358287 0.163592
C106  C     C_R   0.967299 0.982223 0.641178 0.141523
C107  C     C_R   0.532775 0.481981 0.358936 0.139933
C108  C     C_R   0.467249 0.482050 0.641107 0.139436
C109  C     C_R   0.005299 0.006684 0.312538 -0.054572
C110  C     C_R   0.993866 0.007663 0.686545 -0.022365
C111  C     C_R   0.506311 0.507464 0.313636 -0.022292
C112  C     C_R   0.493651 0.507601 0.686346 -0.022376
O17   O     O_R   0.499990 0.944470 0.968740 -0.586740
O18   O     O_R   0.500010 0.944470 0.031260 -0.596521
O19   O     O_R   0.999990 0.444470 0.968740 -0.597608
O20   O     O_R   0.000010 0.444470 0.031260 -0.587692
C113  C     C_R   0.500040 0.926570 0.000031 1.013316
C114  C     C_R   0.999961 0.426569 0.999955 1.013540
O21   O     O_R   0.438380 0.999930 0.907110 -0.608768
O22   O     O_R   0.561620 0.999930 0.092890 -0.607941
O23   O     O_R   0.938380 0.499930 0.907110 -0.603795
O24   O     O_R   0.061620 0.499930 0.092890 -0.604560
O25   O     O_R   0.438390 0.999990 0.969710 -0.601504
O26   O     O_R   0.561610 0.999990 0.030290 -0.601129
O27   O     O_R   0.938390 0.499990 0.969710 -0.609546
O28   O     O_R   0.061610 0.499990 0.030290 -0.610131
C115  C     C_R   0.418728 0.999933 0.918758 0.951403
C116  C     C_R   0.581272 0.999995 0.081242 0.961644
C117  C     C_R   0.918730 0.499950 0.918758 0.974480
C118  C     C_R   0.081269 0.499885 0.081243 0.964322
Zn5   Zn    Zn3+2 0.500000 0.999910 0.958220 1.110508
Zn6   Zn    Zn3+2 0.500000 0.999910 0.041780 1.102206
Zn7   Zn    Zn3+2 0.000000 0.499910 0.958220 1.088729
Zn8   Zn    Zn3+2 0.000000 0.499910 0.041780 1.097303
O29   O     O_R   0.500000 0.055370 0.968700 -0.593319
O30   O     O_R   0.500000 0.055370 0.031300 -0.593422
O31   O     O_R   0.000000 0.555370 0.968700 -0.599239
O32   O     O_R   1.000000 0.555370 0.031300 -0.599189
C119  C     C_R   0.500005 0.073275 0.000012 1.006101
C120  C     C_R   0.999999 0.573110 0.000008 1.028773
O33   O     O_R   0.034750 0.055350 0.034810 -0.611837
O34   O     O_R   0.965250 0.055350 0.965190 -0.611856
O35   O     O_R   0.534750 0.555350 0.034810 -0.612751
O36   O     O_R   0.465250 0.555350 0.965190 -0.612751
C121  C     C_R   0.000012 0.073172 0.000030 0.960738
C122  C     C_R   0.499986 0.573171 0.999966 0.961343
O37   O     O_R   0.034780 0.999900 0.090240 -0.628600
O38   O     O_R   0.965220 0.999900 0.909760 -0.628338
O39   O     O_R   0.534780 0.499900 0.090240 -0.627272
O40   O     O_R   0.465220 0.499900 0.909760 -0.627488
O41   O     O_R   0.965220 0.999880 0.020680 -0.587034
O42   O     O_R   0.034780 0.999880 0.979320 -0.587210
O43   O     O_R   0.465220 0.499880 0.020680 -0.590817
O44   O     O_R   0.534780 0.499880 0.979320 -0.590737
C123  C     C_R   0.999944 0.000091 0.073526 0.958423
C124  C     C_R   0.000062 0.000033 0.926468 0.956944
C125  C     C_R   0.499943 0.500049 0.073531 0.972889
C126  C     C_R   0.500055 0.500085 0.926474 0.973691
Zn9   Zn    Zn3+2 0.046450 0.999900 0.046470 1.046345
Zn10  Zn    Zn3+2 0.953550 0.999900 0.953530 1.046497
Zn11  Zn    Zn3+2 0.546450 0.499900 0.046470 1.034548
Zn12  Zn    Zn3+2 0.453550 0.499900 0.953530 1.034528
O45   O     O_R   0.034810 0.944450 0.034800 -0.590283
O46   O     O_R   0.965190 0.944450 0.965200 -0.589720
O47   O     O_R   0.534810 0.444450 0.034800 -0.597172
O48   O     O_R   0.465190 0.444450 0.965200 -0.597532
C127  C     C_R   0.999999 0.926542 0.000018 1.032911
C128  C     C_R   0.500002 0.426703 0.999998 1.053895
C129  C     C_R   0.022868 0.173307 0.050499 0.248966
C130  C     C_R   0.980064 0.173199 0.950391 0.246102
C131  C     C_R   0.519861 0.673229 0.049546 0.245950
C132  C     C_R   0.477169 0.673275 0.949482 0.248907
C133  C     C_R   0.021733 0.133749 0.050140 0.055658
C134  C     C_R   0.979356 0.133637 0.950107 0.055012
C135  C     C_R   0.520576 0.633667 0.049845 0.055242
C136  C     C_R   0.478312 0.633717 0.949858 0.055912
C137  C     C_R   0.000167 0.114197 0.999993 -0.163414
C138  C     C_R   0.499826 0.614196 0.999990 -0.163089
C139  C     C_R   0.001989 0.192693 0.000620 -0.185272
C140  C     C_R   0.497990 0.692693 0.999332 -0.185605
C141  C     C_1   0.002876 0.232911 0.000905 0.203119
C142  C     C_1   0.497101 0.732913 0.999033 0.203185
C143  C     C_1   0.496580 0.766577 0.998796 0.217290
C144  C     C_1   0.003398 0.266574 0.001136 0.217000
C145  C     C_R   0.525837 0.826013 0.050485 0.216731
C146  C     C_R   0.468433 0.826500 0.947267 0.210507
C147  C     C_R   0.031512 0.326504 0.052678 0.210121
C148  C     C_R   0.974208 0.326002 0.949460 0.216479
C149  C     C_R   0.527726 0.865454 0.051256 0.184907
C150  C     C_R   0.470273 0.865981 0.947912 0.193055
C151  C     C_R   0.029685 0.365986 0.052048 0.193027
C152  C     C_R   0.972332 0.365445 0.948702 0.184782
C153  C     C_R   0.499725 0.885387 0.999783 -0.346516
C154  C     C_R   0.000285 0.385385 0.000182 -0.346788
C155  C     C_R   0.496472 0.806813 0.998736 -0.219383
C156  C     C_R   0.003515 0.306809 0.001203 -0.219713
C157  C     C_R   0.973019 0.826161 0.997754 0.124753
C158  C     C_R   0.027052 0.826092 0.002655 0.124664
C159  C     C_R   0.499279 0.326765 0.033779 0.135268
C160  C     C_R   0.500760 0.326761 0.966174 0.135234
C161  C     C_R   0.973332 0.865667 0.998384 0.253342
C162  C     C_R   0.026671 0.865593 0.001828 0.254335
C163  C     C_R   0.499610 0.366280 0.034144 0.239384
C164  C     C_R   0.500441 0.366279 0.965850 0.239149
C165  C     C_R   0.999997 0.885346 0.000075 -0.378885
C166  C     C_R   0.500012 0.385803 0.999992 -0.365970
C167  C     C_R   0.000054 0.806634 0.000257 -0.091997
C168  C     C_R   0.500012 0.307256 0.999962 -0.096517
C169  C     C_1   0.000055 0.766427 0.000284 -0.019721
C170  C     C_1   0.500008 0.267056 0.999949 -0.025169
C171  C     C_1   0.500010 0.233427 0.999961 -0.020064
C172  C     C_1   0.000052 0.732794 0.000268 -0.023438
C173  C     C_R   0.473401 0.173760 0.998294 0.123410
C174  C     C_R   0.526646 0.173718 0.001733 0.123443
C175  C     C_R   0.961691 0.673090 0.964824 0.136324
C176  C     C_R   0.038378 0.673071 0.035510 0.136287
C177  C     C_R   0.472986 0.134257 0.997628 0.245980
C178  C     C_R   0.527069 0.134217 0.002445 0.245948
C179  C     C_R   0.961629 0.633572 0.964461 0.246250
C180  C     C_R   0.038409 0.633552 0.035714 0.246241
C181  C     C_R   0.500024 0.114496 0.000039 -0.374234
C182  C     C_R   0.000012 0.614025 0.000047 -0.361728
C183  C     C_R   0.500017 0.193225 0.999993 -0.091581
C184  C     C_R   0.000042 0.692589 0.000211 -0.099324
N1    N     N_2   0.219166 0.013039 0.647401 -0.311765
H9    H     H_    0.194409 0.995816 0.615424 0.219523
C185  C     C_3   0.249896 0.017298 0.648465 -0.694803
H10   H     H_    0.233936 0.026503 0.606290 0.238401
H11   H     H_    0.265955 0.990111 0.658988 0.258760
H12   H     H_    0.273526 0.038943 0.679737 0.268478
N2    N     N_2   0.780838 0.016530 0.351901 -0.311175
H13   H     H_    0.805600 0.999678 0.384687 0.219727
C186  C     C_3   0.750105 0.022208 0.350599 -0.695826
H14   H     H_    0.766061 0.032672 0.392304 0.238665
H15   H     H_    0.734056 0.995315 0.341370 0.258301
H16   H     H_    0.726467 0.043454 0.318302 0.268248
N3    N     N_2   0.719224 0.519932 0.648997 -0.311839
H17   H     H_    0.694442 0.503498 0.615400 0.219867
C187  C     C_3   0.749978 0.526930 0.650629 -0.691161
H18   H     H_    0.734048 0.538588 0.609464 0.238340
H19   H     H_    0.765998 0.500364 0.658579 0.257450
H20   H     H_    0.773638 0.547728 0.683945 0.271397
N4    N     N_2   0.280751 0.520758 0.350753 -0.311877
H21   H     H_    0.305544 0.504448 0.384554 0.219884
C188  C     C_3   0.249988 0.528103 0.349025 -0.690794
H22   H     H_    0.265905 0.540088 0.390040 0.238223
H23   H     H_    0.233990 0.501630 0.341407 0.257486
H24   H     H_    0.226312 0.548763 0.315447 0.271549
N5    N     N_R   0.079809 0.984881 0.270638 0.220963
O49   O     O_R   0.093308 0.002518 0.313906 -0.365834
O50   O     O_R   0.103712 0.959374 0.279234 -0.362113
N6    N     N_R   0.919561 0.986932 0.728790 0.220560
O51   O     O_R   0.906522 0.005022 0.686105 -0.369255
O52   O     O_R   0.894911 0.961990 0.719399 -0.361075
N7    N     N_R   0.580259 0.485771 0.270960 0.220957
O53   O     O_R   0.593550 0.503673 0.313936 -0.371207
O54   O     O_R   0.604562 0.460580 0.279940 -0.346941
N8    N     N_R   0.420240 0.484484 0.729435 0.220658
O55   O     O_R   0.406528 0.502213 0.686103 -0.371342
O56   O     O_R   0.396571 0.458750 0.720962 -0.346730
N9    N     N_2   0.949208 0.054457 0.257025 -0.260442
H25   H     H_    0.935121 0.043126 0.219365 0.241144
C189  C     C_3   0.967856 0.090918 0.268348 -0.645098
H26   H     H_    0.994530 0.088152 0.275059 0.213814
H27   H     H_    0.979455 0.103854 0.306457 0.272086
H28   H     H_    0.943964 0.109938 0.231976 0.236956
N10   N     N_2   0.049586 0.055249 0.742489 -0.288668
H29   H     H_    0.079498 0.057872 0.761633 0.270434
C190  C     C_3   0.030336 0.091209 0.731737 -0.676324
H30   H     H_    0.052703 0.108969 0.770196 0.232766
H31   H     H_    0.001634 0.087246 0.720337 0.234034
H32   H     H_    0.021828 0.106215 0.696879 0.272798
N11   N     N_2   0.450826 0.555273 0.257860 -0.289165
H33   H     H_    0.420907 0.558016 0.238666 0.269928
C191  C     C_3   0.470270 0.591155 0.268867 -0.675281
H34   H     H_    0.498970 0.587074 0.280288 0.233829
H35   H     H_    0.478827 0.606116 0.303801 0.273064
H36   H     H_    0.448013 0.609018 0.230524 0.232728
N12   N     N_2   0.548992 0.555537 0.741961 -0.288649
H37   H     H_    0.578910 0.558331 0.761170 0.269950
C192  C     C_3   0.529429 0.591390 0.730774 -0.675182
H38   H     H_    0.551611 0.609342 0.769038 0.232530
H39   H     H_    0.500719 0.587275 0.719317 0.233444
H40   H     H_    0.520856 0.606276 0.695798 0.272729
N13   N     N_R   0.939547 0.043922 0.325838 0.233915
O57   O     O_R   0.932818 0.079748 0.314391 -0.356556
O58   O     O_R   0.915018 0.024939 0.323646 -0.405603
N14   N     N_R   0.058713 0.045678 0.672127 0.211900
O59   O     O_R   0.060314 0.082274 0.674923 -0.381738
O60   O     O_R   0.085399 0.027428 0.677890 -0.404635
N15   N     N_R   0.441516 0.545787 0.328023 0.211884
O61   O     O_R   0.440059 0.582387 0.325375 -0.380646
O62   O     O_R   0.414736 0.527638 0.322139 -0.406615
N16   N     N_R   0.558387 0.545932 0.671896 0.211900
O63   O     O_R   0.559756 0.582537 0.674424 -0.380864
O64   O     O_R   0.585217 0.527797 0.677854 -0.406316
N17   N     N_2   0.059261 0.955980 0.445170 -0.279637
H41   H     H_    0.065897 0.930552 0.439108 0.239974
C193  C     C_3   0.096406 0.975146 0.495876 -0.775730
H42   H     H_    0.116205 0.984481 0.491669 0.233110
H43   H     H_    0.114998 0.955672 0.532362 0.243325
H44   H     H_    0.087717 0.000061 0.504426 0.228970
N18   N     N_2   0.940834 0.955924 0.554960 -0.279689
H45   H     H_    0.934252 0.930568 0.561217 0.240829
C194  C     C_3   0.903652 0.974847 0.503968 -0.774905
H46   H     H_    0.883659 0.984209 0.507847 0.232489
H47   H     H_    0.885276 0.955199 0.467692 0.244962
H48   H     H_    0.912291 0.999722 0.495311 0.228136
N19   N     N_2   0.559131 0.455739 0.445085 -0.279402
H49   H     H_    0.565656 0.430344 0.438802 0.241260
C195  C     C_3   0.596352 0.474613 0.496112 -0.772799
H50   H     H_    0.616382 0.483886 0.492266 0.231851
H51   H     H_    0.614670 0.454965 0.532361 0.246710
H52   H     H_    0.587764 0.499541 0.504785 0.227741
N20   N     N_2   0.440952 0.455704 0.555018 -0.279294
H53   H     H_    0.434475 0.430312 0.561354 0.241317
C196  C     C_3   0.403696 0.474507 0.503948 -0.772405
H54   H     H_    0.383645 0.483776 0.507767 0.231620
H55   H     H_    0.385419 0.454812 0.467741 0.247242
H56   H     H_    0.412239 0.499429 0.495225 0.227493
N21   N     N_2   0.061793 0.959986 0.366810 -0.272171
H57   H     H_    0.090700 0.956671 0.408268 0.242234
C197  C     C_3   0.045339 0.925193 0.335110 -0.693112
H58   H     H_    0.036504 0.905688 0.349430 0.220563
H59   H     H_    0.069652 0.911478 0.341685 0.262095
H60   H     H_    0.017428 0.930726 0.289313 0.245246
N22   N     N_2   0.937757 0.960603 0.632738 -0.275672
H61   H     H_    0.908910 0.957125 0.591271 0.243976
C198  C     C_3   0.954329 0.925914 0.664669 -0.697350
H62   H     H_    0.963288 0.906354 0.650542 0.222450
H63   H     H_    0.930041 0.912182 0.658121 0.262118
H64   H     H_    0.982185 0.931593 0.710436 0.244161
N23   N     N_2   0.562261 0.460244 0.367356 -0.276960
H65   H     H_    0.591090 0.456715 0.408821 0.243892
C199  C     C_3   0.545588 0.425570 0.335352 -0.686615
H66   H     H_    0.536556 0.406076 0.349421 0.221461
H67   H     H_    0.569842 0.411742 0.341890 0.264503
H68   H     H_    0.517759 0.431287 0.289595 0.244826
N24   N     N_2   0.437804 0.460288 0.632729 -0.276655
H69   H     H_    0.408985 0.456697 0.591270 0.243856
C200  C     C_3   0.454546 0.425660 0.664819 -0.684146
H70   H     H_    0.463622 0.406151 0.650802 0.220998
H71   H     H_    0.430318 0.411817 0.658310 0.264974
H72   H     H_    0.482360 0.431444 0.710562 0.244666
N25   N     N_R   0.044197 0.193790 0.100962 0.221743
O65   O     O_R   0.084876 0.192195 0.144213 -0.325202
O66   O     O_R   0.023514 0.217098 0.101640 -0.336946
N26   N     N_R   0.959764 0.193517 0.900290 0.219974
O67   O     O_R   0.919042 0.193588 0.857061 -0.325457
O68   O     O_R   0.981677 0.214799 0.899768 -0.328797
N27   N     N_R   0.540099 0.693579 0.099613 0.220015
O69   O     O_R   0.580816 0.693670 0.142891 -0.326483
O70   O     O_R   0.518137 0.714873 0.100054 -0.328619
N28   N     N_R   0.455890 0.693727 0.899034 0.221800
O71   O     O_R   0.415216 0.692126 0.855727 -0.326595
O72   O     O_R   0.476607 0.717019 0.898420 -0.337115
N29   N     N_2   0.040642 0.113349 0.099216 -0.281810
H73   H     H_    0.068758 0.124099 0.136748 0.285381
C201  C     C_3   0.012282 0.104145 0.101343 -0.729356
H74   H     H_    0.001257 0.130290 0.104433 0.262048
H75   H     H_    0.028822 0.086358 0.138888 0.241396
H76   H     H_    0.984807 0.088116 0.063192 0.228679
N30   N     N_2   0.959601 0.113071 0.900737 -0.281815
H77   H     H_    0.931614 0.124244 0.863511 0.284919
C202  C     C_3   0.987322 0.102988 0.897769 -0.725279
H78   H     H_    0.998572 0.128738 0.894356 0.262945
H79   H     H_    0.970153 0.085102 0.860080 0.241099
H80   H     H_    0.014692 0.086767 0.935733 0.227710
N31   N     N_2   0.540284 0.613130 0.099198 -0.281886
H81   H     H_    0.568237 0.624328 0.136448 0.284608
C203  C     C_3   0.512502 0.603039 0.102050 -0.728814
H82   H     H_    0.501201 0.628785 0.105410 0.263580
H83   H     H_    0.529639 0.585164 0.139725 0.239535
H84   H     H_    0.485168 0.586801 0.064065 0.227579
N32   N     N_2   0.459461 0.613284 0.900817 -0.281770
H85   H     H_    0.431360 0.624020 0.863257 0.285074
C204  C     C_3   0.487878 0.604052 0.898790 -0.733434
H86   H     H_    0.498924 0.630184 0.895731 0.262549
H87   H     H_    0.471380 0.586243 0.861265 0.239821
H88   H     H_    0.515337 0.588036 0.936966 0.228653
N33   N     N_R   0.555080 0.805309 0.102328 0.255169
O73   O     O_R   0.585705 0.787101 0.116948 -0.309012
O74   O     O_R   0.547583 0.800216 0.130483 -0.255815
N34   N     N_R   0.437524 0.806572 0.894527 0.250946
O75   O     O_R   0.414257 0.780816 0.886890 -0.312073
O76   O     O_R   0.432313 0.814195 0.853788 -0.262049
N35   N     N_R   0.062373 0.306580 0.105412 0.251449
O77   O     O_R   0.085702 0.280846 0.113124 -0.310315
O78   O     O_R   0.067461 0.314169 0.146056 -0.261480
N36   N     N_R   0.945006 0.305292 0.897604 0.255436
O79   O     O_R   0.914405 0.287023 0.882958 -0.307787
O80   O     O_R   0.952525 0.300255 0.869461 -0.256390
N37   N     N_R   0.559582 0.885022 0.104092 0.240203
O81   O     O_R   0.564605 0.878558 0.144894 -0.293980
O82   O     O_R   0.584401 0.908755 0.112051 -0.400993
N38   N     N_R   0.440137 0.886482 0.895956 0.246899
O83   O     O_R   0.447017 0.892722 0.867262 -0.299631
O84   O     O_R   0.408810 0.903051 0.881312 -0.393547
N39   N     N_R   0.059780 0.386490 0.104023 0.247245
O85   O     O_R   0.052880 0.392657 0.132712 -0.300912
O86   O     O_R   0.091059 0.403160 0.118664 -0.392655
N40   N     N_R   0.940522 0.385008 0.895867 0.240526
O87   O     O_R   0.935617 0.378570 0.855159 -0.294831
O88   O     O_R   0.915644 0.408724 0.887824 -0.401729
N41   N     N_2   0.945835 0.806324 0.995563 -0.255126
H89   H     H_    0.931778 0.782872 0.969908 0.232427
C205  C     C_3   0.963616 0.799049 0.050095 -0.670918
H90   H     H_    0.990994 0.779803 0.074988 0.220864
H91   H     H_    0.939621 0.785551 0.044333 0.236801
H92   H     H_    0.973628 0.825807 0.073640 0.270296
N42   N     N_2   0.054252 0.806190 0.004911 -0.255105
H93   H     H_    0.068359 0.782807 0.030689 0.232418
C206  C     C_3   0.036458 0.798734 0.950401 -0.670896
H94   H     H_    0.009121 0.779455 0.925628 0.220768
H95   H     H_    0.060466 0.785199 0.956207 0.236772
H96   H     H_    0.026380 0.825419 0.926708 0.270452
N43   N     N_2   0.497371 0.306938 0.066777 -0.251767
H97   H     H_    0.514247 0.282162 0.084414 0.234409
C207  C     C_3   0.455413 0.302820 0.039829 -0.679422
H98   H     H_    0.435786 0.285773 0.000726 0.215142
H99   H     H_    0.440628 0.330856 0.029217 0.271193
H100  H     H_    0.456852 0.288355 0.068964 0.242334
N44   N     N_2   0.502673 0.306928 0.933168 -0.251772
H101  H     H_    0.485779 0.282163 0.915492 0.234433
C208  C     C_3   0.544637 0.302774 0.960143 -0.678740
H102  H     H_    0.564233 0.285707 0.999210 0.215055
H103  H     H_    0.559455 0.330797 0.970822 0.271262
H104  H     H_    0.543203 0.288312 0.930999 0.242402
N45   N     N_2   0.280136 0.942817 0.733139 -0.285959
H105  H     H_    0.304687 0.928227 0.769706 0.286210
C209  C     C_3   0.249377 0.918328 0.685150 -0.664733
H106  H     H_    0.265050 0.900302 0.679476 0.255521
H107  H     H_    0.224648 0.934903 0.646045 0.224341
H108  H     H_    0.234744 0.899826 0.692013 0.274280
N46   N     N_2   0.719873 0.945204 0.269517 -0.286821
H109  H     H_    0.695319 0.930053 0.233655 0.284223
C210  C     C_3   0.750640 0.921571 0.318644 -0.667794
H110  H     H_    0.734978 0.904603 0.325169 0.254758
H111  H     H_    0.775382 0.938817 0.356944 0.224725
H112  H     H_    0.765258 0.902048 0.312662 0.274575
N47   N     N_2   0.780085 0.447622 0.727912 -0.287463
H113  H     H_    0.804612 0.431934 0.763029 0.283578
C211  C     C_3   0.749287 0.424901 0.677660 -0.668435
H114  H     H_    0.764928 0.408952 0.670345 0.254378
H115  H     H_    0.724573 0.442784 0.640209 0.224694
H116  H     H_    0.734634 0.404468 0.682666 0.274932
N48   N     N_2   0.219945 0.448194 0.272730 -0.287311
H117  H     H_    0.195430 0.432361 0.237808 0.285366
C212  C     C_3   0.250758 0.425733 0.323262 -0.667523
H118  H     H_    0.235126 0.410067 0.330772 0.254532
H119  H     H_    0.275460 0.443787 0.360492 0.224399
H120  H     H_    0.265424 0.405062 0.318510 0.275005
N49   N     N_R   0.947451 0.885646 0.999028 0.228256
O89   O     O_R   0.907847 0.877395 0.962839 -0.347572
O90   O     O_R   0.964139 0.910100 0.038550 -0.431868
N50   N     N_R   0.052419 0.885493 0.000916 0.227808
O91   O     O_R   0.092046 0.877341 0.037091 -0.348314
O92   O     O_R   0.035561 0.909719 0.961104 -0.433819
N51   N     N_R   0.499932 0.386431 0.069637 0.210323
O93   O     O_R   0.472161 0.412454 0.048528 -0.434024
O94   O     O_R   0.526014 0.376937 0.122259 -0.336592
N52   N     N_R   0.500179 0.386432 0.930433 0.210038
O95   O     O_R   0.527973 0.412443 0.951617 -0.432409
O96   O     O_R   0.474128 0.376950 0.877805 -0.336398
N53   N     N_2   0.446321 0.193658 0.996266 -0.253558
H121  H     H_    0.459649 0.217093 0.021898 0.232958
C213  C     C_3   0.404929 0.200987 0.939897 -0.680664
H122  H     H_    0.406994 0.220207 0.917319 0.221298
H123  H     H_    0.385284 0.214537 0.942264 0.237871
H124  H     H_    0.389550 0.174246 0.915906 0.265562
N54   N     N_2   0.553732 0.193573 0.003755 -0.253517
H125  H     H_    0.540408 0.216988 0.978103 0.232977
C214  C     C_3   0.595120 0.200925 0.060122 -0.680362
H126  H     H_    0.593049 0.220185 0.082678 0.221231
H127  H     H_    0.614770 0.214437 0.057754 0.238006
H128  H     H_    0.610499 0.174197 0.084137 0.265553
N55   N     N_2   0.923007 0.692931 0.930120 -0.252820
H129  H     H_    0.921036 0.717662 0.913023 0.233485
C215  C     C_3   0.909094 0.697161 0.954767 -0.685553
H130  H     H_    0.932001 0.714306 0.993907 0.217389
H131  H     H_    0.905500 0.669167 0.964776 0.272413
H132  H     H_    0.878177 0.711582 0.924352 0.240112
N56   N     N_2   0.077076 0.692896 0.070281 -0.252852
H133  H     H_    0.079056 0.717611 0.087434 0.233516
C216  C     C_3   0.091014 0.697156 0.045673 -0.685804
H134  H     H_    0.068114 0.714311 0.006556 0.217435
H135  H     H_    0.094620 0.669173 0.035633 0.272417
H136  H     H_    0.121929 0.711578 0.076126 0.240118
N57   N     N_R   0.444168 0.114390 0.992845 0.232931
O97   O     O_R   0.441625 0.122683 0.025938 -0.337864
O98   O     O_R   0.418085 0.090056 0.952500 -0.427804
N58   N     N_R   0.555897 0.114309 0.007262 0.232899
O99   O     O_R   0.558449 0.122539 0.974172 -0.337348
O100  O     O_R   0.581975 0.089997 0.047629 -0.428860
N59   N     N_R   0.922488 0.613458 0.927320 0.203981
O101  O     O_R   0.916724 0.587692 0.947085 -0.423419
O102  O     O_R   0.891343 0.622914 0.874455 -0.371580
N60   N     N_R   0.077536 0.613415 0.072787 0.204155
O103  O     O_R   0.083272 0.587674 0.052942 -0.422509
O104  O     O_R   0.108691 0.622815 0.125683 -0.371231
N61   N     N_2   0.279707 0.068475 0.755346 -0.300250
H137  H     H_    0.304235 0.078136 0.796152 0.246533
C217  C     C_3   0.248303 0.097036 0.717066 -0.720909
H138  H     H_    0.263490 0.122313 0.719874 0.243509
H139  H     H_    0.232806 0.105238 0.728392 0.236927
H140  H     H_    0.224332 0.086651 0.672935 0.268584
N62   N     N_2   0.720300 0.069631 0.241394 -0.300503
H141  H     H_    0.695770 0.078499 0.200150 0.247479
C218  C     C_3   0.751704 0.098489 0.278316 -0.719461
H142  H     H_    0.736515 0.124334 0.274297 0.243240
H143  H     H_    0.767201 0.105390 0.266634 0.237625
H144  H     H_    0.775672 0.089086 0.322915 0.268612
N63   N     N_2   0.779878 0.570579 0.762068 -0.289088
H145  H     H_    0.804454 0.578602 0.803733 0.268424
C219  C     C_3   0.748573 0.599745 0.726614 -0.693777
H146  H     H_    0.763849 0.626033 0.731942 0.253649
H147  H     H_    0.733107 0.605429 0.738628 0.232743
H148  H     H_    0.724568 0.591367 0.681569 0.263314
N64   N     N_2   0.220064 0.570712 0.237059 -0.288730
H149  H     H_    0.195483 0.578507 0.195295 0.268347
C220  C     C_3   0.251346 0.599947 0.272150 -0.693521
H150  H     H_    0.236047 0.626349 0.266491 0.253694
H151  H     H_    0.266811 0.605294 0.260072 0.232680
H152  H     H_    0.275355 0.591846 0.317298 0.263296
N65   N     N_2   0.280450 0.986245 0.852688 -0.272153
H153  H     H_    0.304976 0.003924 0.884002 0.242926
C221  C     C_3   0.249295 0.983906 0.851051 -0.633295
H154  H     H_    0.264753 0.975924 0.893363 0.239678
H155  H     H_    0.225449 0.962154 0.820421 0.277314
H156  H     H_    0.233604 0.011600 0.839188 0.222447
N66   N     N_2   0.719556 0.982849 0.148044 -0.272518
H157  H     H_    0.695032 0.000184 0.115903 0.242635
C222  C     C_3   0.750713 0.979088 0.149828 -0.629925
H158  H     H_    0.735256 0.969824 0.107924 0.239680
H159  H     H_    0.774556 0.957685 0.181478 0.277127
H160  H     H_    0.766406 0.006565 0.160390 0.223859
N67   N     N_2   0.780433 0.479641 0.851052 -0.272248
H161  H     H_    0.804976 0.496581 0.884019 0.238666
C223  C     C_3   0.749269 0.474562 0.849051 -0.638962
H162  H     H_    0.764713 0.464075 0.890480 0.238705
H163  H     H_    0.725403 0.453564 0.816383 0.277993
H164  H     H_    0.733605 0.501788 0.839800 0.221419
N68   N     N_2   0.219583 0.478673 0.149215 -0.272172
H165  H     H_    0.195028 0.495493 0.116038 0.238386
C224  C     C_3   0.250752 0.473243 0.151284 -0.639183
H166  H     H_    0.235317 0.462421 0.109988 0.238682
H167  H     H_    0.274632 0.452370 0.184213 0.277991
H168  H     H_    0.266397 0.500394 0.160197 0.221334
N69   N     N_R   0.222145 0.929356 0.748321 0.205297
O105  O     O_R   0.249583 0.904145 0.785721 -0.341774
O106  O     O_R   0.182332 0.921754 0.711067 -0.377076
N70   N     N_R   0.777853 0.928233 0.255041 0.205285
O107  O     O_R   0.750412 0.902577 0.218835 -0.341501
O108  O     O_R   0.817665 0.920509 0.292669 -0.377304
N71   N     N_R   0.722100 0.427385 0.741502 0.205134
O109  O     O_R   0.749522 0.401337 0.776480 -0.340355
O110  O     O_R   0.682283 0.419589 0.703485 -0.378322
N72   N     N_R   0.277952 0.427095 0.259411 0.205100
O111  O     O_R   0.250550 0.400939 0.224757 -0.338941
O112  O     O_R   0.317775 0.419297 0.297533 -0.378498
N73   N     N_2   0.936556 0.037711 0.132978 -0.316004
H169  H     H_    0.906737 0.029873 0.095229 0.239792
C225  C     C_3   0.940561 0.077911 0.142614 -0.781689
H170  H     H_    0.937477 0.093025 0.112273 0.242348
H171  H     H_    0.971467 0.084780 0.186204 0.255524
H172  H     H_    0.915497 0.087806 0.136904 0.250397
N74   N     N_2   0.064583 0.035680 0.868015 -0.300992
H173  H     H_    0.094108 0.026990 0.905468 0.237629
C226  C     C_3   0.062042 0.075954 0.859755 -0.745494
H174  H     H_    0.087510 0.085048 0.865910 0.250156
H175  H     H_    0.065605 0.091054 0.890547 0.232126
H176  H     H_    0.031420 0.083677 0.816380 0.254557
N75   N     N_2   0.435799 0.535873 0.132449 -0.300787
H177  H     H_    0.406194 0.527369 0.094948 0.237357
C227  C     C_3   0.438674 0.576139 0.141014 -0.747918
H178  H     H_    0.435214 0.591223 0.110318 0.232059
H179  H     H_    0.469372 0.583673 0.184436 0.254796
H180  H     H_    0.413296 0.585431 0.134957 0.250020
N76   N     N_2   0.563442 0.537452 0.867013 -0.300155
H181  H     H_    0.593242 0.529513 0.904702 0.237435
C228  C     C_3   0.559568 0.577679 0.857686 -0.749346
H182  H     H_    0.584861 0.587610 0.863896 0.249668
H183  H     H_    0.562410 0.592681 0.887880 0.231803
H184  H     H_    0.528788 0.584638 0.814019 0.254606
N77   N     N_2   0.927529 0.025322 0.044576 -0.309314
H185  H     H_    0.914090 0.050289 0.039752 0.228530
C229  C     C_3   0.897532 0.994759 0.012115 -0.643143
H186  H     H_    0.885598 0.987140 0.028555 0.212374
H187  H     H_    0.912101 0.969462 0.013717 0.293873
H188  H     H_    0.870639 0.003576 0.967420 0.233232
N78   N     N_2   0.073238 0.023359 0.956043 -0.309106
H189  H     H_    0.087491 0.047917 0.961587 0.227513
C230  C     C_3   0.102217 0.992028 0.987614 -0.639851
H190  H     H_    0.113759 0.983850 0.970800 0.212453
H191  H     H_    0.086872 0.967258 0.985490 0.295661
H192  H     H_    0.129473 0.000264 0.032511 0.232961
N79   N     N_2   0.426967 0.523655 0.044230 -0.304230
H193  H     H_    0.412881 0.548277 0.038914 0.227945
C231  C     C_3   0.397784 0.492480 0.012410 -0.666500
H194  H     H_    0.386150 0.484384 0.029117 0.213880
H195  H     H_    0.412987 0.467612 0.014401 0.286724
H196  H     H_    0.370607 0.500860 0.967567 0.230941
N80   N     N_2   0.572502 0.525080 0.955421 -0.304702
H197  H     H_    0.586002 0.550009 0.960298 0.227755
C232  C     C_3   0.602425 0.494462 0.987831 -0.667328
H198  H     H_    0.614375 0.486807 0.971415 0.213927
H199  H     H_    0.587778 0.469198 0.986134 0.285392
H200  H     H_    0.629319 0.503242 0.032552 0.231170

loop_
_geom_bond_atom_site_label_1
_geom_bond_atom_site_label_2
_geom_bond_distance
_ccdc_geom_bond_type
N16   O64   1.301187 A    
N39   O85   1.300678 A    
C185  H11   1.109665 S    
C105  C109  1.406177 A    
C198  H62   1.111010 S    
C17   C49   1.191435 T    
C167  C169  1.427127 S    
N65   H153  1.030869 S    
O28   Zn7   1.998204 S    
O48   C128  1.275643 A    
C189  H26   1.110611 S    
C160  C164  1.402690 A    
C209  H106  1.109994 S    
C201  H76   1.110863 S    
N65   C221  1.445406 S    
C106  N22   1.426840 S    
C173  N53   1.425781 S    
N19   H49   1.030515 S    
C191  H35   1.110366 S    
N73   H169  1.029444 S    
C218  H144  1.109893 S    
C107  C111  1.406228 A    
N28   O71   1.300723 A    
C173  C177  1.402198 A    
C174  C183  1.406586 A    
O37   C123  1.282660 A    
N32   C204  1.446968 S    
O28   C118  1.275656 A    
C63   C67   1.415096 A    
N31   C203  1.446965 S    
C71   H7    1.083360 S    
C215  H131  1.110810 S    
C113  C153  1.461792 S    
N4    H21   1.030505 S    
C6    C18   1.411279 S    
C9    C13   1.539502 S    
C188  H24   1.109477 S    
C178  N58   1.438097 S    
C203  H83   1.110433 S    
O22   Zn6   1.998414 S    
C11   C39   1.543536 S    
O16   C8    1.275191 A    
C102  N18   1.426544 S    
C217  H138  1.110125 S    
N26   O68   1.300876 A    
N70   O107  1.300280 A    
C222  H159  1.109757 S    
C34   N66   1.447238 S    
C174  N54   1.425793 S    
C11   N47   1.448699 S    
C160  C168  1.408379 A    
O25   C115  1.275586 A    
O4    C4    1.281790 A    
O21   C115  1.275045 A    
O17   C113  1.278361 A    
C200  H72   1.110541 S    
O11   C7    1.275225 A    
N80   C232  1.448489 S    
C91   C111  1.404912 A    
C132  C140  1.406165 A    
C29   C49   1.442657 S    
N78   C230  1.448438 S    
C149  N37   1.438034 S    
C102  C106  1.409718 A    
C31   C51   1.442791 S    
C131  N27   1.434909 S    
C180  C182  1.409535 A    
O38   Zn10  2.002614 S    
C23   C55   1.191696 T    
C101  N17   1.426582 S    
C14   C30   1.545450 S    
C47   N63   1.447434 S    
C95   N15   1.437730 S    
N46   H109  1.030866 S    
O46   C127  1.278376 A    
N27   O69   1.300685 A    
O33   Zn9   2.003140 S    
C62   C66   1.415438 A    
C160  N44   1.426515 S    
C69   C73   1.394500 A    
N57   O98   1.301259 A    
C10   C14   1.539471 S    
C206  H96   1.111033 S    
O41   Zn10  2.004441 S    
O16   Zn4   1.998258 S    
O36   Zn12  2.003164 S    
N47   H113  1.030865 S    
C40   C56   1.443898 S    
O13   C5    1.275280 A    
O7    Zn4   2.001081 S    
C130  N26   1.434920 S    
N14   O59   1.300635 A    
C60   N76   1.426432 S    
C103  N19   1.426544 S    
C208  H104  1.110287 S    
C22   C116  1.412058 S    
C207  H98   1.111493 S    
C207  H99   1.110815 S    
C26   N70   1.457223 S    
C32   C52   1.442816 S    
O42   Zn9   2.004441 S    
C227  H179  1.110309 S    
O43   Zn12  2.004441 S    
N22   H61   1.030193 S    
N50   O92   1.301134 A    
C231  H196  1.110159 S    
C143  C155  1.428146 S    
C217  H140  1.109892 S    
C164  C166  1.409124 A    
O9    C5    1.275039 A    
N51   O94   1.301162 A    
C196  H56   1.110187 S    
C232  H198  1.109956 S    
C101  C105  1.409639 A    
C87   C111  1.429283 S    
C198  H64   1.110542 S    
N53   C213  1.445978 S    
C25   N69   1.457220 S    
O8    Zn4   2.001393 S    
C85   C109  1.429404 S    
C204  H88   1.110860 S    
N52   O95   1.300687 A    
C201  H74   1.111326 S    
C44   C48   1.550155 S    
N48   H117  1.030869 S    
C61   N77   1.425358 S    
C186  H15   1.109666 S    
C108  N24   1.426842 S    
O38   C124  1.283038 A    
C72   C76   1.394553 A    
O43   C125  1.280307 A    
O3    Zn2   2.003078 S    
C60   C64   1.410979 A    
N2    C186  1.445564 S    
C16   C48   1.536366 S    
C4    C100  1.462545 S    
C91   C95   1.404701 A    
C202  H78   1.111300 S    
C30   C50   1.442618 S    
C179  N59   1.438845 S    
C212  H119  1.108225 S    
C230  H190  1.109944 S    
N8    O56   1.301588 A    
O40   Zn12  2.002614 S    
N34   O76   1.300723 A    
N37   O82   1.301239 A    
C163  C166  1.409096 A    
N43   H97   1.031149 S    
N40   O88   1.301239 A    
C9    N45   1.448727 S    
O40   C126  1.282624 A    
C97   C101  1.411127 A    
C28   C32   1.544634 S    
C70   C74   1.394493 A    
C213  H122  1.111466 S    
N58   O100  1.301253 A    
C223  H164  1.111075 S    
C122  C138  1.456167 S    
C158  N42   1.425769 S    
C98   C102  1.410971 A    
N9    H25   1.031335 S    
C75   C79   1.407830 A    
N75   H177  1.029489 S    
C90   C110  1.404919 A    
O19   Zn7   2.003143 S    
Zn7   O31   2.003201 S    
O42   C124  1.280267 A    
C136  N32   1.426706 S    
C76   N8    1.442268 S    
N79   C231  1.448427 S    
C159  C163  1.402615 A    
N15   O62   1.301187 A    
N37   O81   1.300695 A    
C187  H19   1.109665 S    
C35   C39   1.538880 S    
C197  H58   1.111044 S    
C173  C183  1.406627 A    
O3    C3    1.281712 A    
C28   C36   1.534125 S    
C14   C46   1.536251 S    
C21   C53   1.191796 T    
C228  H182  1.110072 S    
C197  H60   1.110592 S    
N10   C190  1.447691 S    
C226  H174  1.110090 S    
C93   C97   1.411476 A    
N39   O86   1.300744 A    
N72   O112  1.300136 A    
C12   C16   1.539453 S    
N34   O75   1.301264 A    
C217  H139  1.111029 S    
C211  H115  1.108221 S    
N1    H9    1.030445 S    
C187  H20   1.109476 S    
C68   C126  1.472306 S    
N13   O58   1.301283 A    
C203  H82   1.111298 S    
C68   C72   1.401907 A    
C208  H103  1.110815 S    
C90   C94   1.404749 A    
C37   C53   1.444040 S    
N17   C193  1.447718 S    
C232  H200  1.110166 S    
C39   C47   1.541187 S    
O5    Zn3   2.001081 S    
C33   C41   1.551256 S    
O17   Zn5   2.003143 S    
N74   H173  1.029471 S    
C41   H1    1.109943 S    
C35   C43   1.551270 S    
C130  C134  1.404488 A    
C36   C44   1.551271 S    
C92   C112  1.404912 A    
C82   C86   1.195338 T    
C16   C32   1.545569 S    
C104  C108  1.409793 A    
C134  N30   1.426338 S    
O26   Zn5   1.998204 S    
C25   C33   1.534149 S    
C145  N33   1.432916 S    
N5    O49   1.301368 A    
O32   C120  1.277077 A    
C190  H31   1.110313 S    
N50   O91   1.301127 A    
C71   C75   1.394479 A    
N49   O89   1.301128 A    
N36   O80   1.300517 A    
C192  H39   1.110311 S    
C202  H80   1.110877 S    
C57   C77   1.407637 A    
N55   C215  1.446310 S    
C42   C46   1.550051 S    
O13   Zn3   1.998232 S    
O26   C116  1.275572 A    
C135  C138  1.407991 A    
C180  N60   1.438868 S    
N6    O51   1.301357 A    
C57   N73   1.426547 S    
C146  C150  1.403226 A    
C230  H192  1.110158 S    
C193  H43   1.110419 S    
C231  H195  1.110436 S    
C158  C162  1.402177 A    
C210  H111  1.108219 S    
C1    C97   1.461768 S    
C216  H135  1.110798 S    
C3    C99   1.462276 S    
O5    C1    1.277678 A    
N63   H145  1.030925 S    
C41   C45   1.550037 S    
C91   N11   1.426582 S    
C221  H155  1.109755 S    
C95   C99   1.411231 A    
C219  H146  1.110147 S    
C15   C47   1.536369 S    
C132  C136  1.404817 A    
O47   C128  1.275563 A    
C177  N57   1.438099 S    
N61   H137  1.030891 S    
C219  H148  1.109903 S    
C229  H187  1.110428 S    
C15   N3    1.448529 S    
C64   N80   1.425359 S    
O15   Zn4   1.998232 S    
N3    C187  1.445584 S    
C27   N71   1.457247 S    
N79   H193  1.030387 S    
C148  N36   1.432937 S    
N38   O83   1.300678 A    
N22   C198  1.446709 S    
C147  N35   1.439212 S    
N20   C196  1.447804 S    
C199  H68   1.110543 S    
N60   O104  1.301220 A    
N56   H133  1.031147 S    
C69   H5    1.083379 S    
C84   C88   1.195473 T    
C228  H184  1.110329 S    
C38   C54   1.444061 S    
C150  C153  1.410309 A    
C144  C156  1.428120 S    
C226  H176  1.110313 S    
N30   C202  1.446950 S    
N45   H105  1.030873 S    
C177  C181  1.413180 A    
C19   C51   1.191512 T    
C20   C52   1.191524 T    
C89   N9    1.424847 S    
C130  C139  1.405899 A    
O14   C6    1.275272 A    
C79   C83   1.428801 S    
C10   C26   1.536303 S    
C148  C152  1.401819 A    
C132  N28   1.435353 S    
C201  H75   1.110482 S    
C176  N56   1.426540 S    
C225  H172  1.110095 S    
N59   O101  1.300713 A    
O1    Zn1   2.003078 S    
C218  H143  1.111024 S    
C120  C182  1.452242 S    
C36   N68   1.447234 S    
Zn10  O46   2.002786 S    
O10   C6    1.275031 A    
N5    O50   1.301565 A    
N33   O73   1.300682 A    
N31   H81   1.029835 S    
C151  C154  1.410335 A    
C128  C166  1.451706 S    
C72   H8    1.083406 S    
C131  C140  1.405919 A    
C188  H23   1.109665 S    
C92   N12   1.426544 S    
C213  H124  1.111067 S    
C58   C78   1.407567 A    
C65   C69   1.402060 A    
C221  H156  1.111074 S    
O45   C127  1.278484 A    
C146  C155  1.407013 A    
C67   C71   1.402095 A    
N44   H101  1.031148 S    
Zn11  O47   2.002808 S    
C195  H52   1.110190 S    
N70   O108  1.300140 A    
C222  H158  1.110148 S    
C214  H128  1.111071 S    
O34   Zn10  2.003164 S    
N51   O93   1.300619 A    
C139  C141  1.427987 S    
C146  N34   1.439245 S    
C205  H91   1.110283 S    
C2    C98   1.462290 S    
C57   C61   1.410997 A    
C185  H10   1.110038 S    
N29   C201  1.446966 S    
C21   C115  1.412013 S    
C178  C181  1.413225 A    
O19   C114  1.278434 A    
C59   C63   1.410904 A    
C18   C50   1.191408 T    
N77   H185  1.030424 S    
C24   C118  1.411850 S    
C62   N78   1.425449 S    
C147  C156  1.406969 A    
C164  N52   1.438713 S    
C46   N62   1.447353 S    
C159  C168  1.408350 A    
N23   C199  1.446706 S    
C174  C178  1.402170 A    
C194  H46   1.110658 S    
Zn6   O30   2.003513 S    
C59   N75   1.426479 S    
C73   N5    1.442359 S    
C200  H70   1.111012 S    
N25   O66   1.300994 A    
C34   C38   1.538963 S    
N57   O97   1.301146 A    
C114  C154  1.461818 S    
C206  H95   1.110283 S    
N7    O54   1.301570 A    
C70   H6    1.083329 S    
C13   C29   1.545487 S    
C141  C144  1.194993 T    
O39   C125  1.282758 A    
N35   O77   1.301261 A    
N14   O60   1.301186 A    
O44   C126  1.280245 A    
C159  N43   1.426531 S    
C77   C81   1.428703 S    
Zn8   O32   2.003513 S    
C108  C112  1.406287 A    
N76   H181  1.029490 S    
O36   C122  1.274874 A    
N69   O106  1.300140 A    
C134  C137  1.408005 A    
N28   O72   1.300992 A    
C199  H66   1.111012 S    
O8    C4    1.277592 A    
C196  H55   1.110419 S    
C96   C100  1.411280 A    
C194  H47   1.110419 S    
N16   O63   1.300637 A    
C67   C125  1.472645 S    
C185  H12   1.109469 S    
N68   H165  1.030866 S    
C198  H63   1.110311 S    
N42   H93   1.031022 S    
C11   C27   1.536237 S    
N53   H121  1.031002 S    
C131  C135  1.404499 A    
N45   C209  1.445904 S    
O18   C113  1.278406 A    
N54   C214  1.445979 S    
N52   O96   1.301161 A    
C44   H4    1.109937 S    
C152  C154  1.411467 A    
N19   C195  1.447796 S    
C42   H2    1.109935 S    
C66   C70   1.402232 A    
C191  H36   1.109875 S    
N47   C211  1.445943 S    
N21   H57   1.030198 S    
O12   Zn2   1.998233 S    
O24   Zn8   1.998414 S    
O35   C122  1.275614 A    
C22   C54   1.191809 T    
C12   N48   1.448707 S    
C29   C41   1.559120 S    
N12   H37   1.030951 S    
C215  H130  1.111484 S    
O1    C1    1.281272 A    
C149  C153  1.411456 A    
O20   C114  1.278347 A    
C32   C44   1.559295 S    
C48   N64   1.447444 S    
O18   Zn6   2.002829 S    
N10   H29   1.030951 S    
N71   O110  1.300134 A    
C33   C37   1.538944 S    
C215  H132  1.110301 S    
C27   C31   1.544607 S    
C34   C42   1.551262 S    
C23   C117  1.411879 S    
N67   H161  1.030866 S    
C157  C161  1.402328 A    
C36   C40   1.538865 S    
C221  H154  1.110148 S    
C107  N23   1.426839 S    
C220  H150  1.110150 S    
C147  C151  1.403192 A    
C186  H16   1.109472 S    
C209  H107  1.108216 S    
C195  H50   1.110660 S    
C33   N65   1.447240 S    
C187  H18   1.110022 S    
C222  H160  1.111075 S    
C26   C34   1.534156 S    
C31   C43   1.559289 S    
N24   C200  1.446703 S    
C64   C68   1.414876 A    
N11   C191  1.447696 S    
N74   C226  1.446225 S    
C9    C37   1.543611 S    
C172  C184  1.427059 S    
C175  C179  1.402705 A    
C223  H163  1.109758 S    
C11   C15   1.539444 S    
C129  C139  1.406161 A    
O23   Zn7   1.998417 S    
C12   C40   1.543520 S    
C65   C123  1.472339 S    
C76   C80   1.407997 A    
N29   H73   1.029668 S    
C96   N16   1.437733 S    
C170  C171  1.193642 T    
C8    C20   1.411462 S    
C61   C65   1.415034 A    
O24   C118  1.274899 A    
C189  H27   1.110444 S    
O30   C119  1.280045 A    
N11   H33   1.030949 S    
C74   N6    1.442363 S    
O6    C2    1.277507 A    
N73   C225  1.446389 S    
O4    Zn2   2.002758 S    
N80   H197  1.030413 S    
N76   C228  1.446227 S    
N69   O105  1.300282 A    
C220  H152  1.109903 S    
O27   Zn8   1.998207 S    
C150  N38   1.432800 S    
C99   C103  1.411035 A    
N42   C206  1.445959 S    
C207  H100  1.110293 S    
C193  H42   1.110683 S    
N18   H45   1.030516 S    
C58   C62   1.411056 A    
N61   C217  1.445344 S    
C227  H180  1.110078 S    
N59   O102  1.301218 A    
N13   O57   1.300495 A    
C12   C28   1.536258 S    
C60   C80   1.407684 A    
N64   H149  1.030927 S    
C168  C170  1.426846 S    
O2    Zn1   2.002758 S    
C133  N29   1.426705 S    
C37   C45   1.541278 S    
O10   Zn1   1.998233 S    
O27   C117  1.275618 A    
N17   H41   1.030550 S    
C232  H199  1.110600 S    
N15   O61   1.300632 A    
C80   C84   1.429044 S    
C5    C17   1.411308 S    
C40   C48   1.541196 S    
C9    C25   1.536331 S    
C229  H186  1.109934 S    
C186  H14   1.110031 S    
C127  C165  1.462222 S    
C121  C137  1.456195 S    
C135  N31   1.426354 S    
O23   C117  1.274953 A    
C231  H194  1.109968 S    
N44   C208  1.446362 S    
O34   C121  1.275610 A    
C203  H84   1.110871 S    
C105  N21   1.426893 S    
N20   H53   1.030516 S    
N56   C216  1.446318 S    
C224  H168  1.111073 S    
C190  H30   1.109893 S    
O12   C8    1.275211 A    
O15   C7    1.275160 A    
N32   H85   1.029666 S    
C211  H114  1.109978 S    
O21   Zn5   1.998417 S    
N38   O84   1.300735 A    
C148  C156  1.404213 A    
N77   C229  1.448520 S    
C13   C45   1.536237 S    
N30   H77   1.029833 S    
N66   C222  1.445408 S    
C43   H3    1.109928 S    
C192  H38   1.109827 S    
O7    C3    1.277520 A    
C202  H79   1.110421 S    
N55   H129  1.031148 S    
C212  H118  1.109983 S    
C175  N55   1.426531 S    
N62   C218  1.445339 S    
C129  N25   1.435346 S    
N64   C220  1.445239 S    
N6    O52   1.301571 A    
C212  H120  1.109520 S    
C103  C107  1.409695 A    
C204  H87   1.110483 S    
C163  N51   1.438655 S    
N8    O55   1.301331 A    
N27   O70   1.300874 A    
N48   C212  1.445948 S    
C93   N13   1.439959 S    
N54   H125  1.031007 S    
O35   Zn11  2.003140 S    
C162  C165  1.412473 A    
C24   C56   1.191691 T    
C216  H134  1.111470 S    
N43   C207  1.446363 S    
C89   C93   1.401778 A    
N66   H157  1.030868 S    
N49   O90   1.301177 A    
N40   O87   1.300688 A    
C38   C46   1.541283 S    
C191  H34   1.110320 S    
C145  C155  1.404205 A    
N58   O99   1.301154 A    
N78   H189  1.030411 S    
C219  H147  1.111010 S    
C129  C133  1.404810 A    
O44   Zn11  2.004441 S    
C25   C29   1.544630 S    
N75   C227  1.446213 S    
N3    H17   1.030494 S    
Zn9   O45   2.002808 S    
C81   C85   1.195267 T    
C205  H92   1.111040 S    
C152  N40   1.438006 S    
C86   C110  1.429350 S    
C35   N67   1.447233 S    
N21   C197  1.446618 S    
C104  N20   1.426541 S    
C161  C165  1.412626 A    
C199  H67   1.110315 S    
O9    Zn1   1.998256 S    
C208  H102  1.111498 S    
C10   N46   1.448714 S    
C100  C104  1.411078 A    
C75   N7    1.442331 S    
C228  H183  1.110942 S    
C194  H48   1.110181 S    
O41   C123  1.280231 A    
C226  H175  1.110912 S    
C73   C77   1.407729 A    
C209  H108  1.109526 S    
C43   C47   1.550171 S    
N68   C224  1.445400 S    
C230  H191  1.110144 S    
O39   Zn11  2.002614 S    
N72   O111  1.300284 A    
N67   C223  1.445401 S    
C171  C183  1.426943 S    
C157  C167  1.406913 A    
C28   N72   1.457251 S    
C90   N10   1.426611 S    
C189  H28   1.110047 S    
C211  H116  1.109515 S    
C227  H178  1.110904 S    
C225  H171  1.110178 S    
C145  C149  1.401811 A    
O11   Zn2   1.998257 S    
C218  H142  1.110127 S    
O37   Zn9   2.002614 S    
C158  C167  1.406863 A    
C225  H170  1.110923 S    
N12   C192  1.447688 S    
C94   C98   1.411260 A    
O29   C119  1.279978 A    
C197  H59   1.110315 S    
N24   H69   1.030192 S    
O22   C116  1.275083 A    
N1    C185  1.445556 S    
O6    Zn3   2.001393 S    
C151  N39   1.432827 S    
N62   H141  1.030894 S    
C176  C180  1.402737 A    
N35   O78   1.300717 A    
C210  H110  1.109984 S    
C213  H123  1.110281 S    
C220  H151  1.111016 S    
N18   C194  1.447779 S    
C133  C137  1.408341 A    
C161  N49   1.438036 S    
C195  H51   1.110421 S    
C136  C138  1.408336 A    
C58   N74   1.426530 S    
O31   C120  1.277125 A    
C214  H127  1.110283 S    
C30   C42   1.559128 S    
C190  H32   1.110363 S    
Zn5   O29   2.003201 S    
C169  C172  1.193766 T    
N33   O74   1.300514 A    
N2    H13   1.030474 S    
O2    C2    1.281736 A    
C39   C55   1.443907 S    
N7    O53   1.301356 A    
N26   O67   1.300684 A    
C27   C35   1.534117 S    
N36   O79   1.300682 A    
C78   C82   1.428880 S    
C192  H40   1.110368 S    
N4    C188  1.445586 S    
O33   C121  1.274894 A    
C175  C184  1.408341 A    
C176  C184  1.408358 A    
O20   Zn8   2.002829 S    
C157  N41   1.425765 S    
C89   C109  1.407485 A    
O14   Zn3   1.998258 S    
C66   C124  1.473085 S    
C223  H162  1.110147 S    
C224  H167  1.109757 S    
C106  C110  1.406280 A    
C193  H44   1.110213 S    
N41   C205  1.445943 S    
N23   H65   1.030194 S    
C26   C30   1.544591 S    
C94   N14   1.437724 S    
C210  H112  1.109523 S    
C119  C181  1.463082 S    
C216  H136  1.110300 S    
O25   Zn6   1.998207 S    
C13   N1    1.448559 S    
N71   O109  1.300283 A    
N63   C219  1.445241 S    
N25   O65   1.300723 A    
C15   C31   1.545564 S    
C206  H94   1.111463 S    
C7    C19   1.411441 S    
C10   C38   1.543633 S    
C162  N50   1.437858 S    
N9    C189  1.447666 S    
C16   N4    1.448532 S    
C59   C79   1.407607 A    
C14   N2    1.448558 S    
C74   C78   1.407724 A    
C229  H188  1.110149 S    
C204  H86   1.111329 S    
C142  C143  1.195012 T    
C224  H166  1.110149 S    
C63   N79   1.425373 S    
Zn12  O48   2.002786 S    
C45   N61   1.447345 S    
C205  H90   1.111469 S    
C140  C142  1.428012 S    
N41   H89   1.031024 S    
N46   C210  1.445927 S    
N60   O103  1.300715 A    
C83   C87   1.195307 T    
C200  H71   1.110319 S    
C196  H54   1.110666 S    
C214  H126  1.111466 S    
C92   C96   1.404780 A    
C179  C182  1.409528 A    
C88   C112  1.429562 S    
C188  H22   1.110024 S    
