data_mof_unit_48034.cif
_audit_creation_date              2012-12-10T17:31:15-0500
_audit_creation_method            fapswitch 2.2
_symmetry_space_group_name_H-M    P1
_symmetry_Int_Tables_number       1
_space_group_crystal_system       triclinic
_cell_length_a                    11.971301
_cell_length_b                    12.896376
_cell_length_c                    15.414274
_cell_angle_alpha                 87.151318
_cell_angle_beta                  115.872258
_cell_angle_gamma                 93.346787
_cell_volume                      2136.80014371

loop_
_atom_site_label
_atom_site_type_symbol
_atom_type_description
_atom_site_fract_x
_atom_site_fract_y
_atom_site_fract_z
_atom_type_partial_charge
C1    C     C_R   0.477205 0.299405 0.498292 0.896506
C2    C     C_R   0.644669 0.970669 0.490390 -0.217593
C3    C     C_R   0.362606 0.136839 0.506095 -0.198431
C4    C     C_R   0.637380 0.863178 0.493879 -0.202305
C5    C     C_R   0.556800 0.132765 0.491364 -0.275189
C6    C     C_R   0.443178 0.867251 0.508598 -0.277989
C7    C     C_R   0.550680 0.026028 0.495295 0.186240
C8    C     C_R   0.449294 0.973989 0.504660 0.185027
C9    C     C_R   0.002974 0.600589 0.411270 -0.328871
C10   C     C_R   0.997335 0.399805 0.589259 -0.337959
C11   C     C_R   0.123837 0.590760 0.419912 0.043300
C12   C     C_R   0.522793 0.700600 0.501704 0.883443
C13   C     C_R   0.876221 0.409339 0.580236 0.031154
C14   C     C_R   0.161163 0.456507 0.538809 -0.059098
C15   C     C_R   0.839229 0.543946 0.461738 -0.066837
C16   C     C_R   0.577289 0.495716 0.681493 0.910353
C17   C     C_R   0.422902 0.505991 0.318445 0.907054
C18   C     C_R   0.040202 0.463622 0.532616 0.091250
C19   C     C_R   0.960150 0.536750 0.467911 0.089960
C20   C     C_R   0.623443 0.478992 0.786702 -0.197957
C21   C     C_R   0.372521 0.496206 0.212813 -0.201609
C22   C     C_R   0.770602 0.405399 0.939835 -0.195200
C23   C     C_R   0.626357 0.387533 0.108365 -0.237129
C24   C     C_R   0.204901 0.449593 0.057478 -0.206043
C25   C     C_R   0.743324 0.441658 0.846270 0.396018
C26   C     C_R   0.243580 0.479382 0.152417 0.398713
C27   C     C_R   0.537112 0.486015 0.825157 -0.004372
C28   C     C_R   0.458631 0.489347 0.174083 0.004093
C29   C     C_R   0.559053 0.435500 0.913832 0.034187
C30   C     C_R   0.420351 0.444864 0.083461 0.037741
C31   C     C_R   0.680541 0.403771 0.974639 0.052306
C32   C     C_R   0.291788 0.434511 0.021927 0.052928
C33   C     C_R   0.467327 0.425235 0.948186 0.089658
C34   C     C_R   0.339260 0.413588 0.886964 -0.240096
C35   C     C_R   0.506050 0.420863 0.048172 0.087151
C36   C     C_R   0.711461 0.375224 0.070855 -0.183128
C37   C     C_R   0.252321 0.413965 0.924438 -0.187896
C38   C     C_R   0.536072 0.811872 0.502236 -0.053318
C39   C     C_R   0.463916 0.188141 0.497742 -0.053971
C40   C     C_R   0.355307 0.029350 0.509569 -0.217948
H1    H     H_    0.803244 0.348863 0.118213 0.162031
H2    H     H_    0.306165 0.398000 0.811383 0.142270
H3    H     H_    0.365160 0.827568 0.515929 0.162859
H4    H     H_    0.634818 0.172449 0.484033 0.161136
H5    H     H_    0.709539 0.820496 0.488833 0.160658
H6    H     H_    0.290453 0.179522 0.511150 0.160782
H7    H     H_    0.277151 0.989703 0.516566 0.139739
H8    H     H_    0.722823 0.010318 0.483392 0.139662
H9    H     H_    0.777105 0.600475 0.412883 0.134552
H10   H     H_    0.223675 0.400505 0.588193 0.118619
H11   H     H_    0.647374 0.497285 0.258586 0.200076
H12   H     H_    0.154344 0.404010 0.876309 0.167868
H13   H     H_    0.595323 0.587614 0.165940 0.192447
H14   H     H_    0.356560 0.525763 0.740565 0.199979
H15   H     H_    0.436315 0.603457 0.837105 0.195236
H16   H     H_    0.175618 0.558968 0.218825 0.336675
H17   H     H_    0.835632 0.508438 0.782232 0.343136
H18   H     H_    0.843795 0.359961 0.624085 0.155829
H19   H     H_    0.156201 0.640119 0.376019 0.121288
H20   H     H_    0.943598 0.657552 0.360675 0.145712
H21   H     H_    0.056800 0.343020 0.640057 0.144313
H22   H     H_    0.863421 0.380140 0.985966 0.174699
H23   H     H_    0.106276 0.440433 0.010833 0.184136
H24   H     H_    0.652745 0.365115 0.182948 0.152301
N1    N     N_R   0.799120 0.480200 0.517090 -0.100411
N2    N     N_R   0.200880 0.519800 0.482910 -0.093049
N3    N     N_3   0.575914 0.546846 0.218471 -0.449011
N4    N     N_3   0.442411 0.561598 0.783040 -0.434699
O1    O     O_R   0.580150 0.341050 0.504560 -0.626442
O2    O     O_3   0.836887 0.441619 0.817129 -0.779324
O3    O     O_R   0.419850 0.658950 0.495440 -0.629893
O4    O     O_R   0.388090 0.353760 0.493600 -0.620023
O5    O     O_R   0.611910 0.646240 0.506400 -0.626575
O6    O     O_R   0.650890 0.490020 0.640860 -0.610444
O7    O     O_R   0.349110 0.509980 0.359140 -0.607243
O8    O     O_R   0.458830 0.502730 0.629890 -0.599587
O9    O     O_R   0.541170 0.497270 0.370110 -0.596992
O10   O     O_3   0.152637 0.494167 0.181982 -0.758584
Zn1   Zn    Zn3+2 0.628240 0.491510 0.507320 0.947919
Zn2   Zn    Zn3+2 0.371760 0.508490 0.492680 0.954214

loop_
_geom_bond_atom_site_label_1
_geom_bond_atom_site_label_2
_ccdc_geom_bond_type
C40   H7    S    
C21   C26   A    
N1    Zn1   S    
C27   C29   A    
C34   C37   A    
C14   C18   A    
C2    C7    A    
C34   H2    S    
H15   N4    S    
C7    C8    A    
C13   N1    A    
C15   C19   A    
C26   O10   S    
C30   C35   A    
C16   O6    A    
C24   C26   A    
H14   N4    S    
C20   C25   A    
C15   N1    A    
C29   C33   A    
H16   O10   S    
C18   C19   A    
C27   N4    S    
C9    C19   A    
C22   C25   A    
C6    C38   A    
H17   O2    S    
O7    Zn2   S    
C11   N2    A    
C3    C39   A    
C12   O5    A    
C36   H1    S    
C11   H19   S    
O3    Zn2   S    
C4    H5    S    
O9    Zn1   S    
C14   N2    A    
C1    O4    A    
C22   C31   A    
C28   N3    S    
C5    C7    A    
C37   H12   S    
C6    C8    A    
C13   H18   S    
C2    H8    S    
C1    O1    A    
C2    C4    A    
C24   C32   A    
C22   H22   S    
C16   C20   S    
C17   O9    A    
C33   C34   A    
O5    Zn1   S    
H11   N3    S    
C32   C37   A    
C9    C11   A    
C23   H24   S    
C5    H4    S    
C4    C38   A    
C3    C40   A    
C24   H23   S    
C23   C35   A    
O6    Zn1   S    
C5    C39   A    
O1    Zn1   S    
C10   H21   S    
C16   O8    A    
C12   O3    A    
O8    Zn2   S    
C10   C13   A    
C20   C27   A    
N2    Zn2   S    
C3    H6    S    
C6    H3    S    
C9    H20   S    
C28   C30   A    
O4    Zn2   S    
C30   C32   A    
C14   H10   S    
C10   C18   A    
C33   C35   A    
C15   H9    S    
C12   C38   S    
H13   N3    S    
C17   C21   S    
C1    C39   S    
C21   C28   A    
C29   C31   A    
C23   C36   A    
C17   O7    A    
C31   C36   A    
C25   O2    S    
C8    C40   A    
