data_mof_unit_45877.cif
_audit_creation_date              2012-12-10T20:39:07-0500
_audit_creation_method            fapswitch 2.2
_symmetry_space_group_name_H-M    P1
_symmetry_Int_Tables_number       1
_space_group_crystal_system       triclinic
_cell_length_a                    18.849374
_cell_length_b                    10.714589
_cell_length_c                    9.911659
_cell_angle_alpha                 89.014792
_cell_angle_beta                  90.835763
_cell_angle_gamma                 91.694508
_cell_volume                      2000.42163873

loop_
_atom_site_label
_atom_site_type_symbol
_atom_type_description
_atom_site_fract_x
_atom_site_fract_y
_atom_site_fract_z
_atom_type_partial_charge
C1    C     C_R   0.502918 0.259829 0.500661 0.910502
C2    C     C_R   0.289993 0.534989 0.498326 -0.068278
C3    C     C_R   0.928647 0.644008 0.516888 0.337404
C4    C     C_R   0.070851 0.622212 0.503920 0.326089
C5    C     C_R   0.822944 0.544037 0.619210 -0.147613
C6    C     C_R   0.752873 0.501551 0.611441 -0.174198
C7    C     C_R   0.710139 0.537958 0.502683 -0.042658
C8    C     C_R   0.736797 0.621823 0.404648 -0.203067
C9    C     C_R   0.806471 0.669515 0.413701 -0.018404
C10   C     C_R   0.851189 0.625475 0.519434 0.000304
C11   C     C_R   0.528955 0.061549 0.618509 0.097257
C12   C     C_R   0.365237 0.506440 0.499319 0.897821
C13   C     C_R   0.516200 0.128696 0.499357 -0.101839
C14   C     C_R   0.519566 0.067244 0.375356 -0.161543
C15   C     C_R   0.519728 0.938077 0.373906 -0.213975
C16   C     C_R   0.516747 0.871370 0.496579 -0.111417
C17   C     C_R   0.528759 0.933770 0.616937 0.199680
C18   C     C_3   0.491308 0.919892 0.748029 -0.410351
C19   C     C_3   0.491716 0.060591 0.750151 -0.508333
C20   C     C_R   0.444317 0.446569 0.071087 0.158376
C21   C     C_R   0.552796 0.557903 0.073689 -0.152164
C22   C     C_R   0.553586 0.558061 0.930602 -0.025517
C23   C     C_R   0.503148 0.739913 0.498889 0.892683
C24   C     C_R   0.443680 0.448390 0.927892 0.193404
C25   C     C_3   0.421140 0.313901 0.923213 -0.373786
C26   C     C_3   0.423505 0.310967 0.077288 -0.347181
C27   C     C_R   0.634899 0.504524 0.500750 0.868358
C28   C     C_R   0.260689 0.591319 0.610101 -0.142661
C29   C     C_R   0.189624 0.620878 0.608850 -0.141977
C30   C     C_R   0.146272 0.594065 0.496210 -0.001804
C31   C     C_R   0.175824 0.537962 0.381966 -0.005133
C32   C     C_R   0.248178 0.513365 0.383434 -0.224793
H1    H     H_    0.292914 0.614257 0.698101 0.197831
H2    H     H_    0.437092 0.876916 0.737618 0.210855
H3    H     H_    0.524985 0.878748 0.829168 0.228160
H4    H     H_    0.437665 0.097962 0.740154 0.243680
H5    H     H_    0.526527 0.098431 0.832097 0.205341
H6    H     H_    0.595569 0.603492 0.129965 0.176564
H7    H     H_    0.463714 0.260705 0.879268 0.140377
H8    H     H_    0.467732 0.254152 0.117394 0.154035
H9    H     H_    0.271694 0.473434 0.296494 0.202868
H10   H     H_    0.855743 0.508864 0.701180 0.173882
H11   H     H_    0.701838 0.655501 0.325038 0.181447
H12   H     H_    0.516505 0.117159 0.279831 0.172078
N1    N     N_R   0.032277 0.648387 0.391188 -0.122050
N2    N     N_R   0.962325 0.657331 0.397328 -0.114756
N3    N     N_R   0.967859 0.624511 0.630684 -0.160352
N4    N     N_R   0.037713 0.614063 0.624350 -0.150117
N5    N     N_R   0.499530 0.499140 0.142800 -0.126764
N6    N     N_R   0.499530 0.499180 0.857150 -0.159254
O1    O     O_R   0.500010 0.316790 0.614690 -0.632384
O2    O     O_R   0.500000 0.316760 0.385350 -0.612850
O3    O     O_R   0.398140 0.500000 0.614710 -0.595816
O4    O     O_R   0.398130 0.499970 0.385370 -0.608749
O5    O     O_R   0.500000 0.683240 0.614650 -0.582506
O6    O     O_R   0.499990 0.683210 0.385310 -0.629743
O7    O     O_R   0.601870 0.500030 0.614630 -0.597995
O8    O     O_R   0.601860 0.500000 0.385290 -0.622677
Zn1   Zn    Zn3+2 0.500000 0.500020 0.653130 0.987790
Zn2   Zn    Zn3+2 0.500000 0.499980 0.346870 0.971076
H13   H     H_    0.516303 0.891534 0.277758 0.179164
C33   C     C_2   0.616179 0.618489 0.866790 0.932822
O9    O     O_2   0.609231 0.696495 0.776967 -0.619278
O10   O     O_R   0.683959 0.592016 0.916669 -0.804558
H14   H     H_    0.722829 0.641612 0.868239 0.355455
C34   C     C_2   0.349640 0.289017 0.856713 1.048830
O11   O     O_2   0.327087 0.181417 0.846528 -0.630461
O12   O     O_R   0.308185 0.387647 0.811657 -0.764238
H15   H     H_    0.261006 0.357850 0.771561 0.353120
C35   C     C_2   0.354680 0.283091 0.149599 0.996343
O13   O     O_2   0.354153 0.209719 0.245418 -0.622729
O14   O     O_R   0.291734 0.337955 0.106430 -0.770652
H16   H     H_    0.248774 0.302986 0.156336 0.350734
H17   H     H_    0.168460 0.664866 0.696657 0.178600
C36   C     C_2   0.132960 0.494994 0.264215 0.917524
O15   O     O_2   0.154316 0.515996 0.149888 -0.582394
O16   O     O_R   0.069924 0.425387 0.283884 -0.777208
H18   H     H_    0.045992 0.400294 0.195776 0.361056
H19   H     H_    0.732240 0.439014 0.689486 0.171488
C37   C     C_2   0.828865 0.768658 0.315370 0.921782
O17   O     O_2   0.871213 0.851423 0.349104 -0.597214
O18   O     O_R   0.799154 0.770215 0.185221 -0.789790
H20   H     H_    0.817812 0.843011 0.128014 0.356445

loop_
_geom_bond_atom_site_label_1
_geom_bond_atom_site_label_2
_ccdc_geom_bond_type
C8    C9    A    
C34   O12   S    
C5    H10   S    
O5    Zn1   S    
C8    H11   S    
C2    C12   S    
C21   N5    A    
O3    Zn1   S    
C7    C8    A    
O4    Zn2   S    
N1    N2    A    
C11   C19   S    
C20   N5    A    
N5    Zn2   S    
N6    Zn1   S    
C28   C29   A    
C19   H4    S    
C4    N4    A    
C5    C6    A    
O7    Zn1   S    
O8    Zn2   S    
C15   C16   A    
C7    C27   S    
C2    C32   A    
C18   C19   S    
C36   O16   S    
C33   O10   S    
O2    Zn2   S    
O12   H15   S    
C21   H6    S    
N3    N4    A    
C16   C17   A    
C32   H9    S    
C35   O13   D    
C19   H5    S    
C18   H3    S    
C12   O3    A    
C22   N6    A    
C34   O11   D    
C13   C14   A    
C4    N1    A    
C24   N6    A    
C20   C24   A    
C23   O6    A    
C24   C25   S    
C37   O18   S    
C27   O7    A    
O14   H16   S    
C29   H17   S    
C25   C26   S    
O16   H18   S    
O6    Zn2   S    
C9    C37   S    
C36   O15   D    
C29   C30   A    
C22   C33   S    
C18   H2    S    
C31   C36   S    
C31   C32   A    
C33   O9    D    
C17   C18   S    
C15   H13   S    
C1    O1    A    
C28   H1    S    
C16   C23   S    
C26   C35   S    
C1    C13   S    
C14   H12   S    
C9    C10   A    
C11   C17   A    
C25   C34   S    
C37   O17   D    
C27   O8    A    
C35   O14   S    
C23   O5    A    
C6    C7    A    
C3    N2    A    
O10   H14   S    
C5    C10   A    
C3    C10   S    
C25   H7    S    
C11   C13   A    
C26   H8    S    
C6    H19   S    
C30   C31   A    
C20   C26   S    
C3    N3    A    
C1    O2    A    
C4    C30   S    
O1    Zn1   S    
O18   H20   S    
C14   C15   A    
C2    C28   A    
C21   C22   A    
C12   O4    A    
