data_mof_unit_21132.cif
_audit_creation_date              2012-12-10T17:21:10-0500
_audit_creation_method            fapswitch 2.2
_symmetry_space_group_name_H-M    P1
_symmetry_Int_Tables_number       1
_space_group_crystal_system       triclinic
_cell_length_a                    10.295232
_cell_length_b                    10.760209
_cell_length_c                    10.791726
_cell_angle_alpha                 91.138046
_cell_angle_beta                  94.667375
_cell_angle_gamma                 80.881805
_cell_volume                      1176.44435606

loop_
_atom_site_label
_atom_site_type_symbol
_atom_type_description
_atom_site_fract_x
_atom_site_fract_y
_atom_site_fract_z
_atom_type_partial_charge
C1    C     C_R   0.445544 0.509317 0.267837 0.834519
C2    C     C_3   0.501440 0.879106 0.487857 -0.132891
C3    C     C_3   0.560586 0.925326 0.619086 0.199312
C4    C     C_3   0.355890 0.951011 0.456863 0.231507
C5    C     C_2   0.417476 0.509269 0.134921 -0.047023
C6    C     C_2   0.500260 0.432260 0.067489 -0.231079
C7    C     C_2   0.580729 0.461881 0.865914 -0.116041
C8    C     C_2   0.483160 0.432609 0.932950 0.135600
C9    C     C_2   0.073368 0.483973 0.498759 0.010619
C10   C     C_2   0.925346 0.510779 0.510452 -0.090553
C11   C     C_R   0.497526 0.259218 0.486148 0.875443
C12   C     C_R   0.554220 0.485028 0.732680 0.959028
C13   C     C_R   0.499090 0.742076 0.494663 0.925323
C14   C     C_3   0.601735 0.053200 0.382634 0.141467
C15   C     C_3   0.591413 0.906401 0.378343 0.507169
C16   C     C_3   0.535885 0.072946 0.616209 -0.182223
C17   C     C_3   0.359895 0.091243 0.430514 0.220567
C18   C     C_3   0.499527 0.121579 0.477874 -0.121385
H1    H     H_    0.584898 0.370880 0.111302 0.135522
H2    H     H_    0.885874 0.584277 0.573359 0.203675
H3    H     H_    0.111740 0.402014 0.446557 0.065811
H4    H     H_    0.882722 0.378429 0.389944 0.148770
H5    H     H_    0.627837 0.107310 0.652529 0.157354
H6    H     H_    0.285094 0.150148 0.482880 0.140597
H7    H     H_    0.313566 0.905871 0.372620 0.101361
N1    N     N_2   0.157300 0.551950 0.551120 0.065601
N2    N     N_2   0.842730 0.448000 0.448950 -0.238240
O1    O     O_R   0.568940 0.489540 0.307530 -0.635096
O2    O     O_R   0.348880 0.522880 0.340350 -0.639968
O3    O     O_R   0.610030 0.298130 0.483570 -0.640216
O4    O     O_R   0.389960 0.331470 0.516390 -0.642297
O5    O     O_R   0.651120 0.477120 0.659650 -0.603754
O6    O     O_R   0.431060 0.510460 0.692470 -0.605971
O7    O     O_R   0.610040 0.668530 0.483610 -0.581393
O8    O     O_R   0.389970 0.701870 0.516430 -0.584797
Zn1   Zn    Zn3+2 0.646940 0.477740 0.478080 0.916192
Zn2   Zn    Zn3+2 0.353060 0.522260 0.521920 0.958451
N3    N     N_3   0.738635 0.068323 0.421567 -0.446917
H8    H     H_    0.757447 0.068242 0.517063 0.201610
H9    H     H_    0.762786 0.151135 0.387341 0.208235
O9    O     O_3   0.277213 0.943247 0.557200 -0.680320
C19   C     C_3   0.147177 0.924827 0.519570 0.168385
H10   H     H_    0.109621 0.889060 0.602054 0.169003
H11   H     H_    0.141883 0.850459 0.446812 0.172112
C20   C     C_3   0.056370 0.048260 0.486141 -0.409295
H12   H     H_    0.964628 0.048252 0.531100 0.194635
H13   H     H_    0.095002 0.131114 0.527678 0.210149
C21   C     C_3   0.025746 0.062784 0.345812 -0.933430
H14   H     H_    0.115197 0.036658 0.295622 0.290131
H15   H     H_    0.979398 0.160690 0.323213 0.241006
H16   H     H_    0.957161 0.999726 0.310447 0.247388
N4    N     N_3   0.439476 0.132365 0.701470 -0.482466
H17   H     H_    0.474095 0.109507 0.793300 0.167386
H18   H     H_    0.346489 0.106698 0.684106 0.232457
N5    N     N_3   0.503775 0.872230 0.724637 -0.461027
H19   H     H_    0.556652 0.890543 0.808147 0.154918
H20   H     H_    0.405930 0.908411 0.736244 0.240326
N6    N     N_3   0.357752 0.409471 0.874990 -0.428163
H21   H     H_    0.293652 0.395331 0.941566 0.203227
H22   H     H_    0.374448 0.325190 0.825723 0.189130
N7    N     N_3   0.708456 0.476781 0.923139 -0.477148
H23   H     H_    0.696260 0.547646 0.990739 0.200164
H24   H     H_    0.751117 0.392462 0.966598 0.184898
N8    N     N_3   0.313212 0.599416 0.078063 -0.451594
H25   H     H_    0.228114 0.594755 0.122929 0.186134
H26   H     H_    0.337896 0.688825 0.096989 0.178481
N9    N     N_3   0.570507 0.107861 0.256883 -0.428725
H27   H     H_    0.564563 0.205599 0.261181 0.178476
H28   H     H_    0.647072 0.076575 0.200402 0.154799
O10   O     O_3   0.101299 0.662949 0.596611 -0.611044
C22   C     C_3   0.132461 0.662784 0.725983 0.196368
H29   H     H_    0.222122 0.707493 0.746838 0.176396
H30   H     H_    0.150390 0.566183 0.766150 0.152090
C23   C     C_3   0.015323 0.738335 0.786685 -0.418861
H31   H     H_    0.988998 0.833489 0.745626 0.219449
H32   H     H_    0.928296 0.689179 0.770392 0.223680
C24   C     C_3   0.045192 0.752418 0.925576 -0.983649
H33   H     H_    0.062556 0.657709 0.967946 0.282801
H34   H     H_    0.959356 0.810403 0.965579 0.266952
H35   H     H_    0.133316 0.799362 0.945626 0.269024
N10   N     N_3   0.531869 0.864393 0.257255 -0.504638
H36   H     H_    0.584793 0.882741 0.183365 0.163379
H37   H     H_    0.439085 0.914078 0.232206 0.199807
O11   O     O_3   0.719471 0.832698 0.404413 -0.593401
C25   C     C_3   0.805398 0.816164 0.307351 0.153496
H38   H     H_    0.791558 0.896772 0.242817 0.086675
H39   H     H_    0.906513 0.809990 0.353703 0.184476
C26   C     C_3   0.796362 0.693115 0.234542 -0.330556
H40   H     H_    0.757093 0.625461 0.291391 0.288826
H41   H     H_    0.728187 0.712081 0.149752 0.189625
C27   C     C_3   0.930476 0.632528 0.194140 -1.025284
H42   H     H_    0.983832 0.705309 0.160775 0.268055
H43   H     H_    0.917002 0.563022 0.118781 0.278337
H44   H     H_    0.991671 0.583879 0.273100 0.283270
N11   N     N_3   0.704324 0.882464 0.635004 -0.415424
H45   H     H_    0.744159 0.921978 0.716002 0.143310
H46   H     H_    0.722872 0.785266 0.649196 0.223547
O12   O     O_3   0.332737 0.109048 0.300144 -0.685547
C28   C     C_3   0.256291 0.225577 0.266891 0.092541
H47   H     H_    0.317212 0.301274 0.279438 0.158614
H48   H     H_    0.169994 0.246897 0.322341 0.144634
C29   C     C_3   0.207451 0.218483 0.129626 -0.322220
H49   H     H_    0.291546 0.219718 0.071612 0.211316
H50   H     H_    0.168935 0.128678 0.110172 0.229295
C30   C     C_3   0.097622 0.326981 0.093435 -1.020324
H51   H     H_    0.009722 0.321408 0.145118 0.264437
H52   H     H_    0.068775 0.322295 0.992253 0.269227
H53   H     H_    0.131958 0.417899 0.114869 0.276404

loop_
_geom_bond_atom_site_label_1
_geom_bond_atom_site_label_2
_ccdc_geom_bond_type
C10   N2    D    
N5    H19   S    
C11   C18   S    
O9    C19   S    
C14   C18   S    
N11   H45   S    
N10   H36   S    
C7    C8    D    
C15   N10   S    
C24   H33   S    
C6    H1    S    
C30   H52   S    
C23   H32   S    
C1    C5    S    
O5    Zn1   S    
O8    Zn2   S    
C13   O8    A    
C5    C6    D    
C24   H35   S    
C27   H43   S    
C4    O9    S    
N6    H22   S    
C29   C30   S    
C20   H13   S    
N7    H24   S    
C2    C13   S    
C7    N7    S    
C8    N6    S    
C3    N5    S    
C21   H16   S    
C11   O3    A    
C10   H2    S    
C23   C24   S    
C1    O1    A    
C14   N9    S    
O10   C22   S    
C9    C10   S    
C21   H15   S    
C11   O4    A    
C12   O5    A    
C29   H49   S    
C19   H11   S    
N10   H37   S    
N4    H18   S    
C9    N1    D    
C4    H7    S    
C24   H34   S    
C7    C12   S    
C30   H53   S    
C17   H6    S    
C23   H31   S    
C25   H39   S    
N9    H27   S    
O11   C25   S    
C27   H42   S    
C22   H30   S    
C6    C8    S    
C20   C21   S    
N6    H21   S    
C25   H38   S    
O6    Zn2   S    
O4    Zn2   S    
C5    N8    S    
N9    H28   S    
C19   C20   S    
N8    H26   S    
C2    C4    S    
C14   N3    S    
C28   H47   S    
C26   C27   S    
C1    O2    A    
C17   C18   S    
C29   H50   S    
C2    C15   S    
C4    C17   S    
C21   H14   S    
C28   H48   S    
C26   H41   S    
C16   H5    S    
H4    N2    S    
N5    H20   S    
N1    O10   S    
C19   H10   S    
N4    H17   S    
C17   O12   S    
C25   C26   S    
C16   N4    S    
C22   C23   S    
N11   H46   S    
N1    Zn2   S    
C15   O11   S    
N2    Zn1   S    
C30   H51   S    
O3    Zn1   S    
N8    H25   S    
C2    C3    S    
C13   O7    A    
C27   H44   S    
N3    H9    S    
C9    H3    S    
N3    H8    S    
O7    Zn1   S    
N7    H23   S    
C20   H12   S    
C22   H29   S    
C28   C29   S    
C26   H40   S    
O1    Zn1   S    
C16   C18   S    
O12   C28   S    
O2    Zn2   S    
C14   C15   S    
C3    N11   S    
C12   O6    A    
C3    C16   S    
