data_mof_unit_55497.cif
_audit_creation_date              2012-12-11T14:47:56-0500
_audit_creation_method            fapswitch 2.2
_symmetry_space_group_name_H-M    P1
_symmetry_Int_Tables_number       1
_space_group_crystal_system       triclinic
_cell_length_a                    11.515866
_cell_length_b                    11.533334
_cell_length_c                    19.550122
_cell_angle_alpha                 90.502632
_cell_angle_beta                  89.780886
_cell_angle_gamma                 60.065308
_cell_volume                      2249.99129583

loop_
_atom_site_label
_atom_site_type_symbol
_atom_type_description
_atom_site_fract_x
_atom_site_fract_y
_atom_site_fract_z
_atom_type_partial_charge
C1    C     C_R   0.640326 0.117486 0.599257 0.546058
C2    C     C_1   0.640809 0.704022 0.667975 0.009169
C3    C     C_1   0.127114 0.198824 0.859313 0.006822
C4    C     C_1   0.171211 0.170390 0.727697 -0.027263
C5    C     C_1   0.150324 0.182309 0.798926 -0.028370
C6    C     C_1   0.194764 0.161083 0.667328 0.009883
C7    C     C_1   0.678948 0.191082 0.860772 0.005557
C8    C     C_1   0.658306 0.167478 0.729040 -0.026642
C9    C     C_1   0.665837 0.180840 0.800352 -0.028076
C10   C     C_1   0.652556 0.150073 0.668639 0.011096
C11   C     C_R   0.494978 0.783743 0.281118 0.232119
C12   C     C_R   0.612317 0.746027 0.598641 0.555811
C13   C     C_R   0.518522 0.751926 0.212447 -0.115285
C14   C     C_R   0.646588 0.703974 0.184414 -0.027137
C15   C     C_R   0.743737 0.717076 0.222094 0.208967
C16   C     C_R   0.717576 0.756635 0.290324 -0.123632
C17   C     C_R   0.597410 0.781315 0.321588 -0.035037
C18   C     C_R   0.234880 0.248711 0.287546 0.224011
C19   C     C_R   0.217737 0.250475 0.217293 0.021174
C20   C     C_R   0.146828 0.192095 0.190285 -0.047519
C21   C     C_R   0.107323 0.118756 0.232085 -0.122539
C22   C     C_R   0.135502 0.106159 0.301214 -0.120570
C23   C     C_R   0.240542 0.145463 0.598109 0.541720
C24   C     C_R   0.202236 0.167265 0.329383 0.003137
C25   C     C_R   0.778653 0.053898 0.296499 0.162468
C26   C     C_R   0.767891 0.071231 0.227216 -0.123607
C27   C     C_R   0.677067 0.194738 0.198886 -0.119651
C28   C     C_R   0.590655 0.303590 0.242804 -0.017442
C29   C     C_R   0.600555 0.283577 0.314402 0.247085
C30   C     C_R   0.682929 0.154442 0.339879 0.009397
C31   C     C_R   0.082117 0.231206 0.928633 0.535336
C32   C     C_R   0.684031 0.604711 0.929464 0.538405
C33   C     C_R   0.708489 0.206788 0.930095 0.545224
C34   C     C_R   0.649465 0.114657 0.404656 0.570226
C35   C     C_R   0.084418 0.234711 0.124268 0.534944
C36   C     C_R   0.680065 0.618675 0.123456 0.565400
C37   C     C_R   0.707926 0.213152 0.128064 0.530011
C38   C     C_R   0.580554 0.803832 0.395481 0.567334
C39   C     C_R   0.248037 0.140494 0.399991 0.547119
C40   C     C_1   0.670977 0.646543 0.860084 0.008091
C41   C     C_1   0.654615 0.683782 0.728382 -0.027709
C42   C     C_1   0.663821 0.666715 0.799641 -0.028101
Cr1   Cr    Cr6+3 0.404720 0.198220 0.499960 1.130601
Cr2   Cr    Cr6+3 0.698290 0.897110 0.500380 1.094743
Cr3   Cr    Cr6+3 0.396970 0.904720 0.499610 1.119171
Cr4   Cr    Cr6+3 0.926180 0.152240 0.028110 1.055754
Cr5   Cr    Cr6+3 0.921340 0.452070 0.027460 1.110947
Cr6   Cr    Cr6+3 0.626260 0.447120 0.028700 1.041965
H1    H     H_    0.839684 0.988494 0.195583 0.221462
H2    H     H_    0.439966 0.750054 0.182928 0.197049
H3    H     H_    0.795377 0.758973 0.319938 0.233504
H4    H     H_    0.049066 0.076060 0.212071 0.185909
H5    H     H_    0.103413 0.050577 0.332914 0.215623
O1    O     O_R   0.267740 0.231990 0.575440 -0.496582
O2    O     O_R   0.685970 0.784630 0.430010 -0.494488
O3    O     O_R   0.502530 0.766960 0.423990 -0.397875
O4    O     O_R   0.288330 0.026310 0.429250 -0.491037
O5    O     O_3   0.499990 0.000020 0.499980 -0.325106
O6    O     O_R   0.821500 0.119550 0.952820 -0.498214
O7    O     O_R   0.037130 0.162750 0.957360 -0.496511
O8    O     O_R   0.056440 0.344950 0.951330 -0.506487
O9    O     O_R   0.797900 0.560570 0.957460 -0.495782
O10   O     O_R   0.596140 0.579600 0.952720 -0.506173
O11   O     O_R   0.639070 0.321380 0.958660 -0.494259
O12   O     O_R   0.527280 0.186680 0.570530 -0.487970
O13   O     O_R   0.821240 0.124490 0.104360 -0.502051
O14   O     O_R   0.036900 0.167320 0.097830 -0.509812
O15   O     O_R   0.056190 0.349890 0.102870 -0.453785
O16   O     O_R   0.797670 0.565150 0.097930 -0.433857
O17   O     O_R   0.595880 0.584540 0.104260 -0.529328
O18   O     O_R   0.638830 0.325960 0.099140 -0.523095
O19   O     O_3   0.824590 0.350480 0.028090 -0.267478
O20   O     O_R   0.728090 0.003480 0.576380 -0.499377
O21   O     O_R   0.682970 0.789220 0.570490 -0.490306
O22   O     O_R   0.499290 0.771920 0.575530 -0.490854
O23   O     O_R   0.285330 0.030900 0.569730 -0.496481
O24   O     O_R   0.270980 0.227040 0.423900 -0.441721
O25   O     O_R   0.530280 0.182090 0.430050 -0.444074
O26   O     O_R   0.731330 0.998530 0.424830 -0.468934
Cl1   Cl    Cl    0.341759 0.807032 0.313684 -0.446246
C43   C     C_2   0.486929 0.433304 0.214194 0.374003
H6    H     H_    0.445116 0.436973 0.164327 0.143983
O27   O     O_2   0.443849 0.538033 0.246031 -0.360687
Cl2   Cl    Cl    0.521082 0.418566 0.373943 -0.391095
Cl3   Cl    Cl    0.901651 0.678672 0.188780 -0.456997
Cl4   Cl    Cl    0.288439 0.358451 0.319802 -0.417081
C44   C     C_2   0.269619 0.317136 0.171836 0.291840
H7    H     H_    0.340317 0.260174 0.131210 0.052547
O28   O     O_2   0.225984 0.437532 0.176509 -0.382360
Cl5   Cl    Cl    0.923164 0.908570 0.325205 -0.490984

loop_
_geom_bond_atom_site_label_1
_geom_bond_atom_site_label_2
_ccdc_geom_bond_type
C44   H7    S    
C12   O21   A    
Cr4   O6    S    
C41   C42   S    
C31   O8    A    
C19   C20   A    
C16   H3    S    
C23   O23   A    
C2    C12   S    
Cr5   O9    S    
C43   H6    S    
Cr1   O25   S    
Cr3   O4    S    
C26   C27   A    
C18   Cl4   S    
Cr3   O23   S    
C18   C24   A    
C39   O24   A    
C28   C29   A    
Cr4   O13   S    
C19   C44   S    
C14   C36   S    
Cr6   O11   S    
C2    C41   T    
C15   C16   A    
C39   O4    A    
C24   C39   S    
C18   C19   A    
Cr5   O16   S    
Cr1   O5    S    
C20   C35   S    
C38   O2    A    
Cr3   O3    S    
Cr2   O5    S    
C8    C9    S    
C1    O12   A    
Cr4   O19   S    
C15   Cl3   S    
C40   C42   T    
C33   O6    A    
C21   C22   A    
C7    C33   S    
Cr6   O19   S    
C43   O27   D    
C36   O17   A    
C22   H5    S    
Cr3   O5    S    
C30   C34   S    
C29   Cl2   S    
C4    C6    T    
C26   H1    S    
C16   C17   A    
Cr6   O10   S    
C25   C26   A    
C31   O7    A    
C3    C31   S    
C29   C30   A    
C34   O26   A    
Cr1   O1    S    
C35   O14   A    
Cr1   O12   S    
C37   O13   A    
C25   Cl5   S    
Cr2   O21   S    
C37   O18   A    
C22   C24   A    
Cr6   O18   S    
Cr5   O15   S    
C36   O16   A    
C23   O1    A    
C25   C30   A    
C7    C9    T    
C11   C17   A    
Cr4   O7    S    
C28   C43   S    
Cr2   O26   S    
C1    C10   S    
C32   O10   A    
Cr6   O17   S    
C4    C5    S    
C3    C5    T    
Cr5   O8    S    
Cr1   O24   S    
Cr3   O22   S    
C1    O20   A    
C44   O28   D    
C32   O9    A    
Cr4   O14   S    
C34   O25   A    
C11   C13   A    
Cr2   O2    S    
C35   O15   A    
C27   C37   S    
C33   O11   A    
C6    C23   S    
C17   C38   S    
C32   C40   S    
Cr2   O20   S    
Cr5   O19   S    
C11   Cl1   S    
C13   H2    S    
C38   O3    A    
C20   C21   A    
C8    C10   T    
C12   O22   A    
C27   C28   A    
C14   C15   A    
C13   C14   A    
C21   H4    S    
