data_mof_unit_11966.cif
_audit_creation_date              2012-12-11T21:12:07-0500
_audit_creation_method            fapswitch 2.2
_symmetry_space_group_name_H-M    P1
_symmetry_Int_Tables_number       1
_space_group_crystal_system       triclinic
_cell_length_a                    8.196352
_cell_length_b                    18.796388
_cell_length_c                    27.013309
_cell_angle_alpha                 99.194161
_cell_angle_beta                  92.219629
_cell_angle_gamma                 89.013226
_cell_volume                      4104.91267377

loop_
_atom_site_label
_atom_site_type_symbol
_atom_type_description
_atom_site_fract_x
_atom_site_fract_y
_atom_site_fract_z
_atom_type_partial_charge
Ba1   Ba    Ba6+2 0.160810 0.465630 0.521640 1.640370
Ba2   Ba    Ba6+2 0.649380 0.534380 0.478400 1.638718
C1    C     C_3   0.392161 0.291281 0.701432 -0.292384
C2    C     C_R   0.063162 0.095882 0.446943 -0.120746
C3    C     C_R   0.205632 0.952244 0.453605 -0.106114
C4    C     C_3   0.942496 0.271294 0.625392 0.340327
C5    C     C_R   0.057124 0.976609 0.475873 0.024490
C6    C     C_R   0.262757 0.881814 0.453073 -0.092167
C7    C     C_R   0.174513 0.832023 0.474505 -0.030172
C8    C     C_R   0.030340 0.855729 0.499732 0.003064
C9    C     C_R   0.972998 0.928323 0.501071 0.034110
C10   C     C_R   0.225532 0.759154 0.471650 -0.011463
C11   C     C_R   0.127986 0.710421 0.490849 -0.295178
C12   C     C_3   0.411375 0.311711 0.649770 0.350713
C13   C     C_R   0.990170 0.733141 0.517957 0.039969
C14   C     C_R   0.943914 0.807016 0.524058 -0.037099
C15   C     C_R   0.847179 0.070536 0.500220 0.033058
C16   C     C_3   0.965077 0.198221 0.642174 -0.339078
C17   C     C_R   0.782806 0.142187 0.500278 0.005896
C18   C     C_R   0.870145 0.191829 0.476787 -0.025640
C19   C     C_R   0.004112 0.165924 0.448183 -0.031260
C20   C     C_R   0.815609 0.834057 0.554466 -0.028475
C21   C     C_R   0.761604 0.904758 0.556588 -0.090458
C22   C     C_R   0.831177 0.951830 0.527484 0.020783
C23   C     C_3   0.467268 0.314133 0.397416 0.308820
C24   C     C_R   0.764771 0.021734 0.525042 0.000557
C25   C     C_R   0.610657 0.041849 0.543488 -0.096165
C26   C     C_R   0.630063 0.163326 0.522571 -0.087915
C27   C     C_R   0.540940 0.109416 0.541391 -0.056981
C28   C     C_3   0.843035 0.620748 0.631608 0.296142
C29   C     C_R   0.577482 0.237008 0.525101 -0.023702
C30   C     C_R   0.676717 0.286295 0.506636 -0.291358
C31   C     C_R   0.819895 0.265388 0.481788 0.042138
C32   C     C_R   0.290422 0.449335 0.174257 0.587612
C33   C     C_R   0.185200 0.569580 0.176270 0.581081
C34   C     C_3   0.463892 0.232740 0.381953 -0.390308
C35   C     C_2   0.031155 0.527814 0.269498 -0.070983
C36   C     C_3   0.993924 0.521097 0.323169 -0.051877
C37   C     C_1   0.280309 0.492897 0.336468 0.014044
C38   C     C_2   0.316197 0.495720 0.289468 -0.094394
C39   C     C_2   0.184441 0.513340 0.252859 0.205779
C40   C     C_3   0.844522 0.637838 0.688570 -0.356490
C41   C     C_R   0.300403 0.506113 0.099224 -0.079149
C42   C     C_R   0.332417 0.446390 0.123827 -0.032531
C43   C     C_R   0.406789 0.384884 0.097709 -0.061725
C44   C     C_R   0.225759 0.568045 0.125697 -0.030026
C45   C     C_3   0.872866 0.722758 0.377993 0.353047
C46   C     C_2   0.148681 0.525652 0.355765 -0.288812
C47   C     C_2   0.645386 0.471693 0.637194 -0.294209
C48   C     C_R   0.450380 0.436659 0.970137 0.020680
C49   C     C_R   0.361301 0.563332 0.973502 0.020181
C50   C     C_R   0.427021 0.498725 0.946565 0.049456
C51   C     C_R   0.508669 0.372716 0.940975 -0.102186
C52   C     C_3   0.976157 0.369778 0.365476 0.294338
C53   C     C_R   0.548013 0.370509 0.891264 -0.059353
C54   C     C_R   0.530639 0.431763 0.868047 -0.023826
C55   C     C_R   0.469793 0.496000 0.895438 -0.080692
C56   C     C_3   0.881057 0.797451 0.363466 -0.363963
C57   C     C_R   0.451962 0.557377 0.871725 -0.035188
C58   C     C_R   0.496264 0.553778 0.821176 0.597152
C59   C     C_R   0.571538 0.429284 0.817649 0.574668
C60   C     C_2   0.732629 0.451641 0.724249 -0.083432
C61   C     C_3   0.745927 0.427057 0.668793 -0.045303
C62   C     C_1   0.518526 0.509550 0.656462 0.034084
C63   C     C_2   0.478662 0.513468 0.704234 -0.105665
C64   C     C_3   0.010004 0.340074 0.310934 -0.363238
C65   C     C_2   0.594267 0.485492 0.741605 0.191110
C66   C     C_R   0.413840 0.440052 0.021633 0.020952
C67   C     C_3   0.362140 0.698037 0.350123 0.294213
C68   C     C_R   0.342692 0.503748 0.048100 0.049566
C69   C     C_R   0.313475 0.565028 0.024040 0.020248
C70   C     C_R   0.447166 0.381756 0.047952 -0.100615
C71   C     C_R   0.193474 0.627255 0.101147 -0.061145
C72   C     C_R   0.346756 0.624257 0.948729 -0.099250
C73   C     C_R   0.391206 0.621235 0.899135 -0.059951
C74   C     C_R   0.236150 0.625921 0.051590 -0.100030
C75   C     C_3   0.333510 0.685547 0.591709 0.311814
C76   C     C_3   0.341653 0.766940 0.607129 -0.373839
C77   C     C_2   0.367653 0.114852 0.554156 0.536891
C78   C     C_3   0.400606 0.712220 0.298050 -0.345871
C79   C     C_R   0.992171 0.047674 0.474697 0.016623
H1    H     H_    0.341384 0.362461 0.647961 0.084900
H2    H     H_    0.204730 0.669867 0.584160 0.004228
H3    H     H_    0.404116 0.670265 0.557295 0.067749
H4    H     H_    0.271003 0.267135 0.704175 0.148887
H5    H     H_    0.268108 0.783983 0.640745 0.130542
H6    H     H_    0.293016 0.794604 0.576325 0.060343
H7    H     H_    0.470335 0.783425 0.615971 0.122121
H8    H     H_    0.542650 0.320064 0.644694 -0.058590
H9    H     H_    0.401208 0.340329 0.730079 0.113725
H10   H     H_    0.596113 0.330861 0.405019 0.023799
H11   H     H_    0.397833 0.327900 0.432220 0.060589
H12   H     H_    0.750960 0.679817 0.700661 0.138328
H13   H     H_    0.534978 0.216761 0.347689 0.133751
H14   H     H_    0.518401 0.205988 0.412547 0.053947
H15   H     H_    0.335873 0.214554 0.374238 0.115514
H16   H     H_    0.488687 0.251869 0.709079 0.126372
H17   H     H_    0.912790 0.199579 0.679635 0.118196
H18   H     H_    0.768219 0.721948 0.402713 0.111813
H19   H     H_    0.987584 0.712135 0.398664 -0.047596
H20   H     H_    0.891503 0.838681 0.397711 0.075521
H21   H     H_    0.988928 0.801003 0.340369 0.120773
H22   H     H_    0.768438 0.808679 0.341684 0.138746
H23   H     H_    0.817566 0.588782 0.704504 0.070734
H24   H     H_    0.230594 0.709602 0.356236 -0.015862
H25   H     H_    0.389078 0.640347 0.351600 0.070549
H26   H     H_    0.328300 0.675674 0.269506 0.129112
H27   H     H_    0.532417 0.702148 0.291274 0.151403
H28   H     H_    0.992685 0.268125 0.587480 0.084895
H29   H     H_    0.369613 0.768949 0.294408 0.118078
H30   H     H_    0.164785 0.654328 0.486974 0.072067
H31   H     H_    0.376489 0.866888 0.435057 0.110728
H32   H     H_    0.066104 0.199297 0.426034 0.099350
H33   H     H_    0.754910 0.801234 0.577318 0.096278
H34   H     H_    0.966781 0.657553 0.703252 0.132828
H35   H     H_    0.638057 0.342097 0.509741 0.071002
H36   H     H_    0.282686 0.986709 0.436645 0.062712
H37   H     H_    0.165836 0.081211 0.423591 0.058922
H38   H     H_    0.665951 0.921323 0.582393 0.070632
H39   H     H_    0.809002 0.282511 0.623087 -0.062621
H40   H     H_    0.533952 0.002830 0.556205 0.098464
H41   H     H_    0.439555 0.484188 0.277081 0.114940
H42   H     H_    0.435089 0.338478 0.115819 0.123065
H43   H     H_    0.822759 0.432528 0.749703 0.119949
H44   H     H_    0.592328 0.319923 0.870917 0.124192
H45   H     H_    0.089546 0.392174 0.384710 0.021816
H46   H     H_    0.522954 0.322436 0.954995 0.070214
H47   H     H_    0.507409 0.332797 0.031585 0.070022
H48   H     H_    0.931796 0.537366 0.243526 0.101282
H49   H     H_    0.134794 0.675439 0.120319 0.121751
H50   H     H_    0.303599 0.675960 0.966826 0.070002
H51   H     H_    0.901673 0.156329 0.614839 0.085326
H52   H     H_    0.377315 0.669625 0.882223 0.122958
H53   H     H_    0.361063 0.535766 0.716290 0.129281
H54   H     H_    0.204206 0.673560 0.035778 0.069680
H55   H     H_    0.150377 0.552659 0.394463 0.069858
H56   H     H_    0.880701 0.412494 0.367039 0.041766
H57   H     H_    0.658573 0.459936 0.596889 0.086472
H58   H     H_    0.096595 0.183899 0.644400 0.186985
H59   H     H_    0.719279 0.604376 0.617401 0.011097
H60   H     H_    0.930729 0.575946 0.620672 0.079652
H61   H     H_    0.276591 0.126245 0.526656 0.014191
H62   H     H_    0.097235 0.293924 0.309150 0.150397
H63   H     H_    0.063950 0.381498 0.291968 0.080618
H64   H     H_    0.894532 0.321371 0.290480 0.117786
N1    N     N_R   0.219747 0.510869 0.200230 -0.426505
N2    N     N_R   0.554186 0.489894 0.794330 -0.422513
O1    O     O_2   0.106080 0.324280 0.466820 -0.464507
O2    O     O_2   0.661927 0.562652 0.332102 -0.494379
O3    O     O_3   0.853751 0.671470 0.334425 -0.594541
O4    O     O_3   0.859130 0.413620 0.470620 -0.485170
O5    O     O_3   0.459240 0.537930 0.559910 -0.487739
O6    O     O_2   0.583120 0.462390 0.379940 -0.465189
O7    O     O_3   0.396860 0.346997 0.358410 -0.633654
O8    O     O_2   0.565461 0.756704 0.478661 -0.491889
O9    O     O_3   0.459092 0.742749 0.385714 -0.607901
O10   O     O_2   0.315116 0.396640 0.194938 -0.598067
O11   O     O_2   0.621646 0.372513 0.794384 -0.619948
O12   O     O_3   0.398219 0.652866 0.631220 -0.622878
O13   O     O_2   0.120461 0.623437 0.199067 -0.601219
O14   O     O_2   0.485146 0.607818 0.801362 -0.596578
O15   O     O_3   0.376230 0.370290 0.556910 -0.487013
O16   O     O_2   0.235407 0.247802 0.522095 -0.501646
O17   O     O_3   0.920535 0.313129 0.387481 -0.645320
O18   O     O_3   0.350975 0.256123 0.613253 -0.581547
O19   O     O_2   0.227190 0.537650 0.620070 -0.466866
O20   O     O_3   0.971110 0.406970 0.583250 -0.480583
O21   O     O_2   0.083127 0.463067 0.675366 -0.499257
O22   O     O_2   0.324499 0.100624 0.594190 -0.577653
O23   O     O_3   0.025548 0.324202 0.659608 -0.594047
O24   O     O_2   0.704230 0.675760 0.533200 -0.465595
O25   O     O_3   0.951180 0.586390 0.529420 -0.492577
O26   O     O_3   0.434080 0.629720 0.443130 -0.475940
O27   O     O_3   0.886355 0.682612 0.612837 -0.640075
O28   O     O_3   0.351080 0.462080 0.440130 -0.473531
O29   O     O_3   0.839200 0.593040 0.416790 -0.485512
P1    P     P_3+3 0.929380 0.335110 0.452880 0.978262
P2    P     P_3+3 0.398530 0.559060 0.613740 0.995476
P3    P     P_3+3 0.957925 0.408666 0.647576 0.945798
P4    P     P_3+3 0.880940 0.664900 0.547160 0.975546
P5    P     P_3+3 0.836132 0.585797 0.351394 0.971814
P6    P     P_3+3 0.386957 0.277031 0.553819 0.935978
P7    P     P_3+3 0.398885 0.440619 0.376976 0.960729
P8    P     P_3+3 0.420496 0.723053 0.445252 0.927720

loop_
_geom_bond_atom_site_label_1
_geom_bond_atom_site_label_2
_ccdc_geom_bond_type
C76   H6    S    
O20   P3    S    
C53   C54   A    
O1    P1    D    
C47   C61   S    
O27   P4    S    
C1    H4    S    
C40   H12   S    
C16   H51   S    
C17   C18   A    
C49   C72   A    
C60   H43   S    
O9    P8    S    
C61   P3    S    
C75   C76   S    
C43   H42   S    
C5    C9    A    
C10   C11   A    
C52   H45   S    
C78   H26   S    
C24   C25   A    
C60   C61   S    
C28   H60   S    
C49   C69   A    
C60   C65   D    
C70   H47   S    
C1    H9    S    
C15   C24   A    
C26   C27   A    
C22   C24   A    
O15   P6    S    
C6    H31   S    
Ba2   O26   S    
C21   H38   S    
C69   C74   A    
C13   P4    S    
C55   C57   A    
C52   H56   S    
C64   H63   S    
Ba1   O20   S    
C13   C14   A    
C9    C22   A    
C45   H18   S    
C54   C55   A    
Ba1   O5    S    
Ba1   Ba2   S    
C1    H16   S    
C33   O13   D    
C64   H64   S    
C51   H46   S    
Ba2   O29   S    
Ba1   P1    S    
C39   N1    S    
O6    P7    D    
O26   P8    S    
C6    C7    A    
C63   C65   S    
C48   C50   A    
C21   C22   A    
C68   C69   A    
O19   P2    D    
C58   N2    Am   
C7    C8    A    
C36   C46   S    
C63   H53   S    
Ba2   O24   S    
O25   P4    S    
C57   C58   A    
C47   C62   D    
C35   C39   D    
C72   H50   S    
O16   P6    D    
O2    P5    D    
C2    H37   S    
Ba2   P4    S    
C4    H39   S    
C41   C44   A    
C74   H54   S    
O3    P5    S    
C51   C53   A    
Ba2   O5    S    
O29   P5    S    
C4    C16   S    
C23   H10   S    
C67   O9    S    
C28   H59   S    
C72   C73   A    
C2    C79   A    
C31   P1    S    
C49   C50   A    
C48   C51   A    
C53   H44   S    
C32   C42   A    
C19   H32   S    
C8    C9    A    
C37   C38   D    
C3    C5    A    
C67   H24   S    
O8    P8    D    
C15   C17   A    
C64   H62   S    
C75   H3    S    
C75   H2    S    
C45   H19   S    
C3    H36   S    
C33   N1    Am   
C41   C42   A    
C12   H8    S    
C35   C36   S    
Ba2   O28   S    
C62   P2    S    
Ba1   P2    S    
C34   H15   S    
C29   C30   A    
C27   C77   S    
C45   O3    S    
C66   C70   A    
O7    P7    S    
C58   O14   D    
C56   H20   S    
C30   H35   S    
C12   O18   S    
C17   C26   A    
C36   P5    S    
C1    C12   S    
C75   O12   S    
C56   H21   S    
C18   C31   A    
C38   C39   S    
C5    C79   A    
Ba1   O15   S    
C41   C68   A    
C11   C13   A    
C29   P6    S    
C65   N2    S    
C71   C74   A    
O24   P4    D    
O18   P6    S    
O12   P2    S    
C57   C73   A    
C42   C43   A    
O28   P7    S    
C4    O23   S    
C76   H7    S    
Ba2   O4    S    
C71   H49   S    
Ba1   O28   S    
C23   H11   S    
C14   C20   A    
C23   O7    S    
C54   C59   A    
C46   H55   S    
C26   C29   A    
C67   C78   S    
C40   H23   S    
C3    C6    A    
C67   H25   S    
C73   H52   S    
C52   C64   S    
Ba2   O6    S    
O21   P3    D    
C38   H41   S    
C78   H27   S    
Ba1   O25   S    
O23   P3    S    
C62   C63   D    
C77   O22   D    
C59   N2    Am   
C11   H30   S    
C8    C14   A    
C59   O11   D    
C30   C31   A    
C45   C56   S    
C2    C19   A    
C32   N1    Am   
C34   H14   S    
C76   H5    S    
C10   P8    S    
C25   C27   A    
Ba1   O19   S    
C4    H28   S    
C35   H48   S    
Ba1   O4    S    
C15   C79   A    
O5    P2    S    
C16   H58   S    
C7    C10   A    
O4    P1    S    
C50   C55   A    
C23   C34   S    
C77   H61   S    
C32   O10   D    
C34   H13   S    
C40   H34   S    
C20   H33   S    
C18   C19   A    
C66   C68   A    
C78   H29   S    
C25   H40   S    
C12   H1    S    
C20   C21   A    
C28   C40   S    
Ba1   O1    S    
C56   H22   S    
C16   H17   S    
C52   O17   S    
C47   H57   S    
C33   C44   A    
C48   C66   A    
C28   O27   S    
C44   C71   A    
C37   P7    S    
O17   P1    S    
Ba2   O25   S    
C37   C46   D    
C43   C70   A    
