data_mof_unit_45641.cif
_audit_creation_date              2012-12-10T19:48:21-0500
_audit_creation_method            fapswitch 2.2
_symmetry_space_group_name_H-M    P1
_symmetry_Int_Tables_number       1
_space_group_crystal_system       tetragonal
_cell_length_a                    18.261369
_cell_length_b                    18.261369
_cell_length_c                    30.113611
_cell_angle_alpha                 90.0
_cell_angle_beta                  90.0
_cell_angle_gamma                 90.0
_cell_volume                      10042.214656

loop_
_atom_site_label
_atom_site_type_symbol
_atom_type_description
_atom_site_fract_x
_atom_site_fract_y
_atom_site_fract_z
_atom_type_partial_charge
C1    C     C_R   0.141254 0.500000 0.000000 0.999534
C2    C     C_1   0.500000 0.217754 0.000000 -0.086159
C3    C     C_R   0.091876 0.402444 0.773195 0.301602
C4    C     C_R   0.597555 0.908122 0.226805 0.301602
C5    C     C_R   0.908123 0.402444 0.226805 0.301602
C6    C     C_R   0.402445 0.091878 0.226805 0.301602
C7    C     C_R   0.091877 0.597556 0.226805 0.301602
C8    C     C_1   0.782246 0.500000 0.000000 -0.086159
C9    C     C_1   0.500000 0.782246 0.000000 -0.086159
C10   C     C_1   0.717754 1.000000 0.500000 -0.087705
C11   C     C_1   1.000000 0.717754 0.500000 -0.087706
C12   C     C_1   0.282246 0.000000 0.500000 -0.087705
C13   C     C_1   0.000000 0.282246 0.500000 -0.087706
C14   C     C_R   0.000000 0.500000 0.086867 1.031432
C15   C     C_R   0.500000 1.000000 0.086867 1.031432
C16   C     C_R   0.000000 0.500000 0.913133 1.031432
C17   C     C_R   0.500000 0.141254 0.000000 0.999535
C18   C     C_R   0.500000 1.000000 0.913133 1.031433
C19   C     C_R   0.500000 1.000000 0.586867 1.033845
C20   C     C_R   0.000000 0.500000 0.586867 1.033846
C21   C     C_R   0.500000 0.000000 0.413133 1.033846
C22   C     C_R   0.000000 0.500000 0.413133 1.033846
C23   C     C_1   0.282555 0.500000 0.000000 -0.123673
C24   C     C_1   0.500000 0.282555 0.000000 -0.123674
C25   C     C_1   0.717445 0.500000 0.000000 -0.123673
C26   C     C_1   0.500000 0.717445 0.000000 -0.123674
C27   C     C_1   0.782555 0.000000 0.500000 -0.124546
C28   C     C_R   0.858746 0.500000 0.000000 0.999534
C29   C     C_1   0.000000 0.782555 0.500000 -0.124547
C30   C     C_1   0.217445 0.000000 0.500000 -0.124546
C31   C     C_1   0.000000 0.217445 0.500000 -0.124547
C32   C     C_R   0.500000 0.359067 0.000000 0.898385
C33   C     C_R   0.640932 0.500000 0.000000 0.898384
C34   C     C_R   0.500000 0.640932 0.000000 0.898384
C35   C     C_R   0.359067 0.500000 0.000000 0.898385
C36   C     C_R   0.000000 0.859068 0.500000 0.897462
C37   C     C_R   0.140932 0.000000 0.500000 0.897462
C38   C     C_R   0.000000 0.140932 0.500000 0.897462
C39   C     C_R   0.500000 0.858746 0.000000 0.999535
C40   C     C_R   0.859068 0.000000 0.500000 0.897462
C41   C     C_R   0.031980 0.558738 0.342293 0.402701
C42   C     C_R   0.441262 0.031980 0.342293 0.402701
C43   C     C_R   0.968020 0.441262 0.342293 0.402700
C44   C     C_R   0.558737 0.968020 0.342293 0.402700
C45   C     C_R   0.031979 0.441262 0.657707 0.402701
C46   C     C_R   0.441263 0.968020 0.657707 0.402701
C47   C     C_R   0.968021 0.558738 0.657707 0.402700
C48   C     C_R   0.558737 0.031980 0.657707 0.402701
C49   C     C_R   0.467451 0.941589 0.842287 0.400527
C50   C     C_R   0.641254 0.000000 0.500000 1.003113
C51   C     C_R   0.058411 0.467450 0.842287 0.400527
C52   C     C_R   0.532548 0.058411 0.842287 0.400527
C53   C     C_R   0.941589 0.532550 0.842287 0.400527
C54   C     C_R   0.467451 0.058411 0.157712 0.400527
C55   C     C_R   0.058411 0.532549 0.157712 0.400527
C56   C     C_R   0.532549 0.941589 0.157712 0.400527
C57   C     C_R   0.941589 0.467451 0.157712 0.400528
C58   C     C_R   0.000000 0.500000 0.365218 -0.305150
C59   C     C_R   0.500000 0.000000 0.365218 -0.305151
C60   C     C_R   0.000000 0.500000 0.634782 -0.305150
C61   C     C_R   0.000000 0.641254 0.500000 1.003114
C62   C     C_R   0.500000 0.000000 0.634782 -0.305150
C63   C     C_R   0.500000 1.000000 0.865221 -0.309949
C64   C     C_R   0.000000 0.500000 0.865221 -0.309949
C65   C     C_R   0.500000 0.000000 0.134779 -0.309949
C66   C     C_R   0.000000 0.500000 0.134779 -0.309949
C67   C     C_R   0.955470 0.449520 0.296517 -0.147285
C68   C     C_R   0.550480 0.955470 0.296517 -0.147286
C69   C     C_R   0.044530 0.550480 0.296517 -0.147285
C70   C     C_R   0.449520 0.044530 0.296517 -0.147286
C71   C     C_R   0.955471 0.550481 0.703483 -0.147286
C72   C     C_R   0.358746 0.000000 0.500000 1.003114
C73   C     C_R   0.550480 0.044530 0.703483 -0.147286
C74   C     C_R   0.044530 0.449519 0.703483 -0.147286
C75   C     C_R   0.449520 0.955470 0.703483 -0.147286
C76   C     C_R   0.545053 0.049982 0.796526 -0.138880
C77   C     C_R   0.950019 0.545055 0.796526 -0.138880
C78   C     C_R   0.454946 0.950018 0.796526 -0.138880
C79   C     C_R   0.049981 0.454946 0.796526 -0.138881
C80   C     C_R   0.545054 0.950018 0.203474 -0.138880
C81   C     C_R   0.950018 0.454946 0.203474 -0.138881
C82   C     C_R   0.454946 0.049982 0.203474 -0.138881
C83   C     C_R   0.000000 0.358746 0.500000 1.003115
C84   C     C_R   0.049982 0.545054 0.203474 -0.138880
C85   C     C_R   0.000000 0.500000 0.273202 -0.059244
C86   C     C_R   0.500000 0.000000 0.273202 -0.059244
C87   C     C_R   0.000000 0.500000 0.726798 -0.059244
C88   C     C_R   0.500000 0.000000 0.726798 -0.059244
C89   C     C_R   0.500000 0.000000 0.773204 -0.061934
C90   C     C_R   0.000000 0.500000 0.773204 -0.061933
C91   C     C_R   0.500000 0.000000 0.226796 -0.061933
C92   C     C_R   0.000000 0.500000 0.226796 -0.061934
C93   C     C_R   0.903437 0.407047 0.273150 0.344629
C94   C     C_1   0.217754 0.500000 0.000000 -0.086158
C95   C     C_R   0.592952 0.903437 0.273150 0.344629
C96   C     C_R   0.096563 0.592953 0.273150 0.344629
C97   C     C_R   0.407048 0.096563 0.273150 0.344629
C98   C     C_R   0.903438 0.592954 0.726850 0.344629
C99   C     C_R   0.592952 0.096564 0.726850 0.344629
C100  C     C_R   0.096562 0.407046 0.726850 0.344630
C101  C     C_R   0.407048 0.903436 0.726850 0.344629
C102  C     C_R   0.597554 0.091878 0.773195 0.301602
C103  C     C_R   0.908124 0.597557 0.773195 0.301602
C104  C     C_R   0.402445 0.908122 0.773195 0.301602
H1    H     H_    0.705404 0.381437 0.277517 0.402098
H2    H     H_    0.954607 0.750215 0.757987 0.376386
H3    H     H_    0.249786 0.954602 0.757987 0.376386
H4    H     H_    0.045394 0.249785 0.757987 0.376386
H5    H     H_    0.750214 0.954603 0.242012 0.376386
H6    H     H_    0.954604 0.249786 0.242012 0.376386
H7    H     H_    0.249786 0.045397 0.242012 0.376386
H8    H     H_    0.045396 0.750214 0.242012 0.376386
H9    H     H_    0.107520 0.701663 0.414464 0.380822
H10   H     H_    0.298337 0.107520 0.414464 0.380822
H11   H     H_    0.892481 0.298336 0.414464 0.380822
H12   H     H_    0.618558 0.705403 0.277518 0.402098
H13   H     H_    0.701663 0.892480 0.414464 0.380822
H14   H     H_    0.107518 0.298335 0.585536 0.380822
H15   H     H_    0.298337 0.892479 0.585536 0.380822
H16   H     H_    0.892482 0.701665 0.585536 0.380822
H17   H     H_    0.701662 0.107521 0.585536 0.380822
H18   H     H_    0.391297 0.799149 0.914575 0.380064
H19   H     H_    0.200849 0.391294 0.914575 0.380064
H20   H     H_    0.608702 0.200851 0.914575 0.380064
H21   H     H_    0.799152 0.608706 0.914575 0.380064
H22   H     H_    0.391296 0.200850 0.085425 0.380064
H23   H     H_    0.294596 0.618557 0.277518 0.402098
H24   H     H_    0.200850 0.608704 0.085425 0.380063
H25   H     H_    0.608703 0.799150 0.085425 0.380064
H26   H     H_    0.799150 0.391296 0.085425 0.380063
H27   H     H_    0.381444 0.294597 0.277518 0.402098
H28   H     H_    0.705405 0.618562 0.722482 0.402097
H29   H     H_    0.618554 0.294598 0.722481 0.402098
H30   H     H_    0.294596 0.381445 0.722480 0.402096
H31   H     H_    0.381442 0.705403 0.722482 0.402098
H32   H     H_    0.750214 0.045399 0.757987 0.376386
O1    O     O_R   0.107310 0.560570 0.000010 -0.602421
O2    O     O_R   0.939430 0.607310 0.500010 -0.603367
O3    O     O_2   0.293612 0.036988 0.333914 -0.237578
O4    O     O_2   0.343315 0.968966 0.396614 -0.328782
O5    O     O_3   0.347386 0.110609 0.400547 -0.479422
O6    O     O_2   0.963013 0.293612 0.333914 -0.237578
O7    O     O_2   0.031035 0.343315 0.396614 -0.328781
O8    O     O_3   0.889392 0.347386 0.400547 -0.479422
O9    O     O_2   0.706388 0.963012 0.333914 -0.237578
O10   O     O_2   0.656685 0.031034 0.396614 -0.328782
O11   O     O_3   0.652614 0.889391 0.400547 -0.479421
O12   O     O_2   0.036985 0.293611 0.666085 -0.237578
O13   O     O_R   0.392690 0.939430 0.500010 -0.603367
O14   O     O_2   0.968964 0.343315 0.603386 -0.328781
O15   O     O_3   0.110607 0.347385 0.599453 -0.479423
O16   O     O_2   0.293612 0.963011 0.666085 -0.237577
O17   O     O_2   0.343315 0.031033 0.603386 -0.328783
O18   O     O_3   0.347387 0.889390 0.599453 -0.479421
O19   O     O_2   0.963015 0.706389 0.666085 -0.237578
O20   O     O_2   0.031036 0.656685 0.603386 -0.328781
O21   O     O_3   0.889393 0.652615 0.599453 -0.479423
O22   O     O_2   0.706388 0.036989 0.666086 -0.237578
O23   O     O_2   0.656685 0.968967 0.603386 -0.328783
O24   O     O_R   0.060570 0.392690 0.500010 -0.603367
O25   O     O_3   0.652613 0.110610 0.599453 -0.479422
O26   O     O_2   0.461161 0.794033 0.833703 -0.199965
O27   O     O_2   0.529934 0.842947 0.896354 -0.331249
O28   O     O_3   0.388352 0.848141 0.900572 -0.480031
O29   O     O_2   0.205966 0.461157 0.833703 -0.199965
O30   O     O_2   0.157053 0.529931 0.896354 -0.331251
O31   O     O_3   0.151857 0.388349 0.900572 -0.480030
O32   O     O_2   0.538838 0.205967 0.833703 -0.199965
O33   O     O_2   0.470065 0.157052 0.896354 -0.331249
O34   O     O_3   0.611647 0.151859 0.900572 -0.480032
O35   O     O_R   0.607310 0.939430 0.499990 -0.603367
O36   O     O_2   0.794034 0.538843 0.833703 -0.199964
O37   O     O_2   0.842947 0.470069 0.896354 -0.331251
O38   O     O_3   0.848143 0.611651 0.900572 -0.480030
O39   O     O_2   0.461160 0.205967 0.166297 -0.199965
O40   O     O_2   0.529934 0.157053 0.103646 -0.331250
O41   O     O_3   0.388352 0.151858 0.099428 -0.480031
O42   O     O_2   0.205967 0.538840 0.166297 -0.199964
O43   O     O_2   0.157053 0.470067 0.103646 -0.331250
O44   O     O_3   0.151858 0.611649 0.099428 -0.480031
O45   O     O_2   0.538840 0.794033 0.166297 -0.199965
O46   O     O_R   0.939430 0.392690 0.499990 -0.603367
O47   O     O_2   0.470066 0.842947 0.103646 -0.331249
O48   O     O_3   0.611648 0.848142 0.099428 -0.480031
O49   O     O_2   0.794033 0.461159 0.166297 -0.199964
O50   O     O_2   0.842947 0.529933 0.103646 -0.331250
O51   O     O_3   0.848142 0.388351 0.099428 -0.480031
O52   O     O_R   0.392690 0.060570 0.499990 -0.603368
O53   O     O_R   0.060570 0.607310 0.499990 -0.603367
O54   O     O_R   0.999950 0.560580 0.066080 -0.579173
O55   O     O_R   0.439420 0.999950 0.066080 -0.579173
O56   O     O_R   0.000050 0.439420 0.066080 -0.579173
O57   O     O_R   0.439430 0.107310 0.000010 -0.602420
O58   O     O_R   0.560580 0.000050 0.066080 -0.579174
O59   O     O_R   0.999950 0.439420 0.933920 -0.579173
O60   O     O_R   0.439420 0.000050 0.933920 -0.579173
O61   O     O_R   0.000050 0.560580 0.933920 -0.579173
O62   O     O_R   0.560580 0.999950 0.933920 -0.579174
O63   O     O_R   0.499950 0.060580 0.566080 -0.580239
O64   O     O_R   0.939420 0.499950 0.566080 -0.580240
O65   O     O_R   0.500050 0.939420 0.566080 -0.580239
O66   O     O_R   0.060580 0.500050 0.566080 -0.580240
O67   O     O_R   0.499950 0.939420 0.433920 -0.580239
O68   O     O_R   0.892690 0.439430 0.000010 -0.602420
O69   O     O_R   0.939420 0.500050 0.433920 -0.580239
O70   O     O_R   0.500050 0.060580 0.433920 -0.580239
O71   O     O_R   0.060580 0.499950 0.433920 -0.580239
O72   O     O_R   0.499980 0.392670 0.037330 -0.597015
O73   O     O_R   0.607330 0.499980 0.037330 -0.597015
O74   O     O_R   0.500020 0.607330 0.037330 -0.597015
O75   O     O_R   0.392670 0.500020 0.037330 -0.597015
O76   O     O_R   0.499980 0.607330 0.962670 -0.597015
O77   O     O_R   0.607330 0.500020 0.962670 -0.597014
O78   O     O_R   0.500020 0.392670 0.962670 -0.597014
O79   O     O_R   0.560570 0.892690 0.000010 -0.602420
O80   O     O_R   0.392670 0.499980 0.962670 -0.597014
O81   O     O_R   0.999980 0.892670 0.537330 -0.596677
O82   O     O_R   0.107330 0.999980 0.537330 -0.596677
O83   O     O_R   0.000020 0.107330 0.537330 -0.596677
O84   O     O_R   0.892670 0.000020 0.537330 -0.596677
O85   O     O_R   0.999980 0.107330 0.462670 -0.596676
O86   O     O_R   0.107330 0.000020 0.462670 -0.596676
O87   O     O_R   0.000020 0.892670 0.462670 -0.596676
O88   O     O_R   0.892670 0.999980 0.462670 -0.596676
O89   O     O_2   0.818030 0.302385 0.310220 -0.158107
O90   O     O_R   0.107310 0.439430 0.999990 -0.602421
O91   O     O_2   0.805609 0.427388 0.339298 -0.238340
O92   O     O_3   0.750276 0.398687 0.262284 -0.467084
O93   O     O_2   0.697614 0.818029 0.310220 -0.158104
O94   O     O_2   0.572611 0.805609 0.339298 -0.238343
O95   O     O_3   0.601312 0.750276 0.262284 -0.467085
O96   O     O_2   0.181970 0.697615 0.310220 -0.158103
O97   O     O_2   0.194391 0.572611 0.339298 -0.238344
O98   O     O_3   0.249724 0.601313 0.262284 -0.467085
O99   O     O_2   0.302386 0.181971 0.310220 -0.158103
O100  O     O_2   0.427389 0.194391 0.339298 -0.238344
O101  O     O_R   0.439430 0.892690 0.999990 -0.602420
O102  O     O_3   0.398688 0.249724 0.262284 -0.467085
O103  O     O_2   0.818032 0.697617 0.689780 -0.158105
O104  O     O_2   0.805610 0.572614 0.660702 -0.238343
O105  O     O_3   0.750278 0.601316 0.737716 -0.467083
O106  O     O_2   0.697613 0.181972 0.689779 -0.158103
O107  O     O_2   0.572609 0.194392 0.660702 -0.238344
O108  O     O_3   0.601310 0.249725 0.737715 -0.467085
O109  O     O_2   0.181968 0.302384 0.689779 -0.158100
O110  O     O_2   0.194391 0.427387 0.660702 -0.238348
O111  O     O_3   0.249723 0.398685 0.737716 -0.467083
O112  O     O_R   0.892690 0.560570 0.999990 -0.602421
O113  O     O_2   0.302387 0.818029 0.689780 -0.158105
O114  O     O_2   0.427390 0.805608 0.660702 -0.238342
O115  O     O_3   0.398689 0.750275 0.737715 -0.467085
O116  O     O_2   0.684071 0.195605 0.810339 -0.117588
O117  O     O_2   0.695179 0.071006 0.839674 -0.235143
O118  O     O_3   0.751349 0.099045 0.762811 -0.439328
O119  O     O_2   0.804399 0.684076 0.810338 -0.117588
O120  O     O_2   0.928998 0.695181 0.839674 -0.235143
O121  O     O_3   0.900961 0.751352 0.762811 -0.439329
O122  O     O_2   0.315928 0.804395 0.810338 -0.117589
O123  O     O_R   0.560570 0.107310 0.999990 -0.602420
O124  O     O_2   0.304821 0.928994 0.839674 -0.235143
O125  O     O_3   0.248650 0.900956 0.762811 -0.439329
O126  O     O_2   0.195602 0.315925 0.810338 -0.117585
O127  O     O_2   0.071002 0.304819 0.839673 -0.235143
O128  O     O_3   0.099040 0.248649 0.762811 -0.439328
O129  O     O_2   0.684072 0.804396 0.189661 -0.117588
O130  O     O_2   0.695179 0.928995 0.160326 -0.235143
O131  O     O_3   0.751350 0.900957 0.237189 -0.439328
O132  O     O_2   0.804397 0.315927 0.189661 -0.117590
O133  O     O_2   0.928996 0.304820 0.160326 -0.235143
O134  O     O_R   0.607310 0.060570 0.500010 -0.603368
O135  O     O_3   0.900958 0.248649 0.237189 -0.439328
O136  O     O_2   0.315928 0.195604 0.189661 -0.117587
O137  O     O_2   0.304820 0.071005 0.160326 -0.235143
O138  O     O_3   0.248650 0.099043 0.237189 -0.439328
O139  O     O_2   0.195603 0.684073 0.189661 -0.117587
O140  O     O_2   0.071004 0.695180 0.160326 -0.235143
O141  O     O_3   0.099042 0.751351 0.237189 -0.439328
O142  O     O_2   0.036987 0.706388 0.333914 -0.237578
O143  O     O_2   0.968966 0.656685 0.396614 -0.328782
O144  O     O_3   0.110608 0.652614 0.400547 -0.479422
S1    S     S_3+6 0.818690 0.382272 0.298309 0.151550
S2    S     S_3+6 0.884264 0.682523 0.798478 0.166294
S3    S     S_3+6 0.317479 0.884260 0.798478 0.166294
S4    S     S_3+6 0.115736 0.317477 0.798478 0.166295
S5    S     S_3+6 0.682522 0.884261 0.201522 0.166294
S6    S     S_3+6 0.884262 0.317478 0.201522 0.166293
S7    S     S_3+6 0.317478 0.115739 0.201522 0.166294
S8    S     S_3+6 0.115738 0.682522 0.201522 0.166295
S9    S     S_3+6 0.035849 0.646582 0.368178 0.076856
S10   S     S_3+6 0.353418 0.035849 0.368178 0.076856
S11   S     S_3+6 0.964152 0.353418 0.368178 0.076856
S12   S     S_3+6 0.617728 0.818689 0.298309 0.151550
S13   S     S_3+6 0.646582 0.964151 0.368178 0.076856
S14   S     S_3+6 0.035847 0.353418 0.631822 0.076856
S15   S     S_3+6 0.353419 0.964150 0.631822 0.076856
S16   S     S_3+6 0.964153 0.646582 0.631822 0.076856
S17   S     S_3+6 0.646581 0.035850 0.631822 0.076856
S18   S     S_3+6 0.462983 0.853690 0.868062 0.084228
S19   S     S_3+6 0.146309 0.462980 0.868062 0.084228
S20   S     S_3+6 0.537016 0.146310 0.868062 0.084228
S21   S     S_3+6 0.853691 0.537020 0.868062 0.084229
S22   S     S_3+6 0.462982 0.146310 0.131938 0.084228
S23   S     S_3+6 0.181310 0.617728 0.298309 0.151549
S24   S     S_3+6 0.146309 0.537018 0.131938 0.084228
S25   S     S_3+6 0.537018 0.853690 0.131938 0.084228
S26   S     S_3+6 0.853691 0.462982 0.131938 0.084228
S27   S     S_3+6 0.382272 0.181311 0.298309 0.151549
S28   S     S_3+6 0.818691 0.617730 0.701691 0.151550
S29   S     S_3+6 0.617726 0.181311 0.701691 0.151549
S30   S     S_3+6 0.181310 0.382270 0.701691 0.151549
S31   S     S_3+6 0.382273 0.818689 0.701691 0.151549
S32   S     S_3+6 0.682520 0.115740 0.798478 0.166294
Zn1   Zn    Zn3+2 0.000000 0.580890 0.000000 1.178523
Zn2   Zn    Zn3+2 0.500000 0.500000 0.950170 1.125609
Zn3   Zn    Zn3+2 0.000000 0.000000 0.549830 1.128605
Zn4   Zn    Zn3+2 0.000000 0.000000 0.450170 1.128606
Zn5   Zn    Zn3+2 0.419110 0.000000 0.000000 1.178524
Zn6   Zn    Zn3+2 0.000000 0.419110 0.000000 1.178524
Zn7   Zn    Zn3+2 0.580890 0.000000 0.000000 1.178524
Zn8   Zn    Zn3+2 0.500000 0.080890 0.500000 1.168795
Zn9   Zn    Zn3+2 0.919110 0.500000 0.500000 1.168795
Zn10  Zn    Zn3+2 0.500000 0.919110 0.500000 1.168795
Zn11  Zn    Zn3+2 0.080890 0.500000 0.500000 1.168795
Zn12  Zn    Zn3+2 0.500000 0.500000 0.049830 1.125609

loop_
_geom_bond_atom_site_label_1
_geom_bond_atom_site_label_2
_ccdc_geom_bond_type
C42   S10   S    
O118  S32   S    
O52   Zn8   S    
C3    C79   A    
C54   S22   S    
O30   S19   D    
C54   C65   A    
O17   S15   D    
C46   C62   A    
O57   Zn5   S    
C21   C59   S    
O1    Zn1   S    
C53   C64   A    
C9    C39   S    
C49   C78   A    
O42   S24   D    
C5    S6    S    
H1    O92   S    
C79   C90   A    
C7    S8    S    
C43   C58   A    
O99   S27   D    
C3    C100  A    
C50   O134  A    
O101  Zn5   S    
O143  S9    D    
O98   S23   S    
C50   O35   A    
H24   O44   S    
C96   S23   S    
O63   Zn8   S    
C35   O80   A    
O26   S18   D    
C40   O84   A    
C61   O53   A    
C37   O82   A    
C9    C26   T    
O8    S11   S    
O72   Zn12  S    
O141  S8    S    
C67   C85   A    
O39   S22   D    
C18   O60   A    
O14   S14   D    
C6    C97   A    
O94   S12   D    
C33   O77   A    
C74   C100  A    
C82   C91   A    
C24   C32   S    
C73   C88   A    
C100  S30   S    
C101  S31   S    
H17   O25   S    
O112  Zn1   S    
H3    O125  S    
C47   C71   A    
O95   S12   S    
O34   S20   S    
O116  S32   D    
C8    C28   S    
C77   C103  A    
C41   C69   A    
O142  S9    D    
C15   O55   A    
C51   C64   A    
O144  S9    S    
C52   C63   A    
C36   O81   A    
C22   C58   S    
C31   C38   S    
O123  Zn7   S    
O106  S29   D    
O53   Zn11  S    
C4    S5    S    
C39   O79   A    
O19   S16   D    
C6    S7    S    
C16   O59   A    
O130  S5    D    
O62   Zn7   S    
H4    O128  S    
O40   S22   D    
O70   Zn8   S    
C88   C89   A    
C83   O46   A    
C75   C101  A    
O100  S27   D    
C10   C27   T    
C21   O67   A    
C57   C66   A    
O84   Zn3   S    
O35   Zn10  S    
C38   O85   A    
C41   C58   A    
C4    C80   A    
C56   S25   S    
C104  S3    S    
O103  S28   D    
C61   O2    A    
C44   C59   A    
C42   C70   A    
O71   Zn11  S    
O83   Zn3   S    
O66   Zn11  S    
C20   O64   A    
C34   O74   A    
C15   O58   A    
C43   S11   S    
C22   O71   A    
C74   C87   A    
C32   O72   A    
O129  S5    D    
C76   C89   A    
O104  S28   D    
C32   O78   A    
C2    C17   S    
H21   O38   S    
C46   C75   A    
C85   C92   A    
O110  S30   D    
C76   C102  A    
C78   C104  A    
H10   O5    S    
O133  S6    D    
H26   O51   S    
O127  S4    D    
C45   C74   A    
C21   O70   A    
O67   Zn10  S    
C48   C62   A    
C27   C40   S    
O134  Zn8   S    
O105  S28   S    
H9    O144  S    
O122  S3    D    
C3    S4    S    
O13   Zn10  S    
O2    Zn9   S    
C17   O123  A    
O82   Zn3   S    
C39   O101  A    
C1    O1    A    
O135  S6    S    
H11   O8    S    
O114  S31   D    
C38   O83   A    
H31   O115  S    
C52   C76   A    
C42   C59   A    
O29   S19   D    
C19   O63   A    
C56   C80   A    
C52   S20   S    
C20   O66   A    
O49   S26   D    
O60   Zn5   S    
O24   Zn11  S    
O41   S22   S    
C57   S26   S    
C51   C79   A    
O68   Zn6   S    
O4    S10   D    
C14   O54   A    
O36   S21   D    
O131  S5    S    
C43   C67   A    
O97   S23   D    
C67   C93   A    
O23   S17   D    
C25   C33   S    
C1    O90   A    
O81   Zn3   S    
C45   S14   S    
H5    O131  S    
C51   S19   S    
C69   C85   A    
O5    S10   S    
O136  S7    D    
C7    C96   A    
C49   C63   A    
C86   C91   A    
H29   O108  S    
H27   O102  S    
C98   C103  A    
C15   C65   S    
O32   S20   D    
C28   O112  A    
H7    O138  S    
O77   Zn2   S    
O125  S3    S    
C17   O57   A    
O126  S4    D    
C83   O24   A    
C18   O62   A    
H2    O121  S    
O115  S31   S    
O89   S1    D    
C20   C60   S    
C103  S2    S    
C70   C97   A    
C12   C72   S    
C78   C89   A    
O58   Zn7   S    
O117  S32   D    
C8    C25   T    
O47   S25   D    
O139  S8    D    
O91   S1    D    
O18   S15   S    
C77   C90   A    
C97   S27   S    
C98   S28   S    
C68   C95   A    
O16   S15   D    
O64   Zn9   S    
O109  S30   D    
C11   C61   S    
C30   C37   S    
C53   C77   A    
C4    C95   A    
C5    C81   A    
O38   S21   S    
O50   S26   D    
C36   O87   A    
C71   C87   A    
H25   O48   S    
C101  C104  A    
C23   C35   S    
C44   S13   S    
H16   O21   S    
O128  S4    S    
C48   S17   S    
C10   C50   S    
H30   O111  S    
C54   C82   A    
O124  S3    D    
O21   S16   S    
O79   Zn7   S    
O140  S8    D    
O75   Zn12  S    
O69   Zn9   S    
C12   C30   T    
O74   Zn12  S    
C48   C73   A    
C13   C31   T    
O51   S26   S    
O78   Zn2   S    
O12   S14   D    
C13   C83   S    
O92   S1    S    
O120  S2    D    
H13   O11   S    
C80   C91   A    
O102  S27   S    
O107  S29   D    
O87   Zn4   S    
O48   S25   S    
C49   S18   S    
C55   S24   S    
O33   S20   D    
C53   S21   S    
O85   Zn4   S    
H28   O105  S    
C99   C102  A    
C87   C90   A    
C44   C68   A    
O138  S7    S    
C55   C84   A    
O3    S10   D    
C16   O61   A    
O111  S30   S    
C45   C60   A    
C6    C82   A    
O37   S21   D    
O15   S14   S    
C68   C86   A    
O88   Zn4   S    
O76   Zn2   S    
C19   O65   A    
C69   C96   A    
O25   S17   S    
O108  S29   S    
C93   S1    S    
O59   Zn6   S    
H18   O28   S    
O22   S17   D    
C29   C36   S    
C40   O88   A    
H32   O118  S    
C37   O86   A    
H6    O135  S    
C18   C63   S    
C19   C62   S    
C56   C65   A    
O61   Zn1   S    
H22   O41   S    
C35   O75   A    
H8    O141  S    
C72   O52   A    
C47   C60   A    
C33   O73   A    
C26   C34   S    
C1    C94   S    
O45   S25   D    
O56   Zn6   S    
O28   S18   S    
O113  S31   D    
H19   O31   S    
O80   Zn2   S    
C7    C84   A    
C102  S32   S    
O46   Zn9   S    
C81   C92   A    
O43   S24   D    
O10   S13   D    
O96   S23   D    
C71   C98   A    
O20   S16   D    
C28   O68   A    
O27   S18   D    
O11   S13   S    
O55   Zn5   S    
C22   O69   A    
O90   Zn6   S    
C14   C66   S    
C95   S12   S    
C47   S16   S    
C34   O76   A    
O54   Zn1   S    
O7    S11   D    
O86   Zn4   S    
H12   O95   S    
C2    C24   T    
O121  S2    S    
C57   C81   A    
C99   S29   S    
C46   S15   S    
C70   C86   A    
O6    S11   D    
C73   C99   A    
H23   O98   S    
O31   S19   S    
O132  S6    D    
O93   S12   D    
C5    C93   A    
C41   S9    S    
H15   O18   S    
C84   C92   A    
C23   C94   T    
C14   O56   A    
O9    S13   D    
O65   Zn10  S    
O73   Zn12  S    
O137  S7    D    
O119  S2    D    
H14   O15   S    
O44   S24   S    
C75   C88   A    
H20   O34   S    
C11   C29   T    
C72   O13   A    
C16   C64   S    
C55   C66   A    
