data_mof_unit_63145.cif
_audit_creation_date              2012-12-10T17:57:01-0500
_audit_creation_method            fapswitch 2.2
_symmetry_space_group_name_H-M    P1
_symmetry_Int_Tables_number       1
_space_group_crystal_system       triclinic
_cell_length_a                    18.693774
_cell_length_b                    18.612577
_cell_length_c                    18.735305
_cell_angle_alpha                 109.307849
_cell_angle_beta                  109.526328
_cell_angle_gamma                 109.294139
_cell_volume                      5035.70990042

loop_
_atom_site_label
_atom_site_type_symbol
_atom_type_description
_atom_site_fract_x
_atom_site_fract_y
_atom_site_fract_z
_atom_type_partial_charge
C1    C     C_R   0.379335 0.379532 0.499515 0.977574
C2    C     C_R   0.312817 0.312778 0.498906 -0.145736
C3    C     C_R   0.315366 0.573832 0.318416 -0.147479
C4    C     C_R   0.617118 0.496353 0.620458 0.962580
C5    C     C_R   0.253982 0.573674 0.252340 -0.183218
C6    C     C_R   0.183761 0.494318 0.180168 -0.085454
C7    C     C_R   0.174301 0.413101 0.172431 -0.081429
C8    C     C_R   0.236787 0.413333 0.240109 -0.219628
C9    C     C_R   0.307636 0.494632 0.312256 -0.102308
C10   C     C_R   0.756873 0.758800 0.579557 -0.189435
C11   C     C_R   0.821717 0.821825 0.579434 -0.137242
C12   C     C_3   0.808315 0.499241 0.808745 -0.176377
C13   C     C_R   0.814056 0.813254 0.499890 0.006301
C14   C     C_R   0.742926 0.741774 0.420535 -0.182659
C15   C     C_R   0.679480 0.677419 0.420694 -0.165240
C16   C     C_R   0.620333 0.620323 0.500147 0.849806
C17   C     C_R   0.686454 0.686557 0.500176 -0.013093
C18   C     C_R   0.997869 0.379293 0.877436 0.955471
C19   C     C_R   0.876760 0.500861 0.877292 0.974758
C20   C     C_R   0.996967 0.620311 0.117126 0.850766
C21   C     C_R   0.117987 0.498057 0.116465 0.894388
C22   C     C_R   0.001046 0.880071 0.380454 0.844099
C23   C     C_3   0.845897 0.578213 0.794319 0.474185
C24   C     C_R   0.119928 0.120267 0.500068 0.882935
C25   C     C_R   0.998119 0.118675 0.618943 0.905631
C26   C     C_R   0.879982 0.879291 0.499570 0.904845
C27   C     C_R   0.060540 0.334470 0.786301 -0.126703
C28   C     C_R   0.377574 0.498416 0.379185 0.837415
C29   C     C_R   0.059526 0.269579 0.722684 -0.187598
C30   C     C_R   0.995402 0.182566 0.683757 -0.075598
C31   C     C_R   0.931433 0.158383 0.708209 -0.035300
C32   C     C_R   0.934084 0.224344 0.773169 -0.178608
C33   C     C_R   0.997700 0.311914 0.811415 -0.037375
C34   C     C_3   0.738701 0.502923 0.835351 -0.457343
C35   C     C_R   0.000501 0.760029 0.178358 -0.154913
C36   C     C_R   0.000909 0.823679 0.242985 -0.162994
C37   C     C_R   0.001877 0.814657 0.314402 -0.012580
C38   C     C_R   0.001634 0.742195 0.321440 -0.176257
C39   C     C_R   0.998531 0.677201 0.255460 -0.173469
C40   C     C_3   0.687013 0.406925 0.651347 -0.374962
C41   C     C_R   0.998391 0.686662 0.184456 -0.016784
C42   C     C_3   0.764708 0.412399 0.722317 0.968658
C43   C     C_3   0.772837 0.570798 0.718138 -0.524723
C44   C     C_3   0.671919 0.513561 0.770977 -0.187837
C45   C     C_R   0.245746 0.325460 0.507263 -0.252003
C46   C     C_3   0.683111 0.494316 0.688151 -0.182214
C47   C     C_2   0.100576 0.329004 0.093645 0.966064
C48   C     C_2   0.601626 0.323375 0.610450 1.102762
C49   C     C_2   0.228432 0.329292 0.235680 1.029290
C50   C     C_2   0.861810 0.066403 0.668519 0.885029
C51   C     C_2   0.581101 0.464681 0.757305 0.978717
C52   C     C_R   0.181031 0.261105 0.506167 -0.159167
C53   C     C_R   0.185572 0.185994 0.499509 -0.096205
C54   C     C_R   0.252874 0.173507 0.492174 -0.267206
C55   C     C_R   0.316004 0.236361 0.490333 0.668265
F1    F     F_    0.881840 0.656697 0.869446 -0.650279
F2    F     F_    0.380983 0.223665 0.482425 -0.623895
F3    F     F_    0.737943 0.340830 0.735060 -0.620409
F4    F     F_    0.825425 0.411435 0.695518 -0.689446
H1    H     H_    0.701946 0.403203 0.597762 0.179352
H2    H     H_    0.876760 0.877761 0.640826 0.159834
H3    H     H_    0.737427 0.735341 0.359019 0.149397
H4    H     H_    0.624533 0.621450 0.359267 0.153842
H5    H     H_    0.110429 0.401900 0.815841 0.163307
H6    H     H_    0.108472 0.287079 0.703381 0.135871
H7    H     H_    0.885305 0.207531 0.792742 0.206945
H8    H     H_    0.000238 0.767030 0.123108 0.176493
H9    H     H_    0.001372 0.880159 0.237923 0.160841
H10   H     H_    0.001912 0.735240 0.376708 0.148936
H11   H     H_    0.997512 0.620437 0.260209 0.150383
H12   H     H_    0.770501 0.558739 0.902436 0.215791
H13   H     H_    0.786541 0.559388 0.663116 0.162537
H14   H     H_    0.898469 0.578944 0.778656 0.146366
H15   H     H_    0.690008 0.583938 0.803589 0.181482
H16   H     H_    0.705156 0.441945 0.836691 0.249449
H17   H     H_    0.031802 0.257179 0.962358 0.352820
H18   H     H_    0.515914 0.240130 0.627043 0.373009
H19   H     H_    0.224559 0.358414 0.347642 0.276945
H20   H     H_    0.778804 0.977976 0.682920 0.353092
H21   H     H_    0.452247 0.380721 0.675433 0.340762
H22   H     H_    0.772538 0.634079 0.738578 0.230537
H23   H     H_    0.242921 0.384275 0.513282 0.171554
H24   H     H_    0.128549 0.270323 0.512018 0.157783
H25   H     H_    0.255546 0.114704 0.486582 0.174941
H26   H     H_    0.370158 0.635956 0.373712 0.156482
H27   H     H_    0.260395 0.635704 0.258198 0.156447
H28   H     H_    0.762183 0.765417 0.641066 0.154955
O1    O     O_R   0.408680 0.356690 0.448540 -0.530578
O2    O     O_R   0.052580 0.908350 0.460820 -0.621237
O3    O     O_R   0.039640 0.091520 0.447910 -0.617651
O4    O     O_R   0.408060 0.460070 0.551440 -0.636162
O5    O     O_R   0.143620 0.091540 0.551930 -0.617286
O6    O     O_R   0.947420 0.091470 0.539000 -0.583507
O7    O     O_R   0.051410 0.091490 0.643030 -0.620226
O8    O     O_R   0.856380 0.908290 0.447890 -0.587390
O9    O     O_R   0.960370 0.908300 0.551910 -0.633984
O10   O     O_R   0.592410 0.448290 0.540650 -0.607284
O11   O     O_R   0.591790 0.551670 0.643550 -0.627757
O12   O     O_R   0.049540 0.460010 0.906120 -0.630794
O13   O     O_R   0.591940 0.539930 0.448560 -0.623933
O14   O     O_R   0.591320 0.643310 0.551460 -0.621485
O15   O     O_R   0.408210 0.448330 0.356450 -0.607650
O16   O     O_R   0.407590 0.551710 0.459350 -0.627047
O17   O     O_R   0.946090 0.356640 0.906180 -0.605318
O18   O     O_2   0.055219 0.270645 0.101325 -0.590320
O19   O     O_R   0.083303 0.316934 0.010741 -0.806824
O20   O     O_2   0.559196 0.276500 0.531147 -0.538381
O21   O     O_R   0.573091 0.297597 0.662561 -0.736662
O22   O     O_2   0.224746 0.275213 0.173814 -0.535751
O23   O     O_R   0.853500 0.448290 0.905220 -0.584569
O24   O     O_R   0.224861 0.311114 0.301453 -0.756255
O25   O     O_2   0.834355 0.012460 0.593490 -0.627538
O26   O     O_R   0.825693 0.041981 0.716776 -0.791663
O27   O     O_2   0.571630 0.477558 0.821085 -0.609831
O28   O     O_R   0.508075 0.408204 0.673947 -0.799814
O29   O     O_R   0.956960 0.551660 0.905160 -0.604793
O30   O     O_R   0.945110 0.539900 0.088450 -0.627557
O31   O     O_R   0.048570 0.643270 0.088390 -0.614681
O32   O     O_R   0.037700 0.448250 0.089410 -0.619787
O33   O     O_R   0.141150 0.551620 0.089350 -0.619785
O34   O     O_R   0.948590 0.908340 0.356800 -0.622753
Zn1   Zn    Zn3+2 0.500420 0.430970 0.431290 1.088274
Zn2   Zn    Zn3+2 0.499580 0.569030 0.568710 0.988434
Zn3   Zn    Zn3+2 0.928250 0.430930 0.997320 1.051297
Zn4   Zn    Zn3+2 0.066410 0.568980 0.997240 1.025728
Zn5   Zn    Zn3+2 0.930570 0.999900 0.430450 1.028457
Zn6   Zn    Zn3+2 0.069430 0.999920 0.569370 0.997533

loop_
_geom_bond_atom_site_label_1
_geom_bond_atom_site_label_2
_ccdc_geom_bond_type
C25   O6    A    
C43   H13   S    
C40   H1    S    
C4    O11   A    
C27   C29   A    
C11   C13   A    
C45   H23   S    
O8    Zn5   S    
O16   Zn2   S    
C42   F3    S    
C20   O31   A    
C20   C41   S    
C7    C8    A    
C39   C41   A    
C4    C46   S    
C53   C54   A    
C27   C33   A    
C40   C46   S    
C12   C23   S    
C29   C30   A    
C32   H7    S    
C36   C37   A    
O30   Zn3   S    
C21   O33   A    
C2    C55   A    
C30   C31   A    
C48   O20   D    
C3    H26   S    
C10   C17   A    
C14   H3    S    
C26   O8    A    
C23   C43   S    
C15   C17   A    
C1    C2    S    
O6    Zn5   S    
C12   C42   S    
O23   Zn3   S    
C22   O2    A    
C35   C36   A    
C8    C9    A    
C47   O18   D    
H19   O24   S    
O31   Zn4   S    
C13   C14   A    
C34   H16   S    
C49   O24   S    
C1    O1    A    
C40   C42   S    
C38   H10   S    
C25   O7    A    
C1    O4    A    
O4    Zn2   S    
C4    O10   A    
C23   H14   S    
C24   O5    A    
C54   H25   S    
C20   O30   A    
C43   C46   S    
C44   C46   S    
C2    C45   A    
C26   O9    A    
O11   Zn2   S    
C10   H28   S    
C51   O27   D    
C23   F1    S    
C34   C44   S    
O12   Zn4   S    
C27   H5    S    
O33   Zn4   S    
C16   C17   S    
C45   C52   A    
C3    C5    A    
C24   C53   S    
O32   Zn3   S    
C22   C37   S    
C51   O28   S    
O9    Zn6   S    
C7    C47   S    
C37   C38   A    
C52   H24   S    
O10   Zn1   S    
C3    C9    A    
C31   C32   A    
H21   O28   S    
C35   H8    S    
C47   O19   S    
C50   O25   D    
O3    Zn5   S    
C18   O17   A    
C44   H15   S    
C48   O21   S    
O14   Zn2   S    
C29   H6    S    
C5    H27   S    
C44   C51   S    
O1    Zn1   S    
O29   Zn4   S    
H20   O26   S    
C43   H22   S    
C13   C26   S    
C18   O12   A    
C31   C50   S    
C12   C34   S    
O5    Zn6   S    
C52   C53   A    
C22   O34   A    
C49   O22   D    
O2    Zn6   S    
C19   O23   A    
C25   C30   S    
C40   C48   S    
C54   C55   A    
H17   O19   S    
C38   C39   A    
H18   O21   S    
C16   O13   A    
C11   H2    S    
C24   O3    A    
C42   F4    S    
C36   H9    S    
C6    C7    A    
O17   Zn3   S    
C50   O26   S    
C32   C33   A    
C55   F2    S    
O34   Zn5   S    
C21   O32   A    
C6    C21   S    
C28   O16   A    
C5    C6    A    
C19   O29   A    
C34   H12   S    
C12   C19   S    
C39   H11   S    
O13   Zn1   S    
O7    Zn6   S    
C35   C41   A    
C18   C33   S    
C10   C11   A    
C28   O15   A    
C16   O14   A    
C15   H4    S    
C14   C15   A    
O15   Zn1   S    
C8    C49   S    
C9    C28   S    
