data_mof_unit_59802.cif
_audit_creation_date              2012-12-11T15:55:48-0500
_audit_creation_method            fapswitch 2.2
_symmetry_space_group_name_H-M    P1
_symmetry_Int_Tables_number       1
_space_group_crystal_system       triclinic
_cell_length_a                    6.961783
_cell_length_b                    14.524101
_cell_length_c                    16.119121
_cell_angle_alpha                 89.876684
_cell_angle_beta                  90.290224
_cell_angle_gamma                 90.25391
_cell_volume                      1629.8223786

loop_
_atom_site_label
_atom_site_type_symbol
_atom_type_description
_atom_site_fract_x
_atom_site_fract_y
_atom_site_fract_z
_atom_type_partial_charge
O1    O     O_R   0.505680 0.583900 0.413320 -0.541662
O2    O     O_R   0.176010 0.594950 0.586080 -0.516483
O3    O     O_R   0.005680 0.416100 0.586680 -0.536970
C1    C     C_R   0.346002 0.618372 0.614162 0.752843
O4    O     O_R   0.175960 0.594930 0.413930 -0.546464
O5    O     O_R   0.005640 0.416080 0.413300 -0.540256
C2    C     C_R   0.344943 0.617182 0.385130 0.671446
O6    O     O_R   0.505720 0.583920 0.586700 -0.518380
O7    O     O_3   0.339190 0.441320 0.500000 -0.379541
V1    V     V_3+5 0.064350 0.510890 0.500000 1.437638
O8    O     O_R   0.675920 0.405050 0.413920 -0.548494
C3    C     C_R   0.843912 0.381683 0.385774 0.679675
O9    O     O_R   0.675960 0.405070 0.586070 -0.547982
C4    C     C_R   0.844835 0.382798 0.614625 0.676357
V2    V     V_3+5 0.564340 0.489110 0.500000 1.409079
O10   O     O_3   0.839370 0.558680 0.500000 -0.352152
C5    C     C_R   0.009209 0.316715 0.740688 0.091632
C6    C     C_R   0.852766 0.317891 0.685699 -0.111983
C7    C     C_R   0.699026 0.257623 0.702804 -0.177463
H1    H     H_    0.575084 0.256028 0.662310 0.135957
C8    C     C_R   0.709778 0.194020 0.768771 -0.182889
H2    H     H_    0.592609 0.146103 0.777693 0.123127
C9    C     C_R   0.875563 0.187826 0.818941 -0.110478
C10   C     C_R   0.020750 0.253068 0.805400 0.113169
C11   C     C_3   0.230080 0.238971 0.792299 -0.413537
C12   C     C_3   0.217722 0.308861 0.722243 -0.401814
H3    H     H_    0.261726 0.168084 0.770558 0.162469
H4    H     H_    0.317648 0.263243 0.845866 0.176631
H5    H     H_    0.243381 0.278776 0.659936 0.172048
H6    H     H_    0.297127 0.373818 0.735500 0.163512
C13   C     C_R   0.033874 0.242561 0.203934 -0.145759
H7    H     H_    0.164741 0.240594 0.167942 0.131420
C14   C     C_R   0.019636 0.306138 0.268884 -0.167677
H8    H     H_    0.139949 0.351882 0.280369 0.125126
C15   C     C_R   0.852199 0.312006 0.317465 -0.099203
C16   C     C_R   0.697566 0.250739 0.298998 0.194140
C17   C     C_R   0.712836 0.188513 0.233050 -0.122860
H9    H     H_    0.593006 0.142670 0.220395 0.138394
C18   C     C_R   0.879738 0.183662 0.184690 -0.110205
C19   C     C_R   0.197673 0.744443 0.701121 0.166629
C20   C     C_R   0.204595 0.802419 0.771210 -0.289601
H10   H     H_    0.076036 0.836316 0.791895 0.204125
C21   C     C_R   0.380032 0.823651 0.809545 -0.256380
C22   C     C_R   0.547424 0.789925 0.771973 0.381247
C23   C     C_R   0.535388 0.711997 0.720438 0.318665
C24   C     C_R   0.358862 0.690446 0.680666 -0.248452
C25   C     C_R   0.188793 0.724509 0.282221 -0.159929
H11   H     H_    0.048560 0.705873 0.305851 0.116872
C26   C     C_R   0.200042 0.788042 0.216941 -0.149285
H12   H     H_    0.067847 0.816525 0.192493 0.119556
C27   C     C_R   0.378990 0.814447 0.183852 -0.044781
C28   C     C_R   0.546374 0.775571 0.217972 -0.157989
H13   H     H_    0.686605 0.794220 0.194348 0.116992
C29   C     C_R   0.535124 0.712035 0.283253 -0.150416
H14   H     H_    0.667313 0.683556 0.307712 0.119217
C30   C     C_R   0.356166 0.685591 0.316306 -0.043460
O11   O     O_R   0.229200 0.915950 0.913350 -0.540207
O12   O     O_R   0.559090 0.905000 0.086080 -0.544881
O13   O     O_R   0.729280 0.083880 0.086680 -0.542377
C31   C     C_R   0.390147 0.882770 0.114948 0.685284
O14   O     O_R   0.558920 0.904980 0.913920 -0.523571
O15   O     O_R   0.729110 0.083860 0.913300 -0.544829
C32   C     C_R   0.389889 0.886269 0.882686 0.735748
O16   O     O_R   0.229360 0.915970 0.086730 -0.540351
O17   O     O_3   0.395680 0.058580 0.000030 -0.374984
V3    V     V_3+5 0.670570 0.989070 0.999990 1.418038
O18   O     O_R   0.058820 0.094950 0.913870 -0.541298
C33   C     C_R   0.889644 0.117113 0.885242 0.682762
O19   O     O_R   0.058990 0.094970 0.086020 -0.541586
C34   C     C_R   0.890590 0.116724 0.115081 0.696098
V4    V     V_3+5 0.170560 0.010930 0.999930 1.404473
O20   O     O_3   0.895590 0.941310 0.999960 -0.363549
N1    N     N_3   0.033751 0.745678 0.647196 -0.558521
H15   H     H_    0.939121 0.795560 0.667270 0.269735
H16   H     H_    0.080042 0.769132 0.589217 0.199271
O21   O     O_3   0.720310 0.837016 0.776943 -0.573102
C35   C     C_3   0.706103 0.925771 0.738720 0.076196
H17   H     H_    0.852480 0.956507 0.738767 0.121782
H18   H     H_    0.616612 0.973043 0.775881 0.120650
C36   C     C_3   0.630287 0.925032 0.648190 -0.372422
H19   H     H_    0.714519 0.877471 0.609209 0.200866
H20   H     H_    0.478050 0.901921 0.646415 0.189674
C37   C     C_3   0.639617 0.020957 0.609572 -0.824057
H21   H     H_    0.541352 0.068183 0.642626 0.224180
H22   H     H_    0.593756 0.017413 0.543572 0.235761
H23   H     H_    0.788462 0.048717 0.612378 0.236201
O22   O     O_3   0.702216 0.666324 0.700483 -0.539276
C38   C     C_3   0.720923 0.586823 0.750768 0.173747
H24   H     H_    0.815306 0.538323 0.717163 0.138082
H25   H     H_    0.581650 0.550056 0.760619 0.056986
C39   C     C_3   0.816457 0.609893 0.834134 -0.319558
H26   H     H_    0.950138 0.650010 0.823265 0.228543
H27   H     H_    0.717865 0.652271 0.872085 0.185970
C40   C     C_3   0.866330 0.522602 0.882345 -0.861201
H28   H     H_    0.735132 0.480535 0.893181 0.234188
H29   H     H_    0.930194 0.541437 0.943276 0.237982
H30   H     H_    0.972411 0.481133 0.847484 0.231555
N2    N     N_3   0.524752 0.247582 0.346826 -0.676431
H31   H     H_    0.450919 0.309430 0.338999 0.240869
H32   H     H_    0.560333 0.238234 0.409363 0.232140

loop_
_geom_bond_atom_site_label_1
_geom_bond_atom_site_label_2
_ccdc_geom_bond_type
O22   C38   S    
C20   C21   A    
N1    H15   S    
C4    C6    S    
C15   C16   A    
C1    O6    A    
C21   C32   S    
C25   C26   A    
C1    C24   S    
C35   H17   S    
C22   C23   A    
C11   H4    S    
C19   C24   A    
C5    C12   S    
C16   C17   A    
C23   O22   S    
O13   V3    S    
O5    C3    A    
O12   C31   A    
V2    O10   S    
N2    H31   S    
C19   N1    S    
C5    C6    A    
C6    C7    A    
C20   H10   S    
O16   V4    S    
O14   C32   A    
O8    V2    S    
O14   V3    S    
O12   V3    S    
V3    O20   S    
C37   H21   S    
C26   C27   A    
C9    C10   A    
C13   C14   A    
O1    V2    S    
O7    V1    S    
O9    C4    A    
N1    H16   S    
C40   H28   S    
C2    C30   S    
C36   C37   S    
C28   C29   A    
O11   C32   A    
C35   H18   S    
C29   C30   A    
C5    C10   A    
O19   V4    S    
O15   V3    S    
O18   C33   A    
C25   H11   S    
C10   C11   S    
C36   H20   S    
C39   H26   S    
O4    C2    A    
C40   H30   S    
C11   C12   S    
C23   C24   A    
O11   V4    S    
C27   C28   A    
C9    C33   S    
O2    C1    A    
C21   C22   A    
C17   H9    S    
C39   H27   S    
C13   H7    S    
C38   C39   S    
C14   H8    S    
O21   C35   S    
C3    C15   S    
C40   H29   S    
O3    C4    A    
C19   C20   A    
C37   H22   S    
C38   H25   S    
C12   H6    S    
O6    V2    S    
N2    H32   S    
C8    C9    A    
O2    V1    S    
C28   H13   S    
C35   C36   S    
C29   H14   S    
C7    C8    A    
O1    C2    A    
C36   H19   S    
O5    V1    S    
C16   N2    S    
O8    C3    A    
C11   H3    S    
O15   C33   A    
C31   O16   A    
C7    H1    S    
O9    V2    S    
O7    V2    S    
O4    V1    S    
C17   C18   A    
O3    V1    S    
O17   V4    S    
C39   C40   S    
C14   C15   A    
C18   C34   S    
C13   C18   A    
O18   V4    S    
O17   V3    S    
O19   C34   A    
O13   C34   A    
V4    O20   S    
C37   H23   S    
C38   H24   S    
C12   H5    S    
C26   H12   S    
V1    O10   S    
C27   C31   S    
C22   O21   S    
C8    H2    S    
C25   C30   A    
