data_mof_unit_50132.cif
_audit_creation_date              2012-12-11T16:41:23-0500
_audit_creation_method            fapswitch 2.2
_symmetry_space_group_name_H-M    P1
_symmetry_Int_Tables_number       1
_space_group_crystal_system       triclinic
_cell_length_a                    6.921489
_cell_length_b                    23.145824
_cell_length_c                    23.675811
_cell_angle_alpha                 112.549026
_cell_angle_beta                  91.009634
_cell_angle_gamma                 91.154926
_cell_volume                      3500.95327081

loop_
_atom_site_label
_atom_site_type_symbol
_atom_type_description
_atom_site_fract_x
_atom_site_fract_y
_atom_site_fract_z
_atom_type_partial_charge
O1    O     O_R   0.505740 0.453370 0.547760 -0.543435
O2    O     O_R   0.169520 0.427650 0.423350 -0.522267
O3    O     O_R   0.005620 0.546630 0.452240 -0.533017
C1    C     C_R   0.336121 0.408110 0.399686 0.757958
O4    O     O_R   0.175610 0.445960 0.545510 -0.520833
O5    O     O_R   0.011740 0.565080 0.575280 -0.540764
C2    C     C_R   0.344381 0.434158 0.562723 0.699024
O6    O     O_R   0.499610 0.434920 0.424720 -0.551135
O7    O     O_3   0.341310 0.539060 0.509620 -0.370036
V1    V     V_3+5 0.063960 0.492750 0.498220 1.448241
O8    O     O_R   0.682400 0.572350 0.576650 -0.541204
C3    C     C_R   0.855373 0.590203 0.600926 0.685518
O9    O     O_R   0.676320 0.554040 0.454490 -0.545021
C4    C     C_R   0.845083 0.565698 0.437273 0.700178
V2    V     V_3+5 0.564740 0.507250 0.501780 1.395169
O10   O     O_3   0.837250 0.460940 0.490380 -0.367916
C5    C     C_R   0.772489 0.877002 0.115653 -0.159831
H1    H     H_    0.639363 0.891061 0.100562 0.121636
C6    C     C_R   0.761087 0.840635 0.151107 -0.143420
H2    H     H_    0.619735 0.827207 0.161640 0.099968
C7    C     C_R   0.929604 0.821005 0.171813 0.107037
C8    C     C_R   0.109982 0.838620 0.155826 -0.140611
H3    H     H_    0.242829 0.825156 0.171649 0.100142
C9    C     C_R   0.121453 0.874914 0.120227 -0.161991
H4    H     H_    0.262807 0.887820 0.109176 0.118561
C10   C     C_R   0.952802 0.894712 0.099720 -0.056439
C11   C     C_R   0.045977 0.733808 0.201695 -0.206030
H5    H     H_    0.153120 0.723082 0.166590 0.115754
C12   C     C_R   0.035556 0.697330 0.237431 0.208416
C13   C     C_R   0.894907 0.709594 0.282905 0.081074
C14   C     C_R   0.765058 0.757807 0.290489 -0.221290
H6    H     H_    0.656367 0.768501 0.325124 0.124272
C15   C     C_R   0.776049 0.793718 0.254615 -0.153744
H7    H     H_    0.675785 0.831196 0.262737 0.118250
C16   C     C_R   0.917187 0.782433 0.209911 0.056752
C17   C     C_R   0.701923 0.649935 0.333307 -0.158211
H8    H     H_    0.571126 0.657769 0.311810 0.113491
C18   C     C_R   0.689280 0.615727 0.370884 -0.162798
H9    H     H_    0.548822 0.598118 0.377414 0.125821
C19   C     C_R   0.856346 0.603581 0.398780 -0.055384
C20   C     C_R   0.035806 0.627170 0.388659 -0.167231
H10   H     H_    0.167370 0.619286 0.409766 0.123537
C21   C     C_R   0.048047 0.661792 0.351592 -0.095469
H11   H     H_    0.187924 0.680402 0.345962 0.119991
C22   C     C_R   0.881716 0.672954 0.322785 0.121302
C23   C     C_R   0.885793 0.643023 0.660884 -0.088982
C24   C     C_R   0.924211 0.854923 0.839916 -0.172838
C25   C     C_R   0.703290 0.801920 0.751247 0.407759
C26   C     C_R   0.756792 0.853775 0.804784 -0.302503
C27   C     C_R   0.042338 0.802092 0.820939 0.122784
C28   C     C_R   0.988857 0.749092 0.767770 0.101057
C29   C     C_R   0.818007 0.748642 0.733219 0.018811
C30   C     C_R   0.766924 0.695037 0.680293 -0.189182
C31   C     C_R   0.052339 0.644002 0.696129 -0.189356
C32   C     C_R   0.102700 0.695826 0.748692 -0.094939
H12   H     H_    0.640149 0.694611 0.652616 0.162015
H13   H     H_    0.147350 0.604649 0.682307 0.117395
H14   H     H_    0.233550 0.694090 0.773677 0.160583
H15   H     H_    0.663657 0.893474 0.820280 0.143702
C33   C     C_R   0.338493 0.351830 0.340513 -0.196539
C34   C     C_R   0.471766 0.146628 0.160040 -0.065613
C35   C     C_R   0.616536 0.205559 0.261222 -0.140733
C36   C     C_R   0.616386 0.154551 0.204909 -0.197094
C37   C     C_R   0.328986 0.192216 0.172286 -0.191916
C38   C     C_R   0.332019 0.245086 0.228270 0.043486
C39   C     C_R   0.474857 0.251512 0.273830 0.153350
C40   C     C_R   0.475799 0.303954 0.330408 0.052160
C41   C     C_R   0.198708 0.345521 0.294084 0.386957
C42   C     C_R   0.197475 0.292333 0.238476 -0.281730
H16   H     H_    0.730323 0.209180 0.294480 0.157921
H17   H     H_    0.095208 0.288762 0.202084 0.133386
H18   H     H_    0.728519 0.120514 0.196751 0.127312
H19   H     H_    0.218406 0.187317 0.137620 0.119911
C43   C     C_R   0.277997 0.124958 0.885913 -0.162683
H20   H     H_    0.146128 0.115944 0.905485 0.121007
C44   C     C_R   0.268334 0.159605 0.848821 -0.142589
H21   H     H_    0.129693 0.176934 0.841708 0.099880
C45   C     C_R   0.435546 0.172669 0.822291 0.097175
C46   C     C_R   0.612932 0.150204 0.834191 -0.144534
H22   H     H_    0.744211 0.158272 0.813781 0.099047
C47   C     C_R   0.622834 0.115939 0.871706 -0.169798
H23   H     H_    0.761637 0.099079 0.879453 0.117566
C48   C     C_R   0.455435 0.102842 0.898051 -0.052169
C49   C     C_R   0.575157 0.251962 0.783656 -0.153887
H24   H     H_    0.700947 0.258783 0.813578 0.109673
C50   C     C_R   0.563051 0.287380 0.747269 -0.153715
H25   H     H_    0.679868 0.320297 0.750085 0.105694
C51   C     C_R   0.399733 0.281733 0.709106 0.107697
C52   C     C_R   0.249965 0.239195 0.707735 -0.150486
H26   H     H_    0.123634 0.232840 0.678099 0.113035
C53   C     C_R   0.262421 0.203579 0.743857 -0.156988
H27   H     H_    0.145419 0.170666 0.740776 0.108552
C54   C     C_R   0.424626 0.209695 0.782668 0.082285
C55   C     C_R   0.207554 0.346747 0.665365 -0.209824
H28   H     H_    0.080959 0.338774 0.687942 0.112017
C56   C     C_R   0.192112 0.384951 0.631670 0.429106
C57   C     C_R   0.354500 0.395442 0.600677 -0.162897
C58   C     C_R   0.530481 0.368608 0.606660 -0.215685
H29   H     H_    0.657064 0.375211 0.583399 0.192588
C59   C     C_R   0.545613 0.332150 0.641862 -0.150237
H30   H     H_    0.683377 0.312027 0.644931 0.132954
C60   C     C_R   0.384267 0.320633 0.671561 0.025396
O11   O     O_R   0.309730 0.065160 0.075230 -0.535309
O12   O     O_R   0.633800 0.053970 0.954410 -0.543496
O13   O     O_R   0.797580 0.934860 0.924760 -0.537120
C61   C     C_R   0.464917 0.065423 0.936968 0.688707
O14   O     O_R   0.639820 0.072410 0.076610 -0.538838
O15   O     O_R   0.803650 0.953440 0.047830 -0.538515
C62   C     C_R   0.473516 0.091523 0.100495 0.701309
O16   O     O_R   0.303670 0.046590 0.952160 -0.539822
O17   O     O_3   0.468000 0.960960 0.990410 -0.367266
V3    V     V_3+5 0.745380 0.007240 0.001780 1.398899
O18   O     O_R   0.132940 0.946010 0.045600 -0.542516
C63   C     C_R   0.964048 0.933893 0.062403 0.691516
O19   O     O_R   0.126920 0.927560 0.923400 -0.545672
C64   C     C_R   0.954008 0.909150 0.899358 0.732070
V4    V     V_3+5 0.244590 0.992720 0.998240 1.389882
O20   O     O_3   0.972110 0.039040 0.009600 -0.367141
O21   O     O_3   0.528985 0.799119 0.719736 -0.573228
C65   C     C_3   0.494427 0.854464 0.709313 0.074934
H31   H     H_    0.458683 0.840447 0.659826 0.135522
H32   H     H_    0.622178 0.887333 0.718946 0.102114
C66   C     C_3   0.319754 0.887411 0.745555 -0.295461
H33   H     H_    0.188797 0.856431 0.728824 0.202016
H34   H     H_    0.342476 0.896760 0.794807 0.187592
C67   C     C_3   0.285187 0.949417 0.738891 -0.844603
H35   H     H_    0.412102 0.981887 0.757255 0.237070
H36   H     H_    0.156472 0.971472 0.765076 0.229898
H37   H     H_    0.259005 0.941556 0.690038 0.231751
N1    N     N_3   0.210680 0.800068 0.856409 -0.670110
H38   H     H_    0.309866 0.835000 0.857208 0.250911
H39   H     H_    0.170030 0.808121 0.901061 0.229649
N2    N     N_3   0.612962 0.306758 0.377692 -0.680474
H40   H     H_    0.709642 0.344449 0.385795 0.245588
H41   H     H_    0.539005 0.313264 0.417713 0.232192
O22   O     O_3   0.084386 0.396446 0.301084 -0.571461
C68   C     C_3   0.887174 0.379333 0.285593 0.090364
H42   H     H_    0.801689 0.406506 0.325989 0.139702
H43   H     H_    0.850304 0.328989 0.274644 0.113915
C69   C     C_3   0.826031 0.397840 0.232579 -0.319390
H44   H     H_    0.853318 0.448940 0.245946 0.213276
H45   H     H_    0.913238 0.372634 0.191978 0.193385
C70   C     C_3   0.612368 0.382633 0.215515 -0.811185
H46   H     H_    0.583336 0.331475 0.199990 0.237123
H47   H     H_    0.572205 0.397560 0.177661 0.234176
H48   H     H_    0.522198 0.407797 0.255364 0.241445
O23   O     O_3   0.013698 0.408767 0.626946 -0.580748
C71   C     C_3   0.004300 0.471176 0.669882 0.108103
H49   H     H_    0.909826 0.496412 0.649230 0.140711
H50   H     H_    0.147053 0.496926 0.680265 0.076304
C72   C     C_3   0.913217 0.473199 0.729058 -0.353878
H51   H     H_    0.773035 0.446533 0.718144 0.210837
H52   H     H_    0.010481 0.451313 0.752476 0.189363
C73   C     C_3   0.878475 0.540441 0.772286 -0.812908
H53   H     H_    0.017205 0.567901 0.784491 0.233812
H54   H     H_    0.813307 0.540539 0.814836 0.233857
H55   H     H_    0.777873 0.563032 0.750455 0.231667
N3    N     N_3   0.164283 0.646612 0.225961 -0.685556
H56   H     H_    0.305982 0.664843 0.231458 0.220361
H57   H     H_    0.143843 0.615952 0.180336 0.235312

loop_
_geom_bond_atom_site_label_1
_geom_bond_atom_site_label_2
_ccdc_geom_bond_type
C70   H48   S    
V3    O20   S    
C67   H35   S    
C11   C12   A    
O14   C62   A    
C20   H10   S    
C13   C22   S    
O2    C1    A    
O23   C71   S    
C69   C70   S    
C43   C48   A    
C1    O6    A    
C34   C62   S    
O12   C61   A    
C47   H23   S    
O13   C64   A    
C66   H33   S    
C24   C26   A    
C65   H31   S    
C68   H43   S    
C35   C36   A    
C43   C44   A    
C5    C10   A    
C17   H8    S    
C40   N2    S    
C44   C45   A    
O5    C3    A    
C18   H9    S    
C50   C51   A    
C66   H34   S    
C45   C54   S    
C70   H46   S    
C35   H16   S    
C34   C36   A    
O14   V3    S    
C72   C73   S    
O15   C63   A    
C42   H17   S    
C27   N1    S    
C5    C6    A    
O8    V2    S    
C49   H24   S    
O17   V3    S    
C33   C40   A    
C41   C42   A    
O19   V4    S    
C72   H51   S    
C14   C15   A    
O1    V2    S    
C52   C53   A    
O7    V1    S    
C73   H54   S    
C65   C66   S    
C39   C40   A    
O1    C2    A    
O9    C4    A    
N3    H57   S    
C20   C21   A    
C23   C31   A    
O11   V4    S    
O16   V4    S    
C47   C48   A    
C65   H32   S    
C57   C58   A    
C24   C27   A    
C44   H21   S    
C8    H3    S    
C24   C64   S    
C68   C69   S    
C36   H18   S    
C43   H20   S    
C35   C39   A    
C28   C29   A    
C41   O22   S    
C71   C72   S    
C9    H4    S    
C73   H55   S    
C3    C23   S    
C53   H27   S    
O12   V3    S    
C45   C46   A    
C66   C67   S    
C67   H37   S    
C11   C16   A    
O15   V3    S    
C34   C37   A    
N1    H39   S    
C21   H11   S    
C10   C63   S    
C12   C13   A    
C53   C54   A    
C14   H6    S    
C13   C14   A    
C37   H19   S    
C56   C57   A    
C1    C33   S    
C59   C60   A    
C5    H1    S    
C17   C22   A    
C27   C28   A    
C69   H44   S    
C55   C56   A    
C21   C22   A    
C55   C60   A    
C73   H53   S    
O3    C4    A    
O18   V4    S    
C71   H50   S    
C19   C20   A    
O13   V3    S    
C58   H29   S    
O6    V2    S    
C58   C59   A    
O9    V2    S    
N2    H40   S    
C8    C9    A    
O2    V1    S    
C29   C30   A    
O4    C2    A    
O18   C63   A    
C61   O16   A    
C30   H12   S    
C70   H47   S    
C56   O23   S    
C31   C32   A    
C25   C26   A    
C67   H36   S    
C2    C57   S    
C6    C7    A    
C50   H25   S    
C9    C10   A    
C69   H45   S    
O22   C68   S    
O5    V1    S    
C51   C60   S    
O21   C65   S    
C12   N3    S    
C7    C16   S    
C68   H42   S    
C46   C47   A    
C26   H15   S    
C48   C61   S    
O11   C62   A    
O17   V4    S    
C37   C38   A    
C6    H2    S    
C17   C18   A    
N1    H38   S    
O7    V2    S    
O4    V1    S    
O3    V1    S    
V1    O10   S    
V4    O20   S    
C18   C19   A    
N3    H56   S    
C38   C42   A    
V2    O10   S    
C23   C30   A    
C59   H30   S    
C15   C16   A    
C15   H7    S    
C28   C32   A    
C49   C54   A    
C72   H52   S    
C55   H28   S    
C4    C19   S    
C46   H22   S    
C25   C29   A    
C51   C52   A    
C33   C41   A    
C38   C39   A    
C32   H14   S    
C11   H5    S    
N2    H41   S    
C25   O21   S    
C49   C50   A    
C52   H26   S    
C7    C8    A    
C71   H49   S    
O19   C64   A    
O8    C3    A    
C31   H13   S    
