data_mof_unit_64922.cif
_audit_creation_date              2012-10-26T18:18:27-0400
_audit_creation_method            fapswitch 2.2
_symmetry_space_group_name_H-M    P1
_symmetry_Int_Tables_number       1
_space_group_crystal_system       triclinic
_cell_length_a                    18.759123
_cell_length_b                    18.807723
_cell_length_c                    18.976291
_cell_angle_alpha                 109.728219
_cell_angle_beta                  109.232485
_cell_angle_gamma                 109.271226
_cell_volume                      5165.36323462

loop_
_atom_site_label
_atom_site_type_symbol
_atom_type_description
_atom_site_fract_x
_atom_site_fract_y
_atom_site_fract_z
_atom_type_partial_charge
C1    C     C_R   0.880775 0.381052 0.999474 0.550936
C2    C     C_R   0.182050 0.497880 0.182753 0.022885
C3    C     C_R   0.167584 0.420057 0.184204 -0.155884
C4    C     C_R   0.883701 0.502229 0.882104 0.551251
C5    C     C_R   0.231748 0.420190 0.249247 -0.155788
C6    C     C_R   0.311783 0.497645 0.311576 0.013247
C7    C     C_R   0.323204 0.572021 0.306396 0.020154
C8    C     C_3   0.385456 0.666118 0.346272 -0.266384
C9    C     C_3   0.314200 0.666136 0.276481 -0.282069
C10   C     C_R   0.246645 0.762460 0.070590 -0.044978
C11   C     C_R   0.181655 0.684576 0.995739 0.033006
C12   C     C_R   0.815090 0.313056 0.999155 0.015857
C13   C     C_R   0.183028 0.671770 0.917888 0.112081
C14   C     C_R   0.249554 0.737247 0.919750 -0.155177
C15   C     C_R   0.314727 0.814215 0.997913 -0.018548
C16   C     C_R   0.117499 0.618648 0.998740 0.565000
C17   C     C_R   0.311168 0.823290 0.071830 0.034046
C18   C     C_3   0.352128 0.884457 0.165970 0.016152
C19   C     C_3   0.278784 0.814345 0.164664 -0.243621
C20   C     C_R   0.497553 0.381216 0.378974 0.542316
C21   C     C_R   0.614809 0.497956 0.613121 0.567057
C22   C     C_R   0.496442 0.618540 0.615133 0.551350
C23   C     C_R   0.746035 0.238539 0.920768 -0.153533
C24   C     C_R   0.378637 0.499408 0.378512 0.551613
C25   C     C_R   0.500992 0.881415 0.882150 0.548938
C26   C     C_R   0.619000 0.118836 0.000221 0.548000
C27   C     C_R   0.499020 0.118410 0.117785 0.550935
C28   C     C_R   0.117706 0.499753 0.117602 0.551055
C29   C     C_R   0.381347 0.881725 0.000082 0.556172
C30   C     C_R   0.503084 0.320533 0.244854 0.018613
C31   C     C_R   0.498561 0.314364 0.314167 0.013429
C32   C     C_R   0.493628 0.239415 0.318268 -0.166934
C33   C     C_R   0.494623 0.174823 0.254085 -0.158912
C34   C     C_R   0.681171 0.174404 0.920655 -0.156374
C35   C     C_R   0.497487 0.183317 0.183805 0.019247
C36   C     C_R   0.500637 0.257178 0.181737 0.014356
C37   C     C_3   0.505998 0.303734 0.132301 -0.272847
C38   C     C_3   0.507817 0.375700 0.203932 -0.269529
C39   C     C_R   0.501188 0.758530 0.682747 0.019849
C40   C     C_2   0.751331 0.493849 0.674020 0.108771
C41   C     C_R   0.498844 0.684579 0.683960 0.020025
C42   C     C_R   0.499016 0.676337 0.755288 -0.154502
C43   C     C_R   0.501790 0.742020 0.822110 -0.156947
C44   C     C_R   0.501522 0.814916 0.816586 0.019143
C45   C     C_R   0.686757 0.183079 0.999052 0.018530
C46   C     C_R   0.500707 0.819749 0.745074 0.020050
C47   C     C_3   0.499146 0.872965 0.702243 -0.271688
C48   C     C_3   0.498803 0.802530 0.630564 -0.274460
C49   C     C_2   0.679265 0.491506 0.675576 -0.065579
C50   C     C_2   0.810543 0.482056 0.737477 -0.170190
C51   C     C_2   0.822896 0.510258 0.817821 -0.147222
C52   C     C_R   0.823939 0.316204 0.076248 0.012814
C53   C     C_3   0.722296 0.420176 0.527859 -0.283058
C54   C     C_3   0.038470 0.597280 0.797634 -0.288038
C55   C     C_3   0.461455 0.833373 0.196312 -0.270747
C56   C     C_R   0.761411 0.251554 0.076155 0.026056
C57   C     C_3   0.769125 0.315093 0.155158 -0.277868
C58   C     C_3   0.837660 0.386163 0.155021 -0.268038
C59   C     C_R   0.260640 0.572429 0.246012 0.017088
Cu1   Cu    Cu3+1 0.999590 0.561790 0.061400 0.914296
Cu2   Cu    Cu3+1 0.000410 0.438210 0.938600 0.942978
Cu3   Cu    Cu3+1 0.558560 0.561730 0.496790 0.933297
Cu4   Cu    Cu3+1 0.434970 0.438120 0.496790 0.921617
Cu5   Cu    Cu3+1 0.438600 0.999980 0.938570 0.919900
Cu6   Cu    Cu3+1 0.561400 0.999920 0.061330 0.936546
H1    H     H_    0.903815 0.417824 0.210754 0.139311
H2    H     H_    0.232723 0.834771 0.176613 0.122348
H3    H     H_    0.567951 0.324294 0.130723 0.126568
H4    H     H_    0.445910 0.268681 0.068811 0.148130
H5    H     H_    0.448493 0.381770 0.181921 0.138171
H6    H     H_    0.846962 0.452720 0.718426 0.141441
H7    H     H_    0.502161 0.734948 0.876542 0.124414
H8    H     H_    0.437689 0.875421 0.680931 0.144671
H9    H     H_    0.436838 0.764052 0.568246 0.126859
H10   H     H_    0.559093 0.825884 0.626285 0.144033
H11   H     H_    0.792298 0.546205 0.839484 0.105287
H12   H     H_    0.106920 0.360071 0.136194 0.124326
H13   H     H_    0.626248 0.119194 0.859795 0.119551
H14   H     H_    0.708846 0.319354 0.142541 0.125730
H15   H     H_    0.795822 0.305722 0.210891 0.142476
H16   H     H_    0.834237 0.533438 0.629008 0.240954
H17   H     H_    0.734606 0.432793 0.478756 0.145367
H18   H     H_    0.651175 0.389465 0.503506 0.157782
H19   H     H_    0.744900 0.374580 0.536845 0.123524
H20   H     H_    0.139296 0.576466 0.795217 0.243929
H21   H     H_    0.051949 0.650436 0.781943 0.131894
H22   H     H_    0.010552 0.607383 0.841040 0.162334
H23   H     H_    0.219395 0.360037 0.249955 0.134168
H24   H     H_    0.989932 0.534447 0.736972 0.130587
H25   H     H_    0.462314 0.937393 0.283854 0.242636
H26   H     H_    0.531246 0.860076 0.241014 0.129616
H27   H     H_    0.451477 0.808537 0.129914 0.176981
H28   H     H_    0.422318 0.779115 0.202138 0.121580
H29   H     H_    0.661784 0.475177 0.719413 0.066094
H30   H     H_    0.300008 0.782926 0.200867 0.133554
H31   H     H_    0.490390 0.231493 0.371278 0.122407
H32   H     H_    0.491962 0.118223 0.258686 0.129186
H33   H     H_    0.570614 0.437924 0.243278 0.143215
H34   H     H_    0.398659 0.705093 0.412575 0.127847
H35   H     H_    0.497941 0.620115 0.759756 0.126433
H36   H     H_    0.559946 0.936937 0.739908 0.130290
H37   H     H_    0.740071 0.232053 0.859866 0.126726
H38   H     H_    0.817031 0.431585 0.142095 0.149113
H39   H     H_    0.443916 0.676962 0.338948 0.141983
H40   H     H_    0.286710 0.705718 0.302394 0.139428
H41   H     H_    0.331159 0.675573 0.228302 0.121001
H42   H     H_    0.250053 0.728061 0.860402 0.120169
H43   H     H_    0.348537 0.945114 0.179316 0.120235
N1    N     N_2   0.768647 0.501343 0.608367 -0.485668
N2    N     N_2   0.117379 0.595104 0.837703 -0.489794
N3    N     N_2   0.439265 0.901739 0.218665 -0.500387
O1    O     O_R   0.909480 0.462010 0.051860 -0.512245
O2    O     O_R   0.552410 0.909770 0.962140 -0.513640
O3    O     O_R   0.538310 0.090150 0.948110 -0.516313
O4    O     O_R   0.910180 0.357650 0.948150 -0.513003
O5    O     O_R   0.642020 0.090090 0.051780 -0.504706
O6    O     O_R   0.447590 0.090130 0.037760 -0.508610
O7    O     O_R   0.551300 0.090080 0.141420 -0.509255
O8    O     O_R   0.357980 0.909810 0.948120 -0.512858
O9    O     O_R   0.461690 0.909750 0.051790 -0.498432
O10   O     O_R   0.910060 0.552180 0.962250 -0.508205
O11   O     O_R   0.910760 0.447820 0.858550 -0.505335
O12   O     O_R   0.445180 0.357580 0.407200 -0.514712
O13   O     O_R   0.089820 0.642350 0.051850 -0.522459
O14   O     O_R   0.090520 0.537990 0.948140 -0.476652
O15   O     O_R   0.089240 0.552180 0.141450 -0.511846
O16   O     O_R   0.089940 0.447820 0.037750 -0.511381
O17   O     O_R   0.549550 0.461960 0.407200 -0.509664
O18   O     O_R   0.638540 0.552110 0.586390 -0.469477
O19   O     O_R   0.534170 0.447730 0.586390 -0.524651
O20   O     O_R   0.548350 0.642270 0.586380 -0.511410
O21   O     O_R   0.443970 0.537890 0.586380 -0.511774
O22   O     O_R   0.459360 0.552110 0.407190 -0.514523
O23   O     O_R   0.354990 0.447740 0.407190 -0.511684
O24   O     O_R   0.448700 0.909820 0.858480 -0.513404

loop_
_geom_bond_atom_site_label_1
_geom_bond_atom_site_label_2
_ccdc_geom_bond_type
C24   O22   A    
C38   H5    S    
C43   H7    S    
C47   H36   S    
C37   H4    S    
C22   O20   A    
Cu2   O11   S    
C41   C42   A    
C57   H14   S    
C35   C36   A    
C48   H10   S    
C38   H33   S    
C21   C49   S    
C7    C8    S    
C39   C41   A    
C54   H22   S    
C29   O8    A    
C12   C23   A    
C30   C38   S    
C37   C38   S    
Cu5   O8    S    
C53   H19   S    
Cu3   O22   S    
C36   C37   S    
C8    H34   S    
C20   O17   A    
C42   H35   S    
C1    O1    A    
C30   C31   A    
C22   C41   S    
C10   C17   A    
C9    H40   S    
C40   C49   D    
C37   H3    S    
C56   C57   S    
C54   N2    S    
C18   C19   S    
Cu4   O19   S    
Cu1   O13   S    
C20   O12   A    
C55   H26   S    
C26   C45   S    
C5    H23   S    
C58   H1    S    
C47   C48   S    
C45   C56   A    
C28   O15   A    
C8    C9    S    
Cu2   O4    S    
Cu6   O7    S    
C19   H2    S    
C49   H29   S    
C16   O14   A    
C28   O16   A    
C55   H28   S    
C55   N3    S    
Cu5   O24   S    
C13   C14   A    
Cu3   O18   S    
C1    C12   S    
H25   N3    S    
C25   C44   S    
C7    C59   A    
C12   C52   A    
C44   C46   A    
C15   C29   S    
C26   O5    A    
C27   O6    A    
C29   O9    A    
Cu5   O3    S    
C4    C51   S    
Cu4   O23   S    
C48   H9    S    
C18   N3    S    
C47   H8    S    
C54   H24   S    
Cu2   O16   S    
H20   N2    S    
C54   H21   S    
C2    C59   A    
C27   C35   S    
C9    H41   S    
Cu5   O6    S    
C53   N1    S    
Cu1   Cu2   S    
C9    C59   S    
C50   H6    S    
C26   O3    A    
C13   N2    S    
Cu1   O1    S    
C25   O2    A    
C11   C16   S    
Cu4   O12   S    
C31   C32   A    
C10   C19   S    
C23   C34   A    
C6    C24   S    
Cu3   Cu4   S    
C17   C18   S    
C4    O11   A    
C50   C51   D    
C34   C45   A    
Cu4   O21   S    
C51   H11   S    
C8    H39   S    
C21   O18   A    
C40   N1    S    
C52   C58   S    
C39   C46   A    
C14   H42   S    
C32   H31   S    
C55   H27   S    
C57   H15   S    
C43   C44   A    
Cu6   O5    S    
C42   C43   A    
C3    H12   S    
C19   H30   S    
C27   O7    A    
C24   O23   A    
C15   C17   A    
C46   C47   S    
C22   O21   A    
Cu6   O2    S    
Cu3   O20   S    
H16   N1    S    
C3    C5    A    
Cu2   O14   S    
C6    C7    A    
C30   C36   A    
C53   H18   S    
C32   C33   A    
Cu1   O15   S    
C2    C3    A    
C16   O13   A    
Cu5   Cu6   S    
Cu3   O17   S    
C11   C13   A    
C57   C58   S    
C5    C6    A    
C40   C50   S    
C33   C35   A    
Cu6   O9    S    
C4    O10   A    
C33   H32   S    
Cu1   O10   S    
C25   O24   A    
C18   H43   S    
C21   O19   A    
C10   C11   A    
C23   H37   S    
C14   C15   A    
C53   H17   S    
C2    C28   S    
C58   H38   S    
C1    O4    A    
C34   H13   S    
C52   C56   A    
C39   C48   S    
C20   C31   S    
