data_mof_unit_27747.cif
_audit_creation_date              2012-12-10T17:48:39-0500
_audit_creation_method            fapswitch 2.2
_symmetry_space_group_name_H-M    P1
_symmetry_Int_Tables_number       1
_space_group_crystal_system       triclinic
_cell_length_a                    15.726887
_cell_length_b                    10.627259
_cell_length_c                    9.953335
_cell_angle_alpha                 90.009796
_cell_angle_beta                  89.787995
_cell_angle_gamma                 91.585829
_cell_volume                      1662.88918134

loop_
_atom_site_label
_atom_site_type_symbol
_atom_type_description
_atom_site_fract_x
_atom_site_fract_y
_atom_site_fract_z
_atom_type_partial_charge
C1    C     C_R   0.497913 0.260656 0.499742 0.847317
C2    C     C_R   0.275209 0.055564 0.635409 -0.210493
C3    C     C_R   0.277712 0.924530 0.648456 0.045103
C4    C     C_R   0.338465 0.499117 0.500231 0.858822
C5    C     C_R   0.350109 0.862448 0.603725 -0.239271
C6    C     C_R   0.421314 0.930668 0.551391 0.072541
C7    C     C_R   0.419911 0.062181 0.546489 0.103527
C8    C     C_R   0.492724 0.128015 0.498100 -0.087225
C9    C     C_R   0.562602 0.067148 0.445787 -0.201605
C10   C     C_R   0.562776 0.938413 0.445715 -0.216505
C11   C     C_R   0.493797 0.871385 0.500385 -0.076860
C12   C     C_3   0.949340 0.443189 0.634332 -0.390089
C13   C     C_R   0.387972 0.335715 0.139938 -0.301204
C14   C     C_R   0.331102 0.254258 0.069958 0.558128
C15   C     C_R   0.331411 0.258482 0.930803 -0.239302
C16   C     C_R   0.498923 0.739234 0.500084 0.858412
C17   C     C_R   0.387764 0.337865 0.861566 -0.239202
C18   C     C_R   0.444937 0.419482 0.928408 0.177760
C19   C     C_R   0.444982 0.419017 0.072370 0.122107
C20   C     C_R   0.552704 0.577370 0.071071 -0.098174
C21   C     C_R   0.552733 0.577252 0.928208 -0.100837
C22   C     C_R   0.661546 0.499744 0.499694 0.904125
C23   C     C_3   0.917399 0.494606 0.498557 0.348409
C24   C     C_3   0.047483 0.442495 0.634622 -0.383695
C25   C     C_3   0.048004 0.409986 0.383815 -0.390345
C26   C     C_3   0.949751 0.410071 0.383446 -0.389010
C27   C     C_1   0.750523 0.497465 0.499004 -0.183307
C28   C     C_3   0.082592 0.494226 0.499381 0.329039
C29   C     C_2   0.205355 0.852223 0.709319 0.879193
C30   C     C_3   0.292524 0.135960 0.260370 -0.291652
C31   C     C_3   0.953674 0.630170 0.478276 -0.397552
C32   C     C_3   0.051731 0.629951 0.478821 -0.377014
C33   C     C_1   0.825890 0.495583 0.498500 -0.120924
C34   C     C_1   0.174085 0.494853 0.500051 -0.089993
C35   C     C_1   0.249481 0.496634 0.500451 -0.134529
C36   C     C_R   0.345379 0.123632 0.585296 -0.262094
H1    H     H_    0.923471 0.345869 0.651174 0.174528
H2    H     H_    0.595808 0.640772 0.124182 0.141248
H3    H     H_    0.069012 0.344746 0.650877 0.174059
H4    H     H_    0.386054 0.333773 0.246095 0.210444
H5    H     H_    0.287262 0.198673 0.875287 0.183067
H6    H     H_    0.384622 0.333562 0.755516 0.222885
H7    H     H_    0.595870 0.640558 0.874560 0.144832
H8    H     H_    0.072769 0.445254 0.285468 0.180759
H9    H     H_    0.069837 0.311913 0.396311 0.177597
H10   H     H_    0.924137 0.312057 0.396047 0.172359
H11   H     H_    0.927113 0.445153 0.284819 0.172009
H12   H     H_    0.072058 0.500913 0.719490 0.174707
H13   H     H_    0.076017 0.692368 0.560563 0.200226
H14   H     H_    0.076654 0.668862 0.382106 0.172730
H15   H     H_    0.930873 0.692697 0.559830 0.178684
H16   H     H_    0.160523 0.686173 0.782559 0.334701
H17   H     H_    0.279801 0.211603 0.334191 0.154773
H18   H     H_    0.359672 0.105715 0.265185 0.168748
H19   H     H_    0.251583 0.053426 0.288623 0.205172
H20   H     H_    0.926680 0.502686 0.718559 0.172688
H21   H     H_    0.931215 0.669004 0.381185 0.171344
H22   H     H_    0.617392 0.119659 0.406627 0.149953
H23   H     H_    0.339896 0.224120 0.573715 0.121631
H24   H     H_    0.219202 0.105896 0.665039 0.171682
H25   H     H_    0.350058 0.760927 0.609115 0.189685
H26   H     H_    0.617516 0.890764 0.405810 0.142977
N1    N     N_R   0.499210 0.498800 0.142780 -0.104878
N2    N     N_R   0.499180 0.498720 0.857170 -0.109954
O1    O     O_R   0.500000 0.316780 0.614690 -0.625802
O2    O     O_R   0.213171 0.724185 0.737723 -0.816928
O3    O     O_3   0.270079 0.174654 0.130109 -0.601414
O4    O     O_R   0.499990 0.316750 0.385360 -0.638061
O5    O     O_R   0.377150 0.500020 0.614720 -0.620777
O6    O     O_R   0.377140 0.499990 0.385380 -0.630317
O7    O     O_R   0.500010 0.683250 0.614640 -0.613745
O8    O     O_R   0.500000 0.683220 0.385310 -0.608417
O9    O     O_R   0.622860 0.500010 0.614620 -0.609920
O10   O     O_R   0.622850 0.499980 0.385280 -0.613359
O11   O     O_2   0.139153 0.904475 0.736711 -0.646949
Zn1   Zn    Zn3+2 0.500010 0.500020 0.653130 0.952419
Zn2   Zn    Zn3+2 0.499990 0.499980 0.346870 0.941014

loop_
_geom_bond_atom_site_label_1
_geom_bond_atom_site_label_2
_ccdc_geom_bond_type
C1    C8    S    
C7    C36   A    
C16   O8    A    
C36   H23   S    
C1    O4    A    
C4    O6    A    
C7    C8    A    
C27   C33   T    
C25   C28   S    
C30   H18   S    
C12   C23   S    
O1    Zn1   S    
C9    H22   S    
C5    C6    A    
C2    H24   S    
C24   H3    S    
O5    Zn1   S    
C34   C35   T    
C23   C26   S    
C12   H1    S    
C3    C29   S    
C17   H6    S    
C13   H4    S    
C21   H7    S    
C19   N1    A    
C8    C9    A    
C23   C33   S    
O10   Zn2   S    
C1    O1    A    
C14   O3    S    
C9    C10   A    
C30   O3    S    
C4    C35   S    
C28   C34   S    
C13   C14   A    
O6    Zn2   S    
C10   H26   S    
C16   O7    A    
C25   H8    S    
C4    O5    A    
C30   H17   S    
C13   C19   A    
C24   H12   S    
C28   C32   S    
C15   H5    S    
C6    C11   A    
C18   C19   A    
C25   C26   S    
C23   C31   S    
C21   N2    A    
O8    Zn2   S    
C20   H2    S    
C11   C16   S    
C31   C32   S    
C17   C18   A    
N2    Zn1   S    
C5    H25   S    
C32   H14   S    
C12   H20   S    
C26   H11   S    
C22   C27   S    
O9    Zn1   S    
C22   O10   A    
C25   H9    S    
H16   O2    S    
N1    Zn2   S    
C2    C36   A    
O4    Zn2   S    
C15   C17   A    
C24   C28   S    
C31   H15   S    
C3    C5    A    
C6    C7    A    
C29   O11   D    
C30   H19   S    
C12   C24   S    
C31   H21   S    
C20   N1    A    
C2    C3    A    
C18   N2    A    
O7    Zn1   S    
C32   H13   S    
C10   C11   A    
C26   H10   S    
C29   O2    S    
C20   C21   A    
C14   C15   A    
C22   O9    A    
