data_mof_unit_12390.cif
_audit_creation_date              2012-12-10T17:42:45-0500
_audit_creation_method            fapswitch 2.2
_symmetry_space_group_name_H-M    P1
_symmetry_Int_Tables_number       1
_space_group_crystal_system       triclinic
_cell_length_a                    9.965502
_cell_length_b                    10.613076
_cell_length_c                    13.104422
_cell_angle_alpha                 92.412377
_cell_angle_beta                  69.489291
_cell_angle_gamma                 90.418972
_cell_volume                      1296.93085433

loop_
_atom_site_label
_atom_site_type_symbol
_atom_type_description
_atom_site_fract_x
_atom_site_fract_y
_atom_site_fract_z
_atom_type_partial_charge
Br1   Br    Br    0.170622 0.719641 0.710505 -0.554697
C1    C     C_R   0.501871 0.739025 0.496647 0.906007
C2    C     C_R   0.369774 0.467852 0.820807 -0.135519
C3    C     C_R   0.468336 0.859043 0.311881 -0.181249
C4    C     C_R   0.420412 0.488975 0.703455 0.895640
C5    C     C_R   0.450538 0.920319 0.225338 -0.127437
C6    C     C_R   0.450351 0.051475 0.225499 -0.131242
C7    C     C_R   0.467609 0.121760 0.312334 -0.191059
C8    C     C_R   0.483992 0.060989 0.401435 0.095221
C9    C     C_R   0.484762 0.928917 0.401081 0.087281
C10   C     C_R   0.505722 0.871074 0.489398 -0.088412
C11   C     C_R   0.529077 0.939655 0.574235 -0.177973
C12   C     C_R   0.434343 0.459643 0.982561 0.086248
C13   C     C_R   0.528318 0.068367 0.574595 -0.211056
C14   C     C_R   0.503642 0.127995 0.490281 -0.089898
C15   C     C_R   0.808874 0.695875 0.607510 -0.119949
C16   C     C_R   0.500938 0.260685 0.497187 0.847705
C17   C     C_R   0.860159 0.811499 0.629140 -0.248256
C18   C     C_R   0.002621 0.822253 0.617654 -0.189702
C19   C     C_R   0.087067 0.713299 0.599598 0.310210
C20   C     C_R   0.048201 0.601041 0.551226 0.084839
C21   C     C_R   0.903419 0.597774 0.552279 0.139010
C22   C     C_R   0.951012 0.405506 0.450521 -0.125953
C23   C     C_R   0.467257 0.430319 0.870694 0.083568
C24   C     C_R   0.093334 0.405044 0.451199 -0.114386
C25   C     C_R   0.580197 0.498858 0.295621 0.829366
C26   C     C_R   0.785078 0.380271 0.009797 -0.194284
C27   C     C_R   0.628933 0.481298 0.177589 -0.052857
C28   C     C_R   0.228022 0.498464 0.885869 -0.149833
C29   C     C_R   0.188536 0.508140 0.998596 -0.145263
C30   C     C_R   0.291388 0.493680 0.046785 -0.201452
C31   C     C_R   0.545347 0.452024 0.025912 0.076580
C32   C     C_R   0.677936 0.393176 0.964066 0.177255
C33   C     C_R   0.700118 0.346267 0.858516 -0.248238
C34   C     C_R   0.596329 0.364771 0.812150 -0.202433
C35   C     C_R   0.528612 0.504063 0.128701 -0.263800
C36   C     C_R   0.759267 0.421718 0.117558 -0.203385
H1    H     H_    0.837861 0.402831 0.154936 0.153082
H2    H     H_    0.036324 0.909688 0.646852 0.182990
H3    H     H_    0.798661 0.297171 0.811063 0.152228
H4    H     H_    0.164580 0.327489 0.410778 0.149086
H5    H     H_    0.886124 0.334130 0.963731 0.141749
H6    H     H_    0.434904 0.559862 0.174111 0.150914
H7    H     H_    0.148261 0.517582 0.849935 0.196448
H8    H     H_    0.255144 0.504457 0.134577 0.136522
H9    H     H_    0.079079 0.531948 0.048571 0.152330
H10   H     H_    0.617010 0.324476 0.730865 0.172494
H11   H     H_    0.544454 0.893219 0.641501 0.144150
H12   H     H_    0.471017 0.757197 0.307312 0.137112
H13   H     H_    0.438258 0.865822 0.157486 0.141669
H14   H     H_    0.438034 0.098938 0.157737 0.143097
H15   H     H_    0.469877 0.223316 0.308063 0.145845
H16   H     H_    0.544183 0.121846 0.641787 0.138783
H17   H     H_    0.916243 0.328287 0.409496 0.148660
H18   H     H_    0.695358 0.684985 0.636958 0.206292
H19   H     H_    0.787322 0.889999 0.663504 0.161942
N1    N     N_R   0.856860 0.501200 0.500990 -0.112030
N2    N     N_R   0.142450 0.501280 0.501020 -0.107528
O1    O     O_R   0.385310 0.683220 0.500000 -0.588814
O2    O     O_R   0.614640 0.683250 0.500010 -0.634213
O3    O     O_R   0.328400 0.499950 0.653610 -0.561742
O4    O     O_R   0.557730 0.499970 0.653620 -0.637844
O5    O     O_R   0.385360 0.316750 0.499990 -0.619773
O6    O     O_R   0.614690 0.316780 0.500000 -0.625155
O7    O     O_R   0.442270 0.500030 0.346380 -0.626877
O8    O     O_R   0.671600 0.500050 0.346390 -0.606647
Zn1   Zn    Zn3+2 0.346880 0.499980 0.499990 0.962229
Zn2   Zn    Zn3+2 0.653120 0.500020 0.500010 0.932400

loop_
_geom_bond_atom_site_label_1
_geom_bond_atom_site_label_2
_ccdc_geom_bond_type
C16   O5    A    
O8    Zn2   S    
C10   C11   A    
C5    C6    A    
O4    Zn2   S    
C8    C9    A    
C7    H15   S    
C12   C31   A    
C25   C27   S    
C18   C19   A    
C17   H19   S    
C3    H12   S    
C11   H11   S    
C34   H10   S    
C31   C32   A    
C2    C4    S    
C21   N1    A    
C32   C33   A    
C8    C14   A    
C15   H18   S    
C6    H14   S    
C20   N2    A    
C28   H7    S    
C20   C21   A    
C5    H13   S    
C24   N2    A    
C2    C28   A    
C26   H5    S    
C27   C35   A    
C2    C23   A    
C28   C29   A    
C18   H2    S    
C27   C36   A    
C26   C36   A    
C33   H3    S    
C1    C10   S    
C31   C35   A    
Br1   C19   S    
C15   C17   A    
C36   H1    S    
C11   C13   A    
C4    O4    A    
C17   C18   A    
C1    O2    A    
C22   C24   A    
C16   O6    A    
C29   C30   A    
O5    Zn1   S    
C23   C34   A    
C9    C10   A    
N1    Zn2   S    
C3    C9    A    
C25   O8    A    
O6    Zn2   S    
N2    Zn1   S    
C6    C7    A    
C13   H16   S    
C19   C20   A    
O2    Zn2   S    
C22   H17   S    
C14   C16   S    
C33   C34   A    
C30   H8    S    
C24   H4    S    
C22   N1    A    
O3    Zn1   S    
C13   C14   A    
C35   H6    S    
C15   C21   A    
O1    Zn1   S    
C1    O1    A    
C25   O7    A    
C3    C5    A    
C12   C30   A    
C26   C32   A    
C4    O3    A    
C12   C23   A    
C7    C8    A    
O7    Zn1   S    
C29   H9    S    
