data_mof_unit_54562.cif
_audit_creation_date              2013-03-05T15:55:45-0500
_audit_creation_method            fapswitch 2.2
_symmetry_space_group_name_H-M    P1
_symmetry_Int_Tables_number       1
_space_group_crystal_system       triclinic
_cell_length_a                    10.622153
_cell_length_b                    12.323702
_cell_length_c                    13.182253
_cell_angle_alpha                 116.627396
_cell_angle_beta                  77.778242
_cell_angle_gamma                 100.92972
_cell_volume                      1498.74501381

loop_
_atom_site_label
_atom_site_type_symbol
_atom_site_description
_atom_site_fract_x
_atom_site_fract_y
_atom_site_fract_z
_atom_type_partial_charge
O1    O     O_R   0.537510 0.972500 0.318130 -0.581917
O2    O     O_R   0.487140 0.806530 0.359650 -0.614006
C1    C     C_R   0.511333 0.854907 0.286597 0.765094
O3    O     O_R   0.708330 0.082950 0.479220 -0.582257
O4    O     O_R   0.657960 0.916980 0.520740 -0.561793
C2    C     C_R   0.740149 0.999497 0.500509 0.802214
Cu1   Cu    Cu3+1 0.529830 0.098270 0.475420 0.933573
Cu2   Cu    Cu3+1 0.470170 0.901730 0.524580 0.954289
O5    O     O_R   0.512860 0.193470 0.640350 -0.589462
O6    O     O_R   0.462490 0.027500 0.681870 -0.579344
O7    O     O_R   0.342040 0.083020 0.479260 -0.589151
O8    O     O_R   0.291670 0.917050 0.520780 -0.591600
C3    C     C_R   0.480812 0.145121 0.713388 0.795458
C4    C     C_R   0.259893 0.000757 0.500063 0.796772
C5    C     C_3   0.980329 0.978695 0.395608 -0.234182
C6    C     C_3   0.039794 0.890992 0.423243 -0.223497
H1    H     H_    0.074158 0.801762 0.360842 0.153198
H2    H     H_    0.961114 0.961426 0.309770 0.143986
C7    C     C_3   0.123507 0.001694 0.499996 -0.036570
C8    C     C_3   0.066851 0.089213 0.471937 -0.103567
C9    C     C_3   0.961342 0.108900 0.577831 -0.197329
C10   C     C_3   0.020809 0.021848 0.606281 -0.229305
C11   C     C_3   0.936097 0.913497 0.528901 0.416299
C12   C     C_3   0.876635 0.998597 0.501429 -0.074489
H3    H     H_    0.123901 0.162043 0.448398 0.144287
H4    H     H_    0.926733 0.197833 0.640694 0.149265
H5    H     H_    0.039584 0.038013 0.691935 0.144707
C13   C     C_R   0.325505 0.276827 0.021134 -0.193947
H6    H     H_    0.329247 0.095666 0.886488 0.148374
H7    H     H_    0.246455 0.459162 0.217887 0.151365
H8    H     H_    0.257272 0.246612 0.079551 0.133284
C14   C     C_R   0.453659 0.228263 0.834531 -0.044231
C15   C     C_R   0.596238 0.814889 0.085152 -0.196747
C16   C     C_R   0.621438 0.735925 0.970138 -0.131702
C17   C     C_R   0.575466 0.612884 0.932392 -0.181801
C18   C     C_R   0.498188 0.566695 0.009232 0.074832
C19   C     C_R   0.459800 0.650525 0.123664 0.081103
C20   C     C_R   0.456496 0.440304 0.975981 0.073749
C21   C     C_R   0.367437 0.401316 0.053095 0.164552
C22   C     C_R   0.318807 0.487107 0.160134 -0.242466
C23   C     C_R   0.362713 0.609968 0.194360 -0.204427
C24   C     C_R   0.501656 0.351051 0.868540 -0.253173
C25   C     C_R   0.367719 0.190612 0.911894 -0.192013
C26   C     C_R   0.518517 0.773052 0.163508 -0.099677
H9    H     H_    0.573633 0.374450 0.808452 0.149597
H10   H     H_    0.640355 0.908520 0.113194 0.154039
H11   H     H_    0.599683 0.557198 0.842031 0.140145
H12   H     H_    0.680476 0.769544 0.910255 0.171124
H13   H     H_    0.316584 0.672574 0.275819 0.177214
C27   C     C_R   0.705160 0.345095 0.327188 -0.279812
H14   H     H_    0.728961 0.167764 0.308466 0.119889
H15   H     H_    0.745778 0.544629 0.292831 0.152113
H16   H     H_    0.784809 0.343540 0.259965 0.136864
N1    N     N_R   0.575030 0.246270 0.438190 -0.181923
C28   C     C_R   0.324942 0.760224 0.645683 0.104417
C29   C     C_R   0.287186 0.663993 0.677476 -0.236673
C30   C     C_R   0.352925 0.560200 0.622460 -0.189177
C31   C     C_R   0.457964 0.551424 0.534384 -0.004165
C32   C     C_R   0.493304 0.652687 0.504959 0.297657
C33   C     C_R   0.529380 0.446734 0.474763 -0.036440
C34   C     C_R   0.633391 0.445517 0.386950 0.173991
C35   C     C_R   0.665874 0.544713 0.359500 -0.207141
C36   C     C_R   0.598281 0.646266 0.417839 -0.116305
C37   C     C_R   0.502780 0.342361 0.498005 0.023594
C38   C     C_R   0.674176 0.245766 0.354353 0.076723
N2    N     N_R   0.425760 0.754330 0.561190 -0.207325
H17   H     H_    0.425388 0.335129 0.562955 0.122673
H18   H     H_    0.273494 0.840502 0.688923 0.123834
H19   H     H_    0.319526 0.488528 0.650551 0.134733
H20   H     H_    0.206713 0.669877 0.745011 0.147818
H21   H     H_    0.632896 0.718220 0.391986 0.195486
N3    N     N_R   0.864602 0.818272 0.561872 0.115981
O9    O     O_R   0.891476 0.706005 0.503331 -0.388788
O10   O     O_R   0.782060 0.846914 0.655758 -0.367892

loop_
_geom_bond_atom_site_label_1
_geom_bond_atom_site_label_2
_geom_bond_distance
_ccdc_geom_bond_type
C5    H2    1.110303 S    
C9    H4    1.110285 S    
Cu2   N2    2.029687 S    
C3    C14   1.460683 S    
C7    C8    1.536301 S    
C28   C29   1.391719 A    
C17   H11   1.077255 S    
C28   H18   1.081649 S    
Cu1   Cu2   2.709086 S    
N1    C38   1.354275 A    
Cu1   O7    1.959711 S    
C18   C19   1.418259 A    
C20   C24   1.400690 A    
C32   N2    1.384410 A    
O4    C2    1.294328 A    
O7    C4    1.294908 A    
C8    H3    1.110339 S    
C31   C33   1.437877 A    
C5    C6    1.552129 S    
C29   C30   1.393721 A    
C16   C17   1.389620 A    
H14   C38   1.081888 S    
O5    C3    1.302473 A    
C17   C18   1.418251 A    
C6    H1    1.110568 S    
C11   C12   1.522636 S    
C9    C10   1.551938 S    
H6    C25   1.083347 S    
C15   H10   1.083348 S    
O3    Cu1   1.953870 S    
C4    C7    1.451137 S    
C23   H13   1.079992 S    
C5    C8    1.549366 S    
C1    C26   1.471667 S    
C27   H16   1.083937 S    
C37   H17   1.076760 S    
C7    C10   1.535716 S    
N3    O10   1.300540 A    
C21   C22   1.391722 A    
C13   C21   1.403746 A    
C31   C32   1.429456 A    
C33   C34   1.417768 A    
O1    C1    1.306289 A    
C24   H9    1.076952 S    
C35   C36   1.384710 A    
Cu2   O8    1.953871 S    
C2    C12   1.454576 S    
C15   C16   1.386271 A    
H7    C22   1.084325 S    
O3    C2    1.296674 A    
C5    C12   1.537699 S    
O8    C4    1.294714 A    
C6    C11   1.533014 S    
C29   H20   1.082567 S    
C10   H5    1.110405 S    
C16   H12   1.083103 S    
C28   N2    1.358177 A    
Cu1   O5    1.940025 S    
C22   C23   1.386557 A    
O1    Cu1   1.950329 S    
C15   C26   1.403285 A    
C11   N3    1.456810 S    
C13   H8    1.084132 S    
O2    Cu2   1.940025 S    
C36   H21   1.063872 S    
N3    O9    1.300251 A    
O6    C3    1.303479 A    
O4    Cu2   1.959710 S    
C13   C25   1.392638 A    
C32   C36   1.406549 A    
C33   C37   1.416672 A    
C19   C26   1.419712 A    
C18   C20   1.422321 A    
O2    C1    1.304071 A    
H15   C35   1.084643 S    
C30   C31   1.410432 A    
C20   C21   1.420360 A    
N1    C37   1.365454 A    
C6    C7    1.535972 S    
C14   C25   1.399290 A    
C19   C23   1.413150 A    
C34   C35   1.388571 A    
C27   C38   1.387530 A    
C8    C9    1.549410 S    
Cu2   O6    1.950327 S    
C9    C12   1.537670 S    
C27   C34   1.401045 A    
C14   C24   1.395290 A    
C10   C11   1.531417 S    
Cu1   N1    2.041704 S    
C30   H19   1.077901 S    
