data_mof_unit_55667.cif
_audit_creation_date              2012-12-10T18:12:34-0500
_audit_creation_method            fapswitch 2.2
_symmetry_space_group_name_H-M    P1
_symmetry_Int_Tables_number       1
_space_group_crystal_system       triclinic
_cell_length_a                    9.426158
_cell_length_b                    10.756588
_cell_length_c                    17.137407
_cell_angle_alpha                 89.595746
_cell_angle_beta                  84.825344
_cell_angle_gamma                 90.03575
_cell_volume                      1730.49190402

loop_
_atom_site_label
_atom_site_type_symbol
_atom_type_description
_atom_site_fract_x
_atom_site_fract_y
_atom_site_fract_z
_atom_type_partial_charge
C1    C     C_R   0.500353 0.740081 0.500234 0.811408
C2    C     C_R   0.356686 0.403106 0.769225 -0.159689
C3    C     C_R   0.507897 0.544654 0.131857 -0.168183
C4    C     C_R   0.494517 0.572402 0.211769 0.019479
C5    C     C_R   0.584386 0.364899 0.238218 -0.181184
C6    C     C_R   0.590371 0.336804 0.158940 -0.125030
C7    C     C_R   0.548600 0.425431 0.105575 0.121416
C8    C     C_2   0.428098 0.422237 0.983289 -0.086689
C9    C     C_2   0.544503 0.393501 0.022029 -0.058279
C10   C     C_R   0.533873 0.480794 0.265406 -0.033014
C11   C     C_3   0.434822 0.930185 0.429367 -0.341217
C12   C     C_R   0.479823 0.497905 0.650275 0.791104
C13   C     C_3   0.434100 0.073091 0.430333 -0.423459
C14   C     C_3   0.412522 0.922836 0.577388 -0.392747
C15   C     C_3   0.654871 0.928787 0.502716 -0.366613
C16   C     C_3   0.500815 0.877838 0.502286 0.079227
C17   C     C_3   0.498469 0.121418 0.504765 0.032908
C18   C     C_3   0.411565 0.068803 0.581642 -0.001711
C19   C     C_3   0.654290 0.071133 0.501355 -0.380317
C20   C     C_3   0.922663 0.382244 0.464243 0.011204
C21   C     C_3   0.090165 0.380649 0.465745 -0.191788
C22   C     C_3   0.925065 0.606973 0.454160 -0.183527
C23   C     C_R   0.499596 0.259840 0.501885 0.729030
C24   C     C_3   0.903394 0.508346 0.578931 -0.215667
C25   C     C_3   0.092610 0.601480 0.451216 -0.153614
C26   C     C_3   0.070631 0.509222 0.579068 -0.198325
C27   C     C_R   0.519933 0.499138 0.349853 0.871383
C28   C     C_R   0.464049 0.481603 0.735155 -0.088374
C29   C     C_R   0.558872 0.538350 0.781801 -0.159587
C30   C     C_R   0.544856 0.518517 0.862349 -0.080114
C31   C     C_R   0.440491 0.436710 0.896977 0.040775
C32   C     C_R   0.345911 0.376759 0.849714 0.013127
Cu1   Cu    Cu3+1 0.357600 0.500140 0.499960 0.937764
Cu2   Cu    Cu3+1 0.642400 0.499860 0.500040 0.914929
H1    H     H_    0.642034 0.599462 0.756072 0.140488
H2    H     H_    0.323917 0.895470 0.427492 0.186957
H3    H     H_    0.498549 0.898594 0.375416 0.204528
H4    H     H_    0.302262 0.885191 0.577714 0.141162
H5    H     H_    0.703198 0.895421 0.555984 0.184130
H6    H     H_    0.716202 0.103795 0.446711 0.156151
H7    H     H_    0.710369 0.106431 0.551163 0.178383
H8    H     H_    0.881442 0.302412 0.501282 0.079045
H9    H     H_    0.145777 0.365279 0.406554 0.180441
H10   H     H_    0.859240 0.593971 0.607964 0.154019
H11   H     H_    0.614070 0.294131 0.278997 0.115339
H12   H     H_    0.859965 0.428468 0.615199 0.171863
H13   H     H_    0.103344 0.432042 0.617077 0.190192
H14   H     H_    0.888450 0.695605 0.482277 0.126464
H15   H     H_    0.131154 0.691468 0.472625 0.141345
H16   H     H_    0.480030 0.614339 0.089838 0.111061
H17   H     H_    0.285225 0.358148 0.732152 0.210638
H18   H     H_    0.616342 0.566654 0.898014 0.127351
N1    N     N_3   0.856560 0.499750 0.498270 -0.147405
N2    N     N_3   0.143860 0.496700 0.498910 -0.144528
O1    O     O_R   0.379740 0.682430 0.499960 -0.584324
O2    O     O_R   0.620260 0.682190 0.500020 -0.602069
O3    O     O_R   0.365800 0.500150 0.613560 -0.589159
O4    O     O_R   0.606310 0.499910 0.613620 -0.592025
O5    O     O_R   0.379740 0.317810 0.499980 -0.586994
O6    O     O_R   0.620260 0.317570 0.500040 -0.617941
O7    O     O_R   0.393690 0.500090 0.386380 -0.550819
O8    O     O_R   0.634200 0.499850 0.386440 -0.587075
H19   H     H_    0.623801 0.244901 0.139536 0.131655
H20   H     H_    0.497671 0.108859 0.376918 0.165090
H21   H     H_    0.323868 0.107826 0.426793 0.160506
C33   C     C_2   0.256285 0.110913 0.586972 0.320444
H22   H     H_    0.187663 0.080678 0.543222 0.058540
O9    O     O_2   0.204920 0.176220 0.640323 -0.549185
H23   H     H_    0.722600 0.894540 0.450693 0.162957
C34   C     C_2   0.437701 0.696633 0.235163 0.302943
H24   H     H_    0.428543 0.768076 0.190835 0.083005
O10   O     O_2   0.396638 0.720306 0.302884 -0.590409
H25   H     H_    0.455572 0.878441 0.628985 0.197427
C35   C     C_2   0.479405 0.116626 0.653699 0.462761
H26   H     H_    0.488549 0.216072 0.661967 0.057851
O11   O     O_2   0.524346 0.047143 0.702447 -0.534637
C36   C     C_2   0.881048 0.354898 0.382868 0.385118
H27   H     H_    0.799939 0.285834 0.375036 0.053539
O12   O     O_2   0.936605 0.409513 0.325271 -0.552293
H28   H     H_    0.118833 0.299792 0.501691 0.142277
H29   H     H_    0.890589 0.611711 0.394007 0.193314
H30   H     H_    0.137808 0.593260 0.389263 0.203504
H31   H     H_    0.104813 0.597026 0.605815 0.148454
C37   C     C_2   0.675568 0.336015 0.982471 0.350715
H32   H     H_    0.774612 0.340280 0.010123 0.083105
O13   O     O_2   0.673490 0.279781 0.920924 -0.489311
C38   C     C_2   0.240702 0.282832 0.882434 0.385579
H33   H     H_    0.243963 0.247777 0.941700 0.095370
O14   O     O_2   0.149604 0.242048 0.843117 -0.494482
C39   C     C_2   0.286868 0.454122 0.024727 0.312316
H34   H     H_    0.212178 0.509849 0.994855 0.075340
O15   O     O_2   0.249982 0.413731 0.090214 -0.503338

loop_
_geom_bond_atom_site_label_1
_geom_bond_atom_site_label_2
_ccdc_geom_bond_type
C10   C27   S    
Cu1   O1    S    
C22   H14   S    
C38   H33   S    
Cu2   O2    S    
C26   H31   S    
C14   C18   S    
C33   O9    D    
C4    C34   S    
C13   H21   S    
C36   H27   S    
C15   C19   S    
C17   C23   S    
C35   O11   D    
C20   C36   S    
C12   C28   S    
C5    C6    A    
C28   C29   A    
C1    O2    A    
C24   C26   S    
C3    C7    A    
C30   C31   A    
C15   C16   S    
Cu2   O8    S    
C2    C32   A    
C11   H3    S    
C27   O7    A    
C21   H9    S    
C8    C9    D    
C22   C25   S    
C34   H24   S    
C12   O4    A    
C33   H22   S    
C18   C35   S    
Cu2   O6    S    
C26   N2    S    
C3    H16   S    
Cu1   Cu2   S    
C22   N1    S    
C36   O12   D    
C23   O6    A    
C15   H23   S    
C34   O10   D    
C35   H26   S    
C22   H29   S    
C25   N2    S    
C2    H17   S    
C24   N1    S    
C32   C38   S    
C5    H11   S    
C6    H19   S    
C23   O5    A    
C14   H25   S    
C29   C30   A    
C27   O8    A    
C14   H4    S    
C11   C16   S    
C39   O15   D    
C31   C32   A    
C17   C18   S    
C1    C16   S    
C37   H32   S    
C15   H5    S    
C26   H13   S    
C12   O3    A    
Cu1   O7    S    
C38   O14   D    
C25   H30   S    
C24   H10   S    
C14   C16   S    
C8    C39   S    
C4    C10   A    
C3    C4    A    
Cu1   N2    S    
C7    C9    S    
C30   H18   S    
C11   H2    S    
Cu1   O3    S    
C8    C31   S    
C37   O13   D    
C20   N1    S    
C20   H8    S    
C6    C7    A    
C18   C33   S    
C29   H1    S    
C13   C17   S    
C24   H12   S    
C1    O1    A    
C5    C10   A    
C11   C13   S    
C39   H34   S    
C21   N2    S    
C13   H20   S    
C21   H28   S    
C17   C19   S    
C25   H15   S    
C19   H6    S    
C9    C37   S    
C20   C21   S    
Cu2   N1    S    
Cu1   O5    S    
Cu2   O4    S    
C2    C28   A    
C19   H7    S    
