data_mof_unit_36463.cif
_audit_creation_date              2012-12-10T21:01:47-0500
_audit_creation_method            fapswitch 2.2
_symmetry_space_group_name_H-M    P1
_symmetry_Int_Tables_number       1
_space_group_crystal_system       triclinic
_cell_length_a                    15.763103
_cell_length_b                    15.824087
_cell_length_c                    15.085667
_cell_angle_alpha                 89.784598
_cell_angle_beta                  90.108135
_cell_angle_gamma                 90.057927
_cell_volume                      3762.88400412

loop_
_atom_site_label
_atom_site_type_symbol
_atom_type_description
_atom_site_fract_x
_atom_site_fract_y
_atom_site_fract_z
_atom_type_partial_charge
C1    C     C_R   0.499922 0.338875 0.500102 0.902918
C2    C     C_1   0.495105 0.749456 0.499263 -0.184732
C3    C     C_R   0.536209 0.432176 0.953380 0.113183
C4    C     C_R   0.461354 0.567173 0.046607 0.114255
C5    C     C_R   0.500607 0.500463 0.905049 -0.103538
C6    C     C_R   0.497401 0.499065 0.094936 -0.109555
C7    C     C_R   0.463077 0.567948 0.952202 0.182410
C8    C     C_R   0.534348 0.431318 0.047738 0.185468
C9    C     C_1   0.500162 0.500091 0.807005 0.119373
C10   C     C_1   0.498956 0.499742 0.192990 0.130917
C11   C     C_R   0.337616 0.500206 0.500002 0.896121
C12   C     C_R   0.499730 0.661135 0.499846 0.898839
C13   C     C_R   0.662443 0.500119 0.500132 0.902018
C14   C     C_3   0.971255 0.475567 0.581751 0.034873
C15   C     C_3   0.028178 0.548028 0.433228 -0.021267
C16   C     C_3   0.028958 0.432002 0.513803 0.337993
C17   C     C_3   0.970267 0.590742 0.502160 0.403848
C18   C     C_1   0.249231 0.504383 0.500890 -0.186001
C19   C     C_1   0.751017 0.503046 0.500712 -0.171627
C20   C     C_3   0.025616 0.556545 0.578974 0.395962
C21   C     C_3   0.975165 0.466759 0.436509 0.361355
C22   C     C_3   0.084126 0.513143 0.509774 -0.211627
C23   C     C_R   0.484501 0.912976 0.497185 -0.011119
C24   C     C_3   0.916490 0.509483 0.505055 -0.142200
C25   C     C_1   0.174458 0.508745 0.504469 0.035743
C26   C     C_1   0.825987 0.506150 0.502315 0.107131
C27   C     C_R   0.459767 0.956004 0.573816 0.497196
C28   C     C_R   0.504907 0.044147 0.418237 0.506621
C29   C     C_3   0.004037 0.287597 0.524343 0.071160
C30   C     C_3   0.042705 0.204557 0.492597 -0.334808
C31   C     C_3   0.978198 0.132634 0.495707 -0.963078
C32   C     C_3   0.993363 0.736252 0.494838 0.120600
C33   C     C_3   0.977328 0.796832 0.571690 -0.300753
C34   C     C_R   0.485357 0.087066 0.496553 -0.007986
C35   C     C_3   0.041186 0.869407 0.571594 -1.010503
C36   C     C_3   0.994943 0.414956 0.729387 -0.717274
C37   C     C_3   0.999572 0.616877 0.290598 -0.744491
C38   C     C_3   0.008655 0.388100 0.312243 0.099424
C39   C     C_3   0.973915 0.316885 0.254533 -0.343735
C40   C     C_3   0.043278 0.278492 0.196930 -0.977542
C41   C     C_3   0.124446 0.633952 0.662918 0.078924
C42   C     C_3   0.179586 0.574206 0.718607 -0.356733
C43   C     C_3   0.269016 0.609298 0.730885 -0.903357
C44   C     C_3   0.353315 0.914522 0.665696 0.070496
C45   C     C_R   0.506138 0.956103 0.419632 -0.376361
C46   C     C_3   0.332259 0.858208 0.745099 -0.309536
C47   C     C_3   0.237412 0.858559 0.765032 -0.992189
C48   C     C_3   0.473064 0.078533 0.273360 0.066012
C49   C     C_3   0.521341 0.053986 0.189550 -0.320993
C50   C     C_3   0.461852 0.045854 0.110084 -0.982990
C51   C     C_3   0.516601 0.306092 0.141751 -0.773685
C52   C     C_3   0.479261 0.691814 0.855762 -0.761308
C53   C     C_3   0.516062 0.294666 0.888344 -0.769330
C54   C     C_3   0.479941 0.706078 0.108968 -0.770210
C55   C     C_R   0.461993 0.043950 0.573574 -0.378452
C56   C     C_1   0.490146 0.824189 0.498306 0.031648
C57   C     C_1   0.490846 0.175817 0.498863 0.031630
C58   C     C_1   0.495597 0.250551 0.500048 -0.182282
H1    H     H_    0.447309 0.078328 0.633650 0.174046
H2    H     H_    0.986183 0.771950 0.431767 0.146677
H3    H     H_    0.060267 0.713762 0.497530 0.099212
H4    H     H_    0.912171 0.823148 0.566087 0.231492
H5    H     H_    0.982097 0.762019 0.635538 0.249198
H6    H     H_    0.106865 0.844513 0.576676 0.254573
H7    H     H_    0.029087 0.911290 0.629079 0.276797
H8    H     H_    0.035024 0.907186 0.509715 0.268109
H9    H     H_    0.892195 0.389826 0.646295 0.208063
H10   H     H_    0.961560 0.380363 0.783185 0.216754
H11   H     H_    0.023053 0.472786 0.758396 0.273433
H12   H     H_    0.525513 0.921704 0.361041 0.174423
H13   H     H_    0.046170 0.374099 0.702982 0.239845
H14   H     H_    0.108771 0.631240 0.366828 0.218353
H15   H     H_    0.031964 0.635826 0.228346 0.222885
H16   H     H_    0.964958 0.672258 0.316932 0.246340
H17   H     H_    0.953146 0.566385 0.274775 0.272751
H18   H     H_    0.061590 0.362238 0.352941 0.173821
H19   H     H_    0.034314 0.438590 0.268543 0.173678
H20   H     H_    0.946665 0.266682 0.297711 0.229573
H21   H     H_    0.922607 0.341917 0.211161 0.235886
H22   H     H_    0.070814 0.327359 0.152403 0.267496
H23   H     H_    0.947691 0.301931 0.482251 0.165869
H24   H     H_    0.015889 0.227278 0.155663 0.270911
H25   H     H_    0.094311 0.251296 0.239132 0.262673
H26   H     H_    0.121642 0.695738 0.697412 0.167219
H27   H     H_    0.153492 0.647391 0.597279 0.112659
H28   H     H_    0.150246 0.565407 0.784936 0.221281
H29   H     H_    0.183210 0.511375 0.686419 0.235168
H30   H     H_    0.298020 0.624876 0.665821 0.269913
H31   H     H_    0.309196 0.561566 0.764958 0.277116
H32   H     H_    0.267049 0.667065 0.772268 0.260250
H33   H     H_    0.317865 0.890574 0.606779 0.128980
H34   H     H_    0.982822 0.279200 0.593938 0.152169
H35   H     H_    0.332588 0.980241 0.680553 0.140001
H36   H     H_    0.352613 0.792526 0.730713 0.227003
H37   H     H_    0.367487 0.880781 0.804378 0.229045
H38   H     H_    0.215592 0.923698 0.779889 0.271576
H39   H     H_    0.224455 0.817724 0.823477 0.266555
H40   H     H_    0.201330 0.833703 0.707521 0.259933
H41   H     H_    0.441198 0.140281 0.262028 0.161742
H42   H     H_    0.422052 0.030800 0.285684 0.118570
H43   H     H_    0.570225 0.102704 0.174828 0.233335
H44   H     H_    0.553963 0.992609 0.200697 0.220826
H45   H     H_    0.065575 0.212331 0.423386 0.222456
H46   H     H_    0.414194 0.995388 0.122271 0.266331
H47   H     H_    0.499076 0.029130 0.050260 0.270932
H48   H     H_    0.428592 0.106578 0.097441 0.262130
H49   H     H_    0.623640 0.334148 0.065036 0.250615
H50   H     H_    0.516993 0.243429 0.108950 0.229497
H51   H     H_    0.450175 0.329689 0.142924 0.234393
H52   H     H_    0.538922 0.298095 0.211089 0.262521
H53   H     H_    0.373472 0.665027 0.935135 0.247937
H54   H     H_    0.472831 0.757260 0.881273 0.227836
H55   H     H_    0.461145 0.691355 0.784668 0.256082
H56   H     H_    0.097830 0.187948 0.535285 0.230032
H57   H     H_    0.546984 0.672851 0.861585 0.244787
H58   H     H_    0.609589 0.380574 0.853332 0.232322
H59   H     H_    0.466619 0.315902 0.840619 0.238012
H60   H     H_    0.485123 0.271664 0.949932 0.253769
H61   H     H_    0.551661 0.241360 0.858589 0.238892
H62   H     H_    0.389212 0.618664 0.147844 0.227789
H63   H     H_    0.531362 0.686514 0.155168 0.241020
H64   H     H_    0.443976 0.758793 0.139408 0.233055
H65   H     H_    0.508296 0.729250 0.046091 0.258015
H66   H     H_    0.955400 0.122734 0.564604 0.267653
H67   H     H_    0.008400 0.073392 0.472423 0.265261
H68   H     H_    0.923312 0.147138 0.451940 0.268307
N1    N     N_1   0.499980 0.500020 0.270550 -0.094699
N2    N     N_1   0.500020 0.499980 0.729450 -0.096443
N3    N     N_2   0.935120 0.437100 0.660374 -0.268869
N4    N     N_2   0.061982 0.587410 0.353968 -0.302635
N5    N     N_2   0.573139 0.363477 0.095453 -0.290153
N6    N     N_2   0.423584 0.635346 0.904393 -0.307688
N7    N     N_2   0.573941 0.363163 0.907685 -0.309972
N8    N     N_2   0.423236 0.635977 0.092334 -0.312543
O1    O     O_R   0.500000 0.378020 0.573650 -0.613256
O2    O     O_3   0.931771 0.671149 0.496222 -0.620730
O3    O     O_3   0.941972 0.420491 0.364479 -0.644189
O4    O     O_3   0.040732 0.602687 0.657691 -0.629436
O5    O     O_3   0.441665 0.911893 0.650829 -0.632737
O6    O     O_3   0.531557 0.088507 0.343994 -0.634829
O7    O     O_R   0.500000 0.621980 0.426350 -0.614474
O8    O     O_R   0.500040 0.378020 0.426320 -0.605912
O9    O     O_R   0.499960 0.621980 0.573680 -0.607626
O10   O     O_R   0.376760 0.499990 0.573650 -0.613264
O11   O     O_R   0.623240 0.500010 0.426350 -0.600151
O12   O     O_R   0.376800 0.499990 0.426320 -0.614813
O13   O     O_R   0.623200 0.500010 0.573680 -0.610161
O14   O     O_3   0.066767 0.351308 0.520589 -0.637277
Zn1   Zn    Zn3+2 0.499970 0.500000 0.598370 0.969585
Zn2   Zn    Zn3+2 0.500030 0.500000 0.401630 0.979577

loop_
_geom_bond_atom_site_label_1
_geom_bond_atom_site_label_2
_ccdc_geom_bond_type
C54   H65   S    
C11   C18   S    
C50   H46   S    
C16   C21   S    
C23   C45   A    
C55   H1    S    
C41   C42   S    
C28   O6    S    
C21   O3    S    
C37   H16   S    
C2    C12   S    
C29   O14   S    
C23   C56   S    
C38   H18   S    
C52   H55   S    
C12   O7    A    
C29   H23   S    
C43   H31   S    
C47   H40   S    
C43   H30   S    
C4    N8    S    
O13   Zn1   S    
C24   C26   S    
C32   H3    S    
N1    Zn2   S    
C49   H43   S    
C30   C31   S    
C53   H59   S    
C52   H54   S    
C14   C24   S    
C54   N8    S    
C17   C20   S    
C37   N4    S    
C20   O4    S    
C19   C26   T    
C1    O8    A    
O12   Zn2   S    
C15   C22   S    
C46   H37   S    
C51   H50   S    
C22   C25   S    
C30   H45   S    
C34   C57   S    
C47   H38   S    
C40   H22   S    
C35   H6    S    
C44   H35   S    
C23   C27   A    
C11   O10   A    
H62   N8    S    
O11   Zn2   S    
C36   H13   S    
C37   H17   S    
C28   C34   A    
C34   C55   A    
C51   H51   S    
C40   H25   S    
H9    N3    S    
C18   C25   T    
C17   O2    S    
C4    C7    A    
C44   C46   S    
O7    Zn2   S    
C48   H42   S    
C28   C45   A    
C17   C24   S    
C13   C19   S    
C43   H32   S    
C39   H20   S    
C40   H24   S    
C53   N7    S    
C4    C6    A    
C3    C8    A    
C49   H44   S    
C5    C7    A    
C35   H7    S    
C51   N5    S    
C53   H60   S    
C33   H4    S    
C6    C8    A    
H58   N7    S    
C35   H8    S    
O1    Zn1   S    
C41   H26   S    
C27   O5    S    
C3    N7    S    
C52   N6    S    
C5    C9    S    
C29   C30   S    
C14   C20   S    
C50   H47   S    
N2    Zn1   S    
C46   H36   S    
O9    Zn1   S    
C33   H5    S    
C48   O6    S    
C8    N5    S    
C36   H10   S    
C41   O4    S    
C7    N6    S    
C44   H33   S    
C42   H28   S    
H49   N5    S    
C48   C49   S    
C54   H63   S    
C20   C22   S    
C51   H52   S    
C13   O11   A    
C14   C16   S    
C42   C43   S    
C32   H2    S    
C10   N1    T    
C39   C40   S    
C36   H11   S    
C31   H67   S    
C32   O2    S    
C30   H56   S    
C52   H57   S    
C15   C17   S    
C48   H41   S    
C37   H15   S    
C46   C47   S    
C16   C22   S    
O10   Zn1   S    
C45   H12   S    
C3    C5    A    
C31   H66   S    
C53   H61   S    
C11   O12   A    
H14   N4    S    
C38   H19   S    
C44   O5    S    
C41   H27   S    
C47   H39   S    
C12   O9    A    
C16   O14   S    
C32   C33   S    
O8    Zn2   S    
C2    C56   T    
C36   N3    S    
C57   C58   T    
C38   C39   S    
C15   N4    S    
C33   C35   S    
C38   O3    S    
C27   C55   A    
C54   H64   S    
C6    C10   S    
H53   N6    S    
C15   C21   S    
C49   C50   S    
C21   C24   S    
C1    O1    A    
C50   H48   S    
C13   O13   A    
C42   H29   S    
C31   H68   S    
C9    N2    T    
C1    C58   S    
C29   H34   S    
C39   H21   S    
C14   N3    S    
