data_mof_unit_54695.cif
_audit_creation_date              2012-12-10T22:11:16-0500
_audit_creation_method            fapswitch 2.2
_symmetry_space_group_name_H-M    P1
_symmetry_Int_Tables_number       1
_space_group_crystal_system       triclinic
_cell_length_a                    12.13333
_cell_length_b                    12.308509
_cell_length_c                    22.963664
_cell_angle_alpha                 90.274388
_cell_angle_beta                  90.367664
_cell_angle_gamma                 90.955913
_cell_volume                      3428.87810635

loop_
_atom_site_label
_atom_site_type_symbol
_atom_type_description
_atom_site_fract_x
_atom_site_fract_y
_atom_site_fract_z
_atom_type_partial_charge
C1    C     C_R   0.657648 0.998095 0.578825 0.868220
C2    C     C_R   0.342352 0.001904 0.421175 0.868219
C3    C     C_R   0.899567 0.808950 0.127438 -0.189576
C4    C     C_R   0.100432 0.191047 0.872564 -0.189574
C5    C     C_R   0.083991 0.833941 0.200220 -0.125462
C6    C     C_R   0.916010 0.166067 0.799776 -0.125461
C7    C     C_R   0.082091 0.754424 0.157792 -0.170839
C8    C     C_R   0.917910 0.245585 0.842203 -0.170835
C9    C     C_R   0.904720 0.157711 0.194717 -0.215621
C10   C     C_R   0.095281 0.842288 0.805282 -0.215621
C11   C     C_R   0.904057 0.241197 0.154776 -0.180278
C12   C     C_R   0.095944 0.758801 0.845223 -0.180273
C13   C     C_R   0.109821 0.909617 0.325693 -0.175708
C14   C     C_R   0.890183 0.090382 0.674304 -0.175712
C15   C     C_R   0.191643 0.909178 0.367759 -0.167561
C16   C     C_R   0.808361 0.090821 0.632238 -0.167556
C17   C     C_R   0.884702 0.096588 0.323275 -0.188254
C18   C     C_R   0.115301 0.903411 0.676728 -0.188254
C19   C     C_R   0.807897 0.097953 0.367431 0.273512
C20   C     C_R   0.192113 0.902043 0.632575 0.273518
C21   C     C_3   0.997815 0.001768 0.247640 -0.079365
C22   C     C_3   0.002185 0.998234 0.752361 -0.079365
C23   C     C_R   0.656183 0.002502 0.421260 0.894841
C24   C     C_R   0.343819 0.997497 0.578741 0.894839
C25   C     C_R   0.093894 0.002007 0.290788 0.158851
C26   C     C_R   0.906106 0.997993 0.709212 0.158855
C27   C     C_R   0.255407 0.002961 0.377879 -0.032224
C28   C     C_R   0.744592 0.997038 0.622121 -0.032221
C29   C     C_R   0.898657 0.003787 0.288225 0.048741
C30   C     C_R   0.101342 0.996214 0.711775 0.048742
C31   C     C_R   0.740536 0.005122 0.376584 -0.100578
C32   C     C_R   0.259466 0.994878 0.623418 -0.100579
C33   C     C_R   0.001745 0.098930 0.206048 0.040028
C34   C     C_R   0.998255 0.901072 0.793953 0.040023
C35   C     C_R   0.999477 0.267016 0.124179 -0.083684
C36   C     C_R   0.000523 0.732986 0.875822 -0.083679
C37   C     C_R   0.994081 0.903688 0.206814 0.127674
C38   C     C_R   0.005919 0.096314 0.793185 0.127678
C39   C     C_R   0.990760 0.742624 0.120878 -0.027316
C40   C     C_R   0.009240 0.257378 0.879120 -0.027310
C41   C     C_R   0.992653 0.660809 0.075723 0.867925
C42   C     C_R   0.007347 0.339192 0.924277 0.867927
C43   C     C_R   0.998923 0.352086 0.080966 0.883938
C44   C     C_R   0.001077 0.647915 0.919034 0.883935
C45   C     C_R   0.153495 0.098232 0.304560 -0.105803
C46   C     C_R   0.846501 0.901767 0.695442 -0.105808
C47   C     C_R   0.234729 0.098051 0.347010 -0.157534
C48   C     C_R   0.765266 0.901948 0.652992 -0.157539
C49   C     C_R   0.833197 0.910718 0.299079 -0.178178
C50   C     C_R   0.166799 0.089286 0.700919 -0.178176
C51   C     C_R   0.753893 0.912297 0.342009 -0.218973
C52   C     C_R   0.246102 0.087706 0.657989 -0.218971
C53   C     C_R   0.097132 0.123281 0.172202 0.279927
C54   C     C_R   0.902869 0.876726 0.827801 0.279927
C55   C     C_R   0.095227 0.208152 0.132969 -0.205751
C56   C     C_R   0.904773 0.791855 0.867035 -0.205754
C57   C     C_R   0.901709 0.889646 0.169641 -0.158945
C58   C     C_R   0.098290 0.110352 0.830360 -0.158940
H1    H     H_    0.281328 0.172321 0.355557 0.164349
H2    H     H_    0.718664 0.827677 0.644447 0.164349
H3    H     H_    0.844904 0.834872 0.276247 0.155566
H4    H     H_    0.155089 0.165133 0.723750 0.155565
H5    H     H_    0.831593 0.942510 0.172949 0.151449
H6    H     H_    0.168405 0.057484 0.827054 0.151449
H7    H     H_    0.159024 0.842719 0.225355 0.178792
H8    H     H_    0.840977 0.157292 0.774640 0.178787
H9    H     H_    0.827021 0.137808 0.215118 0.166899
H10   H     H_    0.172981 0.862190 0.784881 0.166900
H11   H     H_    0.058967 0.837180 0.319893 0.143857
H12   H     H_    0.941040 0.162819 0.680103 0.143858
H13   H     H_    0.937264 0.167598 0.317437 0.168262
H14   H     H_    0.062741 0.832399 0.682567 0.168265
H15   H     H_    0.704015 0.839648 0.348692 0.178207
H16   H     H_    0.295975 0.160357 0.651303 0.178210
H17   H     H_    0.168589 0.226012 0.107859 0.193430
H18   H     H_    0.831410 0.773999 0.892146 0.193428
H19   H     H_    0.828296 0.800449 0.099027 0.164629
H20   H     H_    0.171702 0.199543 0.900978 0.164627
H21   H     H_    0.153160 0.702904 0.153455 0.163940
H22   H     H_    0.846843 0.297110 0.846538 0.163935
H23   H     H_    0.828386 0.284724 0.147423 0.171106
H24   H     H_    0.171615 0.715270 0.852574 0.171104
H25   H     H_    0.203861 0.836016 0.392863 0.177147
H26   H     H_    0.796147 0.163983 0.607132 0.177152
H27   H     H_    0.137189 0.174449 0.283245 0.140892
H28   H     H_    0.862805 0.825550 0.716758 0.140892
O1    O     O_R   0.621380 0.090460 0.561410 -0.616729
O2    O     O_R   0.378620 0.909540 0.438590 -0.616732
O3    O     O_R   0.617150 0.909540 0.438590 -0.631927
O4    O     O_R   0.382850 0.090460 0.561410 -0.631928
O5    O     O_R   0.619720 0.093230 0.440890 -0.573571
O6    O     O_R   0.380280 0.906770 0.559110 -0.573564
O7    O     O_R   0.618800 0.906770 0.559110 -0.625838
O8    O     O_R   0.381200 0.093230 0.440890 -0.625839
O9    O     O_R   0.087590 0.627480 0.058790 -0.620280
O10   O     O_R   0.912410 0.372520 0.941210 -0.620277
O11   O     O_R   0.905660 0.383870 0.059980 -0.620126
O12   O     O_R   0.094340 0.616130 0.940020 -0.620126
O13   O     O_R   0.092570 0.390420 0.063230 -0.627944
O14   O     O_R   0.907430 0.609580 0.936770 -0.627943
O15   O     O_R   0.900680 0.620930 0.055550 -0.626690
O16   O     O_R   0.099320 0.379070 0.944450 -0.626689
Zn1   Zn    Zn3+2 0.501730 0.123520 0.501540 1.022637
Zn2   Zn    Zn3+2 0.498270 0.876480 0.498460 1.022640
Zn3   Zn    Zn3+2 0.125690 0.504390 0.002180 0.975551
Zn4   Zn    Zn3+2 0.874310 0.495610 0.997820 0.975551
Br1   Br    Br    0.233899 0.046018 0.174158 -0.559094
Br2   Br    Br    0.766104 0.953995 0.825847 -0.559085
Br3   Br    Br    0.808665 0.226535 0.415566 -0.496544
Br4   Br    Br    0.191372 0.773450 0.584456 -0.496544

loop_
_geom_bond_atom_site_label_1
_geom_bond_atom_site_label_2
_ccdc_geom_bond_type
C16   C28   A    
C1    O1    A    
C56   H18   S    
C5    C37   A    
C17   C29   A    
C19   C31   A    
C9    H9    S    
C39   C41   S    
C29   C49   A    
C11   H23   S    
O12   Zn3   S    
C42   O10   A    
C43   O13   A    
C52   H16   S    
C21   C33   S    
C22   C38   S    
C24   O6    A    
C16   H26   S    
O16   Zn3   S    
C45   C47   A    
C32   C52   A    
C20   Br4   S    
O10   Zn4   S    
O9    Zn3   S    
C38   C58   A    
C44   O12   A    
C4    C40   A    
C49   C51   A    
C18   H14   S    
C1    C28   S    
C50   C52   A    
C6    C38   A    
C2    O2    A    
C2    C27   S    
C18   C30   A    
C12   C36   A    
C35   C43   S    
C18   C20   A    
C55   H17   S    
C40   C42   S    
C30   C50   A    
C3    C39   A    
C9    C33   A    
C14   H12   S    
C13   C25   A    
O13   Zn3   S    
C42   O16   A    
O7    Zn2   S    
O2    Zn2   S    
C48   H2    S    
C46   C48   A    
C53   C55   A    
C33   C53   A    
C22   C34   S    
C54   C56   A    
C49   H3    S    
C35   C55   A    
C51   H15   S    
C2    O8    A    
C5    H7    S    
C31   C51   A    
C5    C7    A    
C26   C46   A    
C15   H25   S    
C58   H6    S    
C21   C29   S    
C23   C31   S    
C45   H27   S    
C24   C32   S    
C4    H20   S    
C36   C56   A    
C53   Br1   S    
C15   C27   A    
C23   O3    A    
C12   H24   S    
C10   C34   A    
C14   C26   A    
C9    C11   A    
C10   C12   A    
O1    Zn1   S    
O11   Zn4   S    
C3    C57   A    
O8    Zn1   S    
C17   H13   S    
C13   C15   A    
O3    Zn2   S    
C50   H4    S    
C14   C16   A    
C36   C44   S    
C3    H19   S    
C25   C45   A    
C7    H21   S    
C20   C32   A    
C27   C47   A    
O15   Zn4   S    
C21   C25   S    
C28   C48   A    
C22   C30   S    
C43   O11   A    
C57   H5    S    
O5    Zn1   S    
C24   O4    A    
C6    C8    A    
C34   C54   A    
C10   H10   S    
O14   Zn4   S    
C54   Br2   S    
C11   C35   A    
C44   O14   A    
C41   O9    A    
C19   Br3   S    
C13   H11   S    
C17   C19   A    
C41   O15   A    
C23   O5    A    
O4    Zn1   S    
O6    Zn2   S    
C47   H1    S    
C6    H8    S    
C21   C37   S    
C1    O7    A    
C22   C26   S    
C4    C58   A    
C8    H22   S    
C7    C39   A    
C8    C40   A    
C37   C57   A    
C46   H28   S    
