data_mof_unit_40259.cif
_audit_creation_date              2012-12-11T16:23:53-0500
_audit_creation_method            fapswitch 2.2
_symmetry_space_group_name_H-M    P1
_symmetry_Int_Tables_number       1
_space_group_crystal_system       triclinic
_cell_length_a                    14.747125
_cell_length_b                    14.76848
_cell_length_c                    33.278096
_cell_angle_alpha                 96.0504
_cell_angle_beta                  96.241542
_cell_angle_gamma                 61.203863
_cell_volume                      6302.10448415

loop_
_atom_site_label
_atom_site_type_symbol
_atom_type_description
_atom_site_fract_x
_atom_site_fract_y
_atom_site_fract_z
_atom_type_partial_charge
Br1   Br    Br    0.493215 0.913491 0.085280 -0.379625
Br2   Br    Br    0.514549 0.181726 0.926064 -0.451070
C1    C     C_R   0.390837 0.699870 0.446220 0.546534
C2    C     C_1   0.314432 0.339255 0.229230 -0.005597
C3    C     C_1   0.319970 0.343246 0.265561 -0.007357
C4    C     C_R   0.405790 0.386355 0.434016 0.544500
C5    C     C_R   0.290913 0.294676 0.101878 0.023095
C6    C     C_R   0.756424 0.373260 0.410172 0.021802
C7    C     C_R   0.789707 0.434971 0.393641 -0.129286
C8    C     C_R   0.819140 0.414167 0.353975 -0.118000
C9    C     C_R   0.816078 0.331149 0.330195 0.035435
C10   C     C_R   0.792265 0.263713 0.347953 -0.119342
C11   C     C_R   0.762571 0.284657 0.387669 -0.130992
C12   C     C_R   0.329989 0.347046 0.308841 0.040448
C13   C     C_R   0.835746 0.311453 0.204886 0.348393
C14   C     C_R   0.827739 0.321479 0.286347 0.345697
C15   C     C_R   0.836202 0.389951 0.142349 -0.112487
C16   C     C_R   0.700711 0.410023 0.447521 0.546410
C17   C     C_R   0.865953 0.378861 0.103115 -0.120447
C18   C     C_R   0.909854 0.197663 0.099276 -0.110477
C19   C     C_R   0.879982 0.208804 0.138613 -0.101771
C20   C     C_R   0.847598 0.303912 0.161122 0.031101
C21   C     C_R   0.907702 0.281514 0.081980 0.018890
C22   C     C_R   0.370200 0.756205 0.409577 0.021854
C23   C     C_R   0.411531 0.264354 0.328620 -0.107393
C24   C     C_R   0.275123 0.788181 0.386819 -0.130022
C25   C     C_R   0.263962 0.818033 0.347534 -0.118477
C26   C     C_R   0.347660 0.816469 0.330385 0.034702
C27   C     C_R   0.439267 0.794261 0.354527 -0.118953
C28   C     C_R   0.393514 0.701270 0.561273 0.543043
C29   C     C_R   0.450464 0.764341 0.393864 -0.130456
C30   C     C_R   0.339743 0.832010 0.205272 0.355197
C31   C     C_R   0.342808 0.827421 0.286656 0.346177
C32   C     C_R   0.251557 0.839756 0.136701 -0.085923
C33   C     C_R   0.233839 0.867927 0.096927 0.349432
C34   C     C_R   0.431374 0.273708 0.370353 -0.124081
C35   C     C_R   0.388821 0.888945 0.104341 0.099458
C36   C     C_R   0.405254 0.860671 0.144292 -0.108744
C37   C     C_R   0.333756 0.841738 0.161377 -0.061415
C38   C     C_R   0.297849 0.900207 0.080954 0.023806
C39   C     C_R   0.371953 0.368863 0.585138 0.022347
C40   C     C_R   0.407390 0.388810 0.549010 0.545816
C41   C     C_R   0.283801 0.447170 0.603454 -0.131236
C42   C     C_R   0.264540 0.438114 0.642543 -0.120971
C43   C     C_R   0.333398 0.350846 0.663868 0.035260
C44   C     C_R   0.416124 0.268755 0.644159 -0.120641
C45   C     C_R   0.395868 0.259345 0.165603 -0.062462
C46   C     C_R   0.435047 0.277513 0.605080 -0.129127
C47   C     C_R   0.315333 0.351040 0.788374 0.348485
C48   C     C_R   0.325016 0.348982 0.707380 0.345244
C49   C     C_R   0.210557 0.394090 0.848068 -0.132453
C50   C     C_R   0.201094 0.373596 0.886775 -0.158142
C51   C     C_R   0.387829 0.264971 0.895204 0.155160
C52   C     C_R   0.701297 0.413644 0.562699 0.543033
C53   C     C_R   0.396419 0.285376 0.856166 -0.086579
C54   C     C_R   0.307660 0.345934 0.831701 0.001265
C55   C     C_R   0.288521 0.304554 0.909969 0.032330
C56   C     C_R   0.387338 0.240957 0.123716 0.401639
C57   C     C_R   0.754045 0.380625 0.602953 0.019972
C58   C     C_R   0.778138 0.447755 0.629568 -0.126084
C59   C     C_R   0.806396 0.427256 0.670356 -0.109948
C60   C     C_R   0.811363 0.339402 0.684913 0.040952
C61   C     C_R   0.793765 0.268954 0.658238 -0.110639
C62   C     C_R   0.765545 0.289195 0.617439 -0.125823
C63   C     C_R   0.885763 0.212892 0.822825 -0.105877
C64   C     C_R   0.369955 0.366322 0.392605 0.019695
C65   C     C_R   0.913347 0.201598 0.864219 -0.117066
C66   C     C_R   0.872247 0.382187 0.873369 -0.121835
C67   C     C_R   0.206267 0.372559 0.122408 -0.180417
C68   C     C_R   0.844552 0.393267 0.832039 -0.109339
C69   C     C_R   0.854192 0.307960 0.806574 0.040450
C70   C     C_1   0.838862 0.316647 0.763563 -0.020115
C71   C     C_1   0.827218 0.325666 0.727601 -0.020549
C72   C     C_R   0.910295 0.285318 0.889669 0.022860
C73   C     C_R   0.376474 0.754627 0.602026 0.020024
C74   C     C_R   0.281037 0.790061 0.619097 -0.125212
C75   C     C_R   0.271551 0.819215 0.660329 -0.110680
C76   C     C_R   0.283543 0.446132 0.372807 -0.125401
C77   C     C_R   0.357039 0.813615 0.684912 0.041333
C78   C     C_R   0.215300 0.390410 0.164242 -0.127891
C79   C     C_R   0.450457 0.784583 0.667818 -0.110653
C80   C     C_R   0.460131 0.755588 0.626528 -0.127424
C81   C     C_R   0.396991 0.884204 0.832783 -0.106904
C82   C     C_R   0.377133 0.911729 0.873588 -0.117841
C83   C     C_R   0.227928 0.882103 0.862739 -0.121472
C84   C     C_R   0.248071 0.854503 0.821985 -0.109726
C85   C     C_R   0.330861 0.858260 0.806765 0.037634
C86   C     C_1   0.343268 0.842260 0.764022 -0.020837
C87   C     C_1   0.350604 0.830052 0.727985 -0.020739
C88   C     C_R   0.263999 0.436575 0.331044 -0.107881
C89   C     C_R   0.309104 0.331496 0.185936 -0.021979
C90   C     C_R   0.290358 0.914176 0.888698 0.019291
C91   C     C_R   0.963544 0.264176 0.045546 0.546360
C92   C     C_R   0.272823 0.259516 0.060036 0.570970
C93   C     C_R   0.259794 0.958875 0.043781 0.576520
C94   C     C_R   0.962641 0.267619 0.930710 0.543752
C95   C     C_R   0.271194 0.264544 0.945577 0.565056
C96   C     C_R   0.256096 0.965095 0.928936 0.536522
Cr1   Cr    Cr6+3 0.576280 0.580550 0.506370 1.013310
Cr2   Cr    Cr6+3 0.346780 0.572400 0.496520 1.013480
Cr3   Cr    Cr6+3 0.576960 0.347070 0.497150 1.013221
Cr4   Cr    Cr6+3 0.087320 0.083240 0.984860 1.075775
Cr5   Cr    Cr6+3 0.087720 0.316210 0.996740 1.031288
Cr6   Cr    Cr6+3 0.317350 0.090340 0.995890 1.143040
F1    F     F_    0.471910 0.167189 0.105105 -0.567644
F2    F     F_    0.149755 0.869445 0.075153 -0.604341
H1    H     H_    0.738061 0.235199 0.399737 0.130024
H2    H     H_    0.469064 0.214246 0.182363 0.151311
H3    H     H_    0.191565 0.836875 0.329931 0.139420
H4    H     H_    0.504625 0.793806 0.342315 0.137934
H5    H     H_    0.197409 0.821285 0.148681 0.174491
H6    H     H_    0.471812 0.858221 0.162499 0.182726
H7    H     H_    0.233386 0.518232 0.588693 0.128736
H8    H     H_    0.502951 0.215317 0.591577 0.130593
H9    H     H_    0.123860 0.406401 0.897287 0.144685
H10   H     H_    0.199468 0.502146 0.656869 0.132437
H11   H     H_    0.469245 0.199593 0.659590 0.133060
H12   H     H_    0.862080 0.445198 0.090315 0.146379
H13   H     H_    0.462737 0.194625 0.311543 0.122448
H14   H     H_    0.140846 0.442398 0.830105 0.143958
H15   H     H_    0.472571 0.250786 0.844499 0.163533
H16   H     H_    0.942897 0.125861 0.875759 0.135801
H17   H     H_    0.893257 0.146470 0.803284 0.115270
H18   H     H_    0.797711 0.200593 0.669266 0.112502
H19   H     H_    0.747376 0.236009 0.597785 0.126418
H20   H     H_    0.769656 0.518932 0.619449 0.127084
H21   H     H_    0.819827 0.467266 0.819688 0.115833
H22   H     H_    0.869041 0.448087 0.892122 0.136901
H23   H     H_    0.839261 0.466310 0.341356 0.136646
H24   H     H_    0.498360 0.210880 0.384711 0.130355
H25   H     H_    0.820167 0.482103 0.690847 0.114233
H26   H     H_    0.426507 0.936344 0.892716 0.154188
H27   H     H_    0.461422 0.887079 0.821232 0.124242
H28   H     H_    0.517017 0.780145 0.686669 0.112728
H29   H     H_    0.534819 0.728163 0.614385 0.127341
H30   H     H_    0.215248 0.790169 0.601082 0.127556
H31   H     H_    0.196637 0.834201 0.802016 0.116783
H32   H     H_    0.160450 0.883372 0.873366 0.137231
H33   H     H_    0.198824 0.841889 0.673343 0.111308
H34   H     H_    0.790412 0.198398 0.330493 0.137553
H35   H     H_    0.234852 0.518443 0.389072 0.129582
H36   H     H_    0.147916 0.446813 0.179843 0.141510
H37   H     H_    0.131095 0.415374 0.106613 0.153635
H38   H     H_    0.200517 0.500812 0.315861 0.119956
H39   H     H_    0.786977 0.503097 0.410421 0.130950
H40   H     H_    0.809342 0.464844 0.158653 0.147197
H41   H     H_    0.941264 0.121741 0.083585 0.174122
H42   H     H_    0.888422 0.141398 0.152154 0.157396
H43   H     H_    0.211413 0.783999 0.398352 0.131180
H44   H     H_    0.524402 0.741030 0.410875 0.130553
N1    N     N_R   0.829540 0.395271 0.228034 -0.226278
N2    N     N_R   0.422038 0.828026 0.269583 -0.226280
N3    N     N_R   0.420211 0.830970 0.229666 -0.216864
N4    N     N_R   0.233431 0.419519 0.765556 -0.231297
N5    N     N_R   0.238452 0.419024 0.725846 -0.235306
N6    N     N_R   0.406802 0.280676 0.730223 -0.230664
N7    N     N_R   0.401966 0.281489 0.769902 -0.228702
N8    N     N_R   0.825288 0.400327 0.267914 -0.226457
N9    N     N_R   0.833721 0.237551 0.263232 -0.223935
N10   N     N_R   0.838398 0.232304 0.223273 -0.217015
N11   N     N_R   0.260648 0.831467 0.222396 -0.221321
N12   N     N_R   0.262342 0.828797 0.262244 -0.224782
O1    O     O_R   0.679450 0.499830 0.463150 -0.519009
O2    O     O_R   0.340240 0.172500 0.045430 -0.400118
O3    O     O_R   0.309670 0.000990 0.032050 -0.466469
O4    O     O_R   0.480650 0.664000 0.464630 -0.501436
O5    O     O_R   0.168330 0.982130 0.939200 -0.517066
O6    O     O_R   0.000140 0.178170 0.944610 -0.499238
O7    O     O_R   0.983010 0.336750 0.948660 -0.516763
O8    O     O_R   0.181800 0.312190 0.959860 -0.513830
O9    O     O_R   0.338500 0.175680 0.956950 -0.456162
O10   O     O_R   0.308050 0.003930 0.950020 -0.499308
O11   O     O_3   0.164130 0.163270 0.992500 -0.277963
O12   O     O_R   0.356040 0.477400 0.534170 -0.501838
O13   O     O_R   0.323930 0.675950 0.455370 -0.519820
O14   O     O_R   0.354700 0.475360 0.451930 -0.501786
O15   O     O_R   0.494470 0.320860 0.448390 -0.519074
O16   O     O_R   0.662580 0.357570 0.460050 -0.501933
O17   O     O_R   0.680900 0.502040 0.551870 -0.520170
O18   O     O_R   0.481990 0.666040 0.546870 -0.502543
O19   O     O_R   0.325370 0.678160 0.544080 -0.519013
O20   O     O_R   0.495910 0.323070 0.537100 -0.519990
O21   O     O_R   0.663920 0.359620 0.542290 -0.501772
O22   O     O_3   0.500010 0.500010 0.500010 -0.236238
O23   O     O_R   0.170070 0.978950 0.027680 -0.437644
O24   O     O_R   0.001760 0.175230 0.026640 -0.492470
O25   O     O_R   0.984760 0.333570 0.037150 -0.515621
O26   O     O_R   0.183410 0.309240 0.041890 -0.521831

loop_
_geom_bond_atom_site_label_1
_geom_bond_atom_site_label_2
_ccdc_geom_bond_type
C68   H21   S    
C81   C85   A    
C53   C54   A    
C53   H15   S    
C6    C11   A    
C39   C40   S    
C41   C42   A    
C13   N1    A    
C61   H18   S    
C74   H30   S    
C90   C96   S    
C79   H28   S    
C83   C84   A    
C76   C88   A    
Cr4   O11   S    
C10   C11   A    
C24   C25   A    
Cr4   O24   S    
N6    N7    A    
C22   C24   A    
C49   C54   A    
C35   C38   A    
C36   C37   A    
C34   C64   A    
C66   C72   A    
C23   H13   S    
Cr5   O11   S    
C52   O17   A    
C32   C33   A    
C9    C14   S    
C30   C37   S    
C80   H29   S    
C12   C88   A    
Cr3   O16   S    
C84   H31   S    
C15   C17   A    
Cr6   O3    S    
C13   C20   S    
C60   C61   A    
N9    N10   A    
C17   H12   S    
C48   N6    A    
C6    C7    A    
C63   C65   A    
Cr2   O14   S    
Cr5   O8    S    
C94   O6    A    
C60   C71   S    
C68   C69   A    
C30   N3    A    
C8    H23   S    
C7    C8    A    
C66   H22   S    
C5    C56   A    
C96   O5    A    
Cr3   O21   S    
Br1   C35   S    
Cr6   O10   S    
Cr1   O4    S    
C96   O10   A    
C91   O24   A    
C51   C53   A    
C57   C58   A    
Cr4   O5    S    
C19   C20   A    
C14   N9    A    
C32   H5    S    
C39   C41   A    
C47   N7    A    
C1    C22   S    
C93   O3    A    
C83   C90   A    
C79   C80   A    
C52   C57   S    
C75   C77   A    
C64   C76   A    
C44   C46   A    
Cr4   O23   S    
C77   C87   S    
C14   N8    A    
C32   C37   A    
Br2   C51   S    
C19   H42   S    
C72   C94   S    
C27   H4    S    
Cr5   O25   S    
C74   C75   A    
C40   O12   A    
C76   H35   S    
C77   C79   A    
C29   H44   S    
C51   C55   A    
C84   C85   A    
C2    C3    T    
C63   C69   A    
C82   H26   S    
C40   O20   A    
C95   O8    A    
C49   C50   A    
C44   H11   S    
C58   C59   A    
C17   C21   A    
C73   C74   A    
N1    N8    A    
Cr1   O17   S    
C35   C36   A    
C34   H24   S    
C16   O1    A    
C47   N4    A    
C81   C82   A    
C18   C21   A    
C4    C64   S    
C48   N5    A    
C55   C95   S    
C30   N11   A    
Cr2   O13   S    
C10   H34   S    
C49   H14   S    
Cr1   O22   S    
C18   H41   S    
C65   C72   A    
C18   C19   A    
Cr2   O19   S    
C42   H10   S    
C3    C12   S    
Cr3   O22   S    
Cr6   O9    S    
Cr1   O1    S    
C91   O25   A    
C1    O13   A    
C26   C31   S    
C45   H2    S    
C78   H36   S    
C94   O7    A    
C4    O15   A    
Cr2   O12   S    
C28   O19   A    
C21   C91   S    
C38   C93   S    
C36   H6    S    
C65   H16   S    
C92   O2    A    
C25   C26   A    
C42   C43   A    
C93   O23   A    
C46   H8    S    
C50   H9    S    
C5    C92   S    
C26   C27   A    
Cr4   O6    S    
C45   C89   A    
C24   H43   S    
Cr5   O26   S    
C75   H33   S    
C92   O26   A    
C70   C71   T    
C31   N2    A    
C5    C67   A    
C9    C10   A    
C73   C80   A    
Cr6   O11   S    
C16   O16   A    
C67   H37   S    
C47   C54   S    
C15   C20   A    
C95   O9    A    
C56   F1    S    
C8    C9    A    
C2    C89   S    
C78   C89   A    
C58   H20   S    
C33   C38   A    
C22   C29   A    
Cr1   O18   S    
C27   C29   A    
C33   F2    S    
N11   N12   A    
C41   H7    S    
C45   C56   A    
C28   C73   S    
Cr6   O2    S    
C4    O14   A    
C43   C48   S    
C7    H39   S    
C57   C62   A    
C39   C46   A    
C31   N12   A    
C63   H17   S    
C12   C23   A    
C59   C60   A    
Cr2   O22   S    
C6    C16   S    
C81   H27   S    
Cr3   O15   S    
C50   C55   A    
C59   H25   S    
C23   C34   A    
C15   H40   S    
C61   C62   A    
C43   C44   A    
N4    N5    A    
C13   N10   A    
C69   C70   S    
C86   C87   T    
C25   H3    S    
C85   C86   S    
C66   C68   A    
C62   H19   S    
C11   H1    S    
Cr5   O7    S    
C28   O18   A    
C52   O21   A    
C67   C78   A    
N2    N3    A    
C82   C90   A    
C83   H32   S    
C88   H38   S    
Cr3   O20   S    
C1    O4    A    
