data_mof_unit_43671.cif
_audit_creation_date              2013-03-05T16:01:37-0500
_audit_creation_method            fapswitch 2.2
_symmetry_space_group_name_H-M    P1
_symmetry_Int_Tables_number       1
_space_group_crystal_system       triclinic
_cell_length_a                    14.767611
_cell_length_b                    14.670196
_cell_length_c                    23.469704
_cell_angle_alpha                 75.292845
_cell_angle_beta                  101.864042
_cell_angle_gamma                 115.366234
_cell_volume                      4416.46570936

loop_
_atom_site_label
_atom_site_type_symbol
_atom_site_description
_atom_site_fract_x
_atom_site_fract_y
_atom_site_fract_z
_atom_type_partial_charge
O1    O     O_R   0.977900 0.338110 0.520250 -0.543194
O2    O     O_R   0.022100 0.661890 0.479750 -0.539832
O3    O     O_R   0.839850 0.379180 0.494310 -0.548681
O4    O     O_R   0.160150 0.620820 0.505690 -0.526554
C1    C     C_R   0.880369 0.311474 0.510224 0.865621
C2    C     C_R   0.119315 0.688365 0.490512 0.857144
O5    O     O_R   0.069020 0.479430 0.595090 -0.602433
O6    O     O_R   0.930980 0.520570 0.404910 -0.609409
O7    O     O_R   0.930970 0.520500 0.569150 -0.486052
O8    O     O_R   0.069030 0.479500 0.430850 -0.508295
C3    C     C_R   0.000998 0.502913 0.608330 0.839182
C4    C     C_R   0.999383 0.497814 0.391437 0.863800
Cu1   Cu    Cu3+1 0.081740 0.475680 0.515360 1.084438
Cu2   Cu    Cu3+1 0.918260 0.524320 0.484640 1.086338
C5    C     C_R   0.090742 0.566838 0.121275 0.596808
C6    C     C_R   0.922667 0.433639 0.880265 0.594614
N1    N     N_R   0.006053 0.503413 0.148517 -0.471774
N2    N     N_R   0.007185 0.497189 0.852748 -0.469084
C7    C     C_R   0.922318 0.439216 0.119486 0.595310
C8    C     C_R   0.091525 0.560324 0.882100 0.593554
C9    C     C_R   0.921597 0.435968 0.060296 -0.063796
C10   C     C_R   0.092571 0.563104 0.941448 -0.062037
C11   C     C_R   0.007190 0.501356 0.030731 -0.042505
C12   C     C_R   0.007065 0.497734 0.971056 -0.042222
C13   C     C_R   0.092637 0.570188 0.060763 -0.128238
C14   C     C_R   0.921552 0.429099 0.941012 -0.126948
C15   C     C_R   0.837782 0.367202 0.030798 -0.170124
C16   C     C_R   0.176679 0.631380 0.971084 -0.169305
C17   C     C_R   0.837380 0.361370 0.972254 0.330417
C18   C     C_R   0.177116 0.637279 0.029635 0.329695
O9    O     O_2   0.172879 0.624232 0.153322 -0.434718
O10   O     O_2   0.839387 0.378089 0.848115 -0.433951
O11   O     O_2   0.840372 0.377890 0.148199 -0.482462
O12   O     O_2   0.174011 0.620689 0.853692 -0.485132
H1    H     H_    0.772749 0.314874 0.053811 0.227914
H2    H     H_    0.241887 0.683430 0.948152 0.227682
C19   C     C_R   0.009774 0.588232 0.749356 -0.114063
C20   C     C_R   0.037511 0.434381 0.253588 -0.135022
H3    H     H_    0.014319 0.654354 0.764223 0.190921
H4    H     H_    0.062555 0.383770 0.240753 0.186062
C21   C     C_R   0.006518 0.591530 0.688819 0.307322
C22   C     C_R   0.033364 0.428769 0.313526 0.311813
C23   C     C_R   0.000278 0.503999 0.670369 -0.119536
C24   C     C_R   0.999270 0.495023 0.329250 -0.144331
C25   C     C_R   0.998317 0.416428 0.712625 -0.211152
C26   C     C_R   0.967173 0.562452 0.284521 -0.204834
H5    H     H_    0.994541 0.349429 0.699068 0.188637
H6    H     H_    0.940966 0.613769 0.295584 0.196481
C27   C     C_R   0.000534 0.414101 0.772528 -0.054640
C28   C     C_R   0.970261 0.565827 0.225121 -0.058113
H7    H     H_    0.998288 0.345762 0.804649 0.179353
H8    H     H_    0.945185 0.617979 0.191040 0.175246
C29   C     C_R   0.006100 0.499873 0.791076 0.253203
C30   C     C_R   0.005701 0.502128 0.209639 0.264356
C31   C     C_R   0.812067 0.201618 0.521345 -0.186217
C32   C     C_R   0.185985 0.798411 0.484431 -0.186365
C33   C     C_R   0.769985 0.028886 0.579022 -0.177154
C34   C     C_R   0.228473 0.975982 0.434987 -0.177962
C35   C     C_R   0.841445 0.128033 0.563020 0.312567
C36   C     C_R   0.160027 0.873707 0.442246 0.319590
C37   C     C_R   0.711659 0.172055 0.494617 0.074988
C38   C     C_R   0.279478 0.828324 0.519757 0.093949
C39   C     C_R   0.636531 0.078399 0.519299 0.041105
C40   C     C_R   0.355973 0.926516 0.502925 0.047646
C41   C     C_R   0.668371 0.003748 0.557845 0.043366
C42   C     C_R   0.326259 0.002669 0.464142 0.053914
C43   C     C_R   0.531306 0.054587 0.505681 0.094742
C44   C     C_R   0.460688 0.951676 0.521521 0.080909
C45   C     C_R   0.498027 0.876453 0.551404 -0.114503
C46   C     C_R   0.494344 0.131164 0.479043 -0.169352
C47   C     C_R   0.599109 0.903066 0.572465 -0.135685
C48   C     C_R   0.394203 0.105141 0.455668 -0.138612
H9    H     H_    0.623805 0.843567 0.598294 0.176834
H10   H     H_    0.369944 0.165407 0.430712 0.169735
H11   H     H_    0.794051 0.971599 0.608797 0.196685
H12   H     H_    0.206341 0.034041 0.404546 0.195338
H13   H     H_    0.450572 0.795985 0.558506 0.212794
H14   H     H_    0.542865 0.211790 0.475026 0.165415
N3    N     N_R   0.795430 0.560810 0.461550 -0.249724
N4    N     N_R   0.204570 0.439190 0.538450 -0.260494
C49   C     C_R   0.701399 0.634161 0.382653 0.234493
C50   C     C_R   0.275015 0.321174 0.597624 0.239062
C51   C     C_R   0.789812 0.620078 0.407442 0.026264
C52   C     C_R   0.198054 0.357265 0.582510 0.023429
C53   C     C_R   0.715170 0.513925 0.494674 0.462986
C54   C     C_R   0.287636 0.490501 0.507459 0.471422
C55   C     C_R   0.620182 0.519251 0.470327 -0.152602
C56   C     C_R   0.363440 0.450682 0.516091 -0.132946
C57   C     C_R   0.616032 0.584479 0.414493 -0.023449
C58   C     C_R   0.357210 0.366371 0.563303 -0.021850
C59   C     C_R   0.529938 0.464211 0.499726 0.109140
C60   C     C_R   0.446091 0.492496 0.480482 0.111843
C61   C     C_R   0.444042 0.553855 0.423782 -0.117474
C62   C     C_R   0.515990 0.374924 0.543270 -0.155177
C63   C     C_R   0.526829 0.599181 0.391809 -0.082546
C64   C     C_R   0.431358 0.326544 0.573825 -0.079233
H15   H     H_    0.520105 0.647504 0.349304 0.214367
H16   H     H_    0.424504 0.256692 0.605552 0.205348
H17   H     H_    0.133361 0.321539 0.607231 0.204836
H18   H     H_    0.854101 0.654338 0.382404 0.196045
H19   H     H_    0.376515 0.562641 0.401106 0.208010
H20   H     H_    0.566026 0.336157 0.551337 0.187867
N5    N     N_R   0.305773 0.592043 0.474121 0.117310
O13   O     O_R   0.385756 0.668991 0.489562 -0.386001
O14   O     O_R   0.252478 0.606606 0.423870 -0.355059
N6    N     N_R   0.732106 0.473740 0.556415 0.131462
O15   O     O_R   0.725400 0.518326 0.595807 -0.294036
O16   O     O_R   0.742881 0.387040 0.573639 -0.377104
N7    N     N_R   0.698934 0.695291 0.324330 0.127618
O17   O     O_R   0.775817 0.780657 0.310175 -0.256555
O18   O     O_R   0.630891 0.656219 0.282394 -0.303723
N8    N     N_R   0.268965 0.240018 0.648107 0.129623
O19   O     O_R   0.182755 0.164097 0.658155 -0.231547
O20   O     O_R   0.344766 0.250763 0.689290 -0.292480
N9    N     N_R   0.752872 0.282547 0.946873 0.175669
O21   O     O_R   0.661685 0.269757 0.951455 -0.267010
O22   O     O_R   0.766468 0.210526 0.931448 -0.252147
N10   N     N_R   0.262165 0.715394 0.055170 0.174425
O23   O     O_R   0.352964 0.725609 0.051754 -0.267251
O24   O     O_R   0.249968 0.789396 0.069219 -0.246800
N11   N     N_R   0.015472 0.685649 0.647937 0.119413
O25   O     O_R   0.950228 0.685805 0.601382 -0.271239
O26   O     O_R   0.077134 0.773085 0.662863 -0.281516
N12   N     N_R   0.059065 0.352467 0.357076 0.141442
O27   O     O_R   0.999487 0.293553 0.397436 -0.307751
O28   O     O_R   0.132347 0.330303 0.350638 -0.325283
I1    I     I_    0.281481 0.744753 0.609575 -0.203768
I2    I     I_    0.688928 0.246739 0.404275 -0.231792
N13   N     N_R   0.063841 0.848496 0.407508 0.127539
O29   O     O_R   0.986194 0.837404 0.430780 -0.279429
O30   O     O_R   0.058784 0.860149 0.350287 -0.313323
N14   N     N_R   0.943984 0.150520 0.587476 0.123856
O31   O     O_R   0.008383 0.158519 0.554175 -0.277242
O32   O     O_R   0.966179 0.136568 0.644735 -0.318118

loop_
_geom_bond_atom_site_label_1
_geom_bond_atom_site_label_2
_geom_bond_distance
_ccdc_geom_bond_type
N3    C51   1.354014 A    
C39   C41   1.414949 A    
C31   C35   1.414537 A    
C46   H14   1.079960 S    
C45   H13   1.073191 S    
N4    C52   1.354179 A    
C27   H7    1.082854 S    
N8    O20   1.301313 A    
C22   N12   1.437106 S    
O5    C3    1.305176 A    
C28   C30   1.396001 A    
O1    C1    1.306765 A    
C40   C44   1.425933 A    
C10   C12   1.407800 A    
C7    C9    1.399747 A    
C12   C14   1.417972 A    
C20   C22   1.400617 A    
C55   C59   1.441296 A    
N7    O18   1.301254 A    
C38   I1    2.154250 S    
C54   C56   1.429118 A    
C33   C35   1.393101 A    
C15   C17   1.396842 A    
N6    O15   1.300992 A    
C34   C36   1.394093 A    
N9    O21   1.301132 A    
C37   C39   1.417138 A    
C21   N11   1.437925 S    
O4    Cu1   1.917336 S    
C45   C47   1.385742 A    
N10   O23   1.301086 A    
C38   C40   1.416868 A    
N2    C29   1.434905 S    
C34   C42   1.397189 A    
C42   C48   1.394295 A    
C56   C60   1.442949 A    
C44   C45   1.408221 A    
N9    O22   1.301370 A    
C64   H16   1.081434 S    
C28   H8    1.082827 S    
C11   C12   1.414571 A    
C3    C23   1.462432 S    
C19   C29   1.399664 A    
C25   H5    1.083946 S    
C9    C15   1.400504 A    
Cu1   N4    2.037393 S    
C61   C63   1.388262 A    
C10   C16   1.400845 A    
Cu1   Cu2   2.712282 S    
C21   C23   1.417545 A    
O2    C2    1.303324 A    
C22   C24   1.418526 A    
C54   N5    1.433692 S    
N8    O19   1.300808 A    
C49   C51   1.394134 A    
C24   C26   1.405373 A    
C26   H6    1.083573 S    
C53   C55   1.428979 A    
C6    C14   1.413452 A    
C39   C43   1.423452 A    
C35   N14   1.428995 S    
C34   H12   1.084542 S    
C43   C44   1.424949 A    
O4    C2    1.310283 A    
C7    O11   1.350051 S    
C61   H19   1.073019 S    
C59   C60   1.422828 A    
C47   H9    1.084233 S    
N14   O31   1.300957 A    
C18   N10   1.433828 S    
C15   H1    1.083718 S    
C41   C47   1.392152 A    
C58   C64   1.401799 A    
C32   C36   1.413782 A    
C40   C42   1.417259 A    
C57   C63   1.400721 A    
O7    Cu2   1.942121 S    
C23   C25   1.402792 A    
C20   C30   1.397356 A    
C25   C27   1.391563 A    
O6    C4    1.306031 A    
N5    O14   1.300163 A    
C6    N2    1.368509 A    
Cu2   N3    2.037394 S    
C62   C64   1.389273 A    
O7    C3    1.303351 A    
C62   H20   1.073845 S    
N11   O25   1.299959 A    
O3    Cu2   1.917335 S    
O8    C4    1.305779 A    
C48   H10   1.084068 S    
C56   C58   1.419371 A    
C50   C52   1.397251 A    
C51   H18   1.081611 S    
C9    C11   1.408245 A    
C32   C38   1.407526 A    
O1    Cu1   1.934127 S    
C8    C10   1.400521 A    
C53   N6    1.432949 S    
N3    C53   1.375189 A    
N12   O28   1.301302 A    
N13   O29   1.300843 A    
C13   C18   1.420012 A    
C5    N1    1.366883 A    
O6    Cu2   1.935330 S    
C52   H17   1.080999 S    
C1    C31   1.478061 S    
C49   N7    1.436460 S    
C33   C41   1.395377 A    
O3    C1    1.308851 A    
O8    Cu1   1.942123 S    
C36   N13   1.430365 S    
C63   H15   1.080785 S    
C5    O9    1.348077 S    
C6    O10   1.348297 S    
C26   C28   1.391837 A    
N4    C54   1.377724 A    
C50   C58   1.415309 A    
C43   C46   1.406876 A    
C33   H11   1.084679 S    
C16   C18   1.397190 A    
C49   C57   1.415086 A    
C19   H3    1.083349 S    
N7    O17   1.301295 A    
C2    C32   1.474772 S    
C59   C62   1.406519 A    
C20   H4    1.083258 S    
N6    O16   1.300915 A    
C27   C29   1.397979 A    
C31   C37   1.408874 A    
C60   C61   1.407336 A    
N1    C7    1.364493 A    
C17   N9    1.434236 S    
C37   I2    2.156776 S    
N2    C8    1.366178 A    
C11   C13   1.418690 A    
C19   C21   1.400828 A    
O2    Cu2   1.934127 S    
N10   O24   1.301329 A    
N11   O26   1.301335 A    
C5    C13   1.414164 A    
C8    O12   1.349990 S    
O5    Cu1   1.935328 S    
C16   H2    1.083729 S    
C14   C17   1.420070 A    
N14   O32   1.300758 A    
N5    O13   1.300027 A    
C55   C57   1.420255 A    
C4    C24   1.470074 S    
C46   C48   1.386625 A    
N1    C30   1.430899 S    
C50   N8    1.437141 S    
N12   O27   1.301456 A    
N13   O30   1.300545 A    
