data_mof_unit_7817.cif
_audit_creation_date              2012-12-10T17:42:35-0500
_audit_creation_method            fapswitch 2.2
_symmetry_space_group_name_H-M    P1
_symmetry_Int_Tables_number       1
_space_group_crystal_system       triclinic
_cell_length_a                    10.004924
_cell_length_b                    10.713641
_cell_length_c                    13.290611
_cell_angle_alpha                 93.80664
_cell_angle_beta                  71.448795
_cell_angle_gamma                 92.562997
_cell_volume                      1347.18734822

loop_
_atom_site_label
_atom_site_type_symbol
_atom_type_description
_atom_site_fract_x
_atom_site_fract_y
_atom_site_fract_z
_atom_type_partial_charge
C1    C     C_R   0.506513 0.738764 0.492292 0.918595
C2    C     C_R   0.373138 0.470397 0.816683 -0.232057
C3    C     C_R   0.372722 0.859899 0.359420 -0.110369
C4    C     C_R   0.422098 0.488771 0.701867 0.965103
C5    C     C_R   0.268995 0.912445 0.327565 -0.243061
C6    C     C_R   0.211566 0.025265 0.375889 -0.236840
C7    C     C_R   0.265456 0.090490 0.450050 0.596574
C8    C     C_R   0.391851 0.050397 0.464416 -0.038063
C9    C     C_R   0.429150 0.926196 0.432951 -0.034189
C10   C     C_R   0.519671 0.870822 0.478239 -0.224411
C11   C     C_R   0.606275 0.944361 0.524726 0.510983
C12   C     C_R   0.439933 0.502973 0.976824 -0.105219
C13   C     C_R   0.587207 0.071066 0.538962 -0.272221
C14   C     C_R   0.482977 0.125472 0.508496 -0.183213
C15   C     C_R   0.799518 0.656513 0.643745 -0.060376
C16   C     C_R   0.494291 0.259817 0.503711 0.915746
C17   C     C_R   0.829244 0.728706 0.723521 -0.239900
C18   C     C_R   0.962619 0.730726 0.730621 -0.287533
C19   C     C_R   0.070812 0.662058 0.656400 0.567335
C20   C     C_R   0.042000 0.578258 0.575179 0.006358
C21   C     C_R   0.898710 0.577243 0.572552 0.032286
C22   C     C_R   0.953956 0.427197 0.430082 -0.139313
C23   C     C_R   0.471049 0.454265 0.870492 -0.099796
C24   C     C_R   0.095857 0.426248 0.429406 0.478211
C25   C     C_R   0.577408 0.502191 0.297521 0.834457
C26   C     C_R   0.792238 0.463253 0.011860 -0.171129
C27   C     C_R   0.621280 0.503451 0.182704 -0.073523
C28   C     C_R   0.230992 0.489910 0.875607 0.458665
C29   C     C_R   0.198986 0.539300 0.979325 -0.342026
C30   C     C_R   0.303867 0.554757 0.029223 0.503583
C31   C     C_3   0.097452 0.110849 0.611025 -0.356274
C32   C     C_3   0.109112 0.353923 0.795898 -0.275431
C33   C     C_3   0.152170 0.605884 0.198187 -0.374017
C34   C     C_R   0.546761 0.497128 0.025551 0.100626
C35   C     C_3   0.839091 0.907498 0.484595 -0.316667
C36   C     C_R   0.684822 0.460828 0.964974 0.123828
C37   C     C_R   0.709381 0.407170 0.863151 -0.331791
C38   C     C_R   0.599322 0.391802 0.820017 0.514024
C39   C     C_R   0.516517 0.511077 0.134955 -0.173791
C40   C     C_R   0.761208 0.486636 0.120581 -0.223001
H1    H     H_    0.844005 0.481608 0.156387 0.152753
H2    H     H_    0.809952 0.366228 0.821390 0.132419
H3    H     H_    0.897857 0.438818 0.966333 0.188931
H4    H     H_    0.408728 0.513739 0.184930 0.225152
H5    H     H_    0.093775 0.573202 0.018084 0.169046
H6    H     H_    0.053920 0.018896 0.589882 0.164998
H7    H     H_    0.005391 0.167773 0.655626 0.173897
H8    H     H_    0.161459 0.097103 0.663953 0.169066
H9    H     H_    0.203546 0.743347 0.723171 0.308935
H10   H     H_    0.271586 0.341573 0.371306 0.392569
H11   H     H_    0.209930 0.308665 0.750117 0.173002
H12   H     H_    0.410025 0.768340 0.325342 0.163981
H13   H     H_    0.044458 0.351627 0.742085 0.187659
H14   H     H_    0.054748 0.297471 0.865104 0.129817
H15   H     H_    0.125522 0.503726 0.199747 0.183869
H16   H     H_    0.065543 0.658968 0.187087 0.174505
H17   H     H_    0.160949 0.636084 0.277345 0.191650
H18   H     H_    0.707209 0.274809 0.707711 0.320456
H19   H     H_    0.871278 0.008008 0.476370 0.161167
H20   H     H_    0.841745 0.862163 0.406119 0.165023
H21   H     H_    0.918203 0.861159 0.510865 0.191133
H22   H     H_    0.226539 0.861992 0.270882 0.194963
H23   H     H_    0.119355 0.058484 0.361010 0.171063
H24   H     H_    0.655831 0.126969 0.573762 0.203363
H25   H     H_    0.921417 0.367300 0.372801 0.162122
H26   H     H_    0.697499 0.668325 0.638678 0.240791
H27   H     H_    0.749068 0.786746 0.778321 0.186773
H28   H     H_    0.983509 0.791368 0.792750 0.148927
N1    N     N_R   0.856860 0.501200 0.500990 -0.141871
N2    N     N_R   0.142450 0.501280 0.501020 -0.152646
O1    O     O_R   0.385310 0.683220 0.500000 -0.564251
O2    O     O_3   0.202934 0.682844 0.663414 -0.701661
O3    O     O_3   0.184044 0.347597 0.353821 -0.792091
O4    O     O_3   0.125574 0.480386 0.828850 -0.593036
O5    O     O_3   0.281537 0.634418 0.119792 -0.615371
O6    O     O_3   0.611261 0.309669 0.732974 -0.768630
O7    O     O_3   0.705138 0.892730 0.561277 -0.609131
O8    O     O_R   0.614640 0.683250 0.500010 -0.611061
O9    O     O_R   0.328400 0.499950 0.653610 -0.517454
O10   O     O_R   0.557730 0.499970 0.653620 -0.612504
O11   O     O_R   0.385360 0.316750 0.499990 -0.602631
O12   O     O_R   0.614690 0.316780 0.500000 -0.603157
O13   O     O_R   0.442270 0.500030 0.346380 -0.656779
O14   O     O_R   0.671600 0.500050 0.346390 -0.627268
O15   O     O_3   0.178200 0.174991 0.521170 -0.589511
Zn1   Zn    Zn3+2 0.346880 0.499980 0.499990 1.000079
Zn2   Zn    Zn3+2 0.653120 0.500020 0.500010 0.948779

loop_
_geom_bond_atom_site_label_1
_geom_bond_atom_site_label_2
_ccdc_geom_bond_type
O8    Zn2   S    
C33   H15   S    
C31   O15   S    
C19   C20   A    
O14   Zn2   S    
C28   O4    S    
C24   N2    A    
C7    C8    A    
C22   H25   S    
C38   O6    S    
C12   C23   A    
C29   C30   A    
C28   C29   A    
H9    O2    S    
C4    O10   A    
O10   Zn2   S    
C32   O4    S    
C5    C6    A    
C24   O3    S    
C18   H28   S    
O12   Zn2   S    
C35   H19   S    
C18   C19   A    
C37   H2    S    
C11   O7    S    
C33   O5    S    
C27   C39   A    
C8    C9    A    
C31   H6    S    
C25   O14   A    
C8    C14   A    
C14   C16   S    
C9    C10   A    
C22   N1    A    
O11   Zn1   S    
N1    Zn2   S    
C33   H16   S    
C31   H7    S    
C13   C14   A    
C1    O8    A    
C20   N2    A    
C19   O2    S    
C32   H14   S    
C26   H3    S    
C17   H27   S    
H18   O6    S    
C34   C39   A    
C4    O9    A    
H10   O3    S    
C15   H26   S    
C35   O7    S    
C21   N1    A    
C35   H20   S    
C6    H23   S    
C2    C4    S    
C32   H11   S    
C37   C38   A    
C3    C9    A    
O1    Zn1   S    
C27   C40   A    
C16   O12   A    
C17   C18   A    
C35   H21   S    
C1    O1    A    
C39   H4    S    
C26   C36   A    
C40   H1    S    
C31   H8    S    
C22   C24   A    
C12   C34   A    
N2    Zn1   S    
C32   H13   S    
C15   C17   A    
C36   C37   A    
C33   H17   S    
C12   C30   A    
C1    C10   S    
C3    C5    A    
C3    H12   S    
C6    C7    A    
C25   C27   S    
C23   C38   A    
C30   O5    S    
C11   C13   A    
C26   C40   A    
C7    O15   S    
C13   H24   S    
C16   O11   A    
C5    H22   S    
C34   C36   A    
C10   C11   A    
C15   C21   A    
O13   Zn1   S    
C20   C21   A    
C29   H5    S    
C2    C23   A    
C25   O13   A    
C2    C28   A    
O9    Zn1   S    
