data_mof_unit_59271.cif
_audit_creation_date              2012-12-10T18:55:57-0500
_audit_creation_method            fapswitch 2.2
_symmetry_space_group_name_H-M    P1
_symmetry_Int_Tables_number       1
_space_group_crystal_system       triclinic
_cell_length_a                    10.720142
_cell_length_b                    9.941765
_cell_length_c                    14.879159
_cell_angle_alpha                 89.999946
_cell_angle_beta                  90.475614
_cell_angle_gamma                 90.0
_cell_volume                      1585.72346531

loop_
_atom_site_label
_atom_site_type_symbol
_atom_type_description
_atom_site_fract_x
_atom_site_fract_y
_atom_site_fract_z
_atom_type_partial_charge
C1    C     C_R   0.260177 0.500030 0.500402 0.839361
C2    C     C_R   0.739823 0.500030 0.499598 0.839354
C3    C     C_R   0.500042 0.499566 0.328323 0.845687
C4    C     C_R   0.499957 0.499566 0.671677 0.845684
C5    C     C_R   0.549667 0.072641 0.570371 0.336137
C6    C     C_R   0.464712 0.930217 0.425005 0.345738
C7    C     C_R   0.450333 0.072641 0.429629 0.336123
C8    C     C_R   0.535290 0.930217 0.574995 0.345753
C9    C     C_R   0.063808 0.377630 0.501133 -0.211492
C10   C     C_R   0.936105 0.622899 0.499798 -0.197138
C11   C     C_R   0.936192 0.377630 0.498866 -0.211503
C12   C     C_R   0.063895 0.622899 0.500204 -0.197141
C13   C     C_R   0.603887 0.535667 0.093713 -0.161927
C14   C     C_R   0.601267 0.430082 0.904499 -0.187920
C15   C     C_R   0.396109 0.535683 0.906286 -0.161930
C16   C     C_R   0.398712 0.430106 0.095503 -0.187923
C17   C     C_R   0.603201 0.543202 0.186410 -0.253187
C18   C     C_R   0.601741 0.437686 0.811811 -0.157789
C19   C     C_R   0.396799 0.543218 0.813589 -0.253187
C20   C     C_R   0.398242 0.437711 0.188191 -0.157790
C21   C     C_R   0.499485 0.496314 0.232787 0.005338
C22   C     C_R   0.500510 0.496312 0.767214 0.005323
C23   C     C_R   0.501167 0.480081 0.048392 0.112389
C24   C     C_R   0.498819 0.480079 0.951608 0.112389
C25   C     C_R   0.872454 0.500189 0.499187 -0.006104
C26   C     C_R   0.127546 0.500189 0.500814 -0.006102
H1    H     H_    0.682985 0.575135 0.057308 0.132733
H2    H     H_    0.680285 0.385891 0.939475 0.130798
H3    H     H_    0.317017 0.575167 0.942690 0.132733
H4    H     H_    0.319686 0.385931 0.060528 0.130798
H5    H     H_    0.682629 0.585651 0.221932 0.122434
H6    H     H_    0.680861 0.399331 0.774872 0.135723
H7    H     H_    0.317379 0.585682 0.778066 0.122436
H8    H     H_    0.319116 0.399373 0.225131 0.135713
H9    H     H_    0.111869 0.281900 0.502989 0.137095
H10   H     H_    0.887726 0.718597 0.499838 0.154942
H11   H     H_    0.888131 0.281900 0.497009 0.137094
H12   H     H_    0.112274 0.718597 0.500165 0.154939
N1    N     N_R   0.500000 0.857200 0.500000 -0.222612
N2    N     N_R   0.500000 0.142800 0.500000 -0.214247
O1    O     O_R   0.316770 0.614620 0.499990 -0.618113
O2    O     O_R   0.683230 0.385380 0.500010 -0.630210
O3    O     O_R   0.683230 0.614620 0.500010 -0.618109
O4    O     O_R   0.316770 0.385380 0.499990 -0.630198
O5    O     O_R   0.499990 0.614660 0.369060 -0.593426
O6    O     O_R   0.500010 0.385340 0.630940 -0.560364
O7    O     O_R   0.500010 0.614660 0.630940 -0.593424
O8    O     O_R   0.499990 0.385340 0.369060 -0.560353
Zn1   Zn    Zn3+2 0.500000 0.653120 0.500000 0.978835
Zn2   Zn    Zn3+2 0.500000 0.346880 0.500000 0.989088
O9    O     O_3   0.602526 0.142043 0.641516 -0.557970
C27   C     C_3   0.733818 0.126541 0.641674 0.186400
H13   H     H_    0.776000 0.226283 0.628396 0.150171
H14   H     H_    0.770504 0.054908 0.590350 0.088021
C28   C     C_3   0.778346 0.081101 0.734231 -0.859686
H15   H     H_    0.743707 0.978313 0.748802 0.285037
H16   H     H_    0.881905 0.079764 0.736480 0.201671
H17   H     H_    0.744063 0.151243 0.786594 0.247176
O10   O     O_3   0.439373 0.867165 0.344326 -0.570899
C29   C     C_3   0.548926 0.865747 0.291160 0.150169
H18   H     H_    0.535775 0.786907 0.239573 0.178432
H19   H     H_    0.634119 0.838188 0.330666 0.116827
C30   C     C_3   0.570368 0.996576 0.239519 -0.854357
H20   H     H_    0.605808 0.076548 0.284997 0.261855
H21   H     H_    0.642058 0.979694 0.187258 0.200296
H22   H     H_    0.482998 0.029773 0.205740 0.290624
O11   O     O_3   0.397477 0.142044 0.358483 -0.557954
C31   C     C_3   0.266189 0.126515 0.358308 0.186367
H23   H     H_    0.223984 0.226236 0.371609 0.150158
H24   H     H_    0.229509 0.054842 0.409607 0.088057
C32   C     C_3   0.221686 0.081121 0.265736 -0.859678
H25   H     H_    0.256345 0.978350 0.251145 0.285027
H26   H     H_    0.118128 0.079767 0.263476 0.201671
H27   H     H_    0.255967 0.151297 0.213396 0.247185
O12   O     O_3   0.560640 0.867163 0.655672 -0.570903
C33   C     C_3   0.451097 0.865749 0.708848 0.150164
H28   H     H_    0.464254 0.786906 0.760432 0.178437
H29   H     H_    0.365895 0.838197 0.669349 0.116819
C34   C     C_3   0.429669 0.996575 0.760495 -0.854337
H30   H     H_    0.394220 0.076550 0.715023 0.261859
H31   H     H_    0.357991 0.979692 0.812765 0.200294
H32   H     H_    0.517048 0.029768 0.794264 0.290624

loop_
_geom_bond_atom_site_label_1
_geom_bond_atom_site_label_2
_ccdc_geom_bond_type
C28   H15   S    
C30   H21   S    
C14   C18   A    
C33   C34   S    
C34   H32   S    
O7    Zn1   S    
C4    O6    A    
C15   C19   A    
C29   C30   S    
C33   H29   S    
C11   C25   A    
C16   H4    S    
C3    O8    A    
C13   C23   A    
C29   H19   S    
C14   C24   A    
C11   H11   S    
C7    N2    A    
C31   H23   S    
C23   C24   S    
C8    N1    A    
C27   C28   S    
C20   H8    S    
O8    Zn2   S    
C30   H22   S    
O10   C29   S    
O11   C31   S    
O1    Zn1   S    
C27   H14   S    
C9    C26   A    
C15   H3    S    
O9    C27   S    
C19   C22   A    
C33   H28   S    
C19   H7    S    
C34   H31   S    
O3    Zn1   S    
C3    O5    A    
C8    O12   S    
C17   C21   A    
C30   H20   S    
C12   C26   A    
C29   H18   S    
O12   C33   S    
C5    C8    A    
C4    C22   S    
C1    O4    A    
O5    Zn1   S    
C2    O3    A    
C16   C20   A    
C9    C11   A    
C10   C12   A    
O2    Zn2   S    
C10   C25   A    
C1    O1    A    
C15   C24   A    
N1    Zn1   S    
C16   C23   A    
C28   H16   S    
C1    C26   S    
C17   H5    S    
C3    C21   S    
C18   H6    S    
C27   H13   S    
C32   H26   S    
O4    Zn2   S    
C18   C22   A    
C6    O10   S    
C5    O9    S    
C32   H27   S    
C6    C7    A    
O6    Zn2   S    
C13   C17   A    
C32   H25   S    
C2    O2    A    
C31   C32   S    
N2    Zn2   S    
C2    C25   S    
C12   H12   S    
C7    O11   S    
C34   H30   S    
C20   C21   A    
C31   H24   S    
C28   H17   S    
C9    H9    S    
C6    N1    A    
C13   H1    S    
C10   H10   S    
C14   H2    S    
C5    N2    A    
C4    O7    A    
