data_mof_unit_58698.cif
_audit_creation_date              2012-12-10T20:41:47-0500
_audit_creation_method            fapswitch 2.2
_symmetry_space_group_name_H-M    P1
_symmetry_Int_Tables_number       1
_space_group_crystal_system       triclinic
_cell_length_a                    15.028889
_cell_length_b                    15.104646
_cell_length_c                    9.896798
_cell_angle_alpha                 89.735631
_cell_angle_beta                  89.482851
_cell_angle_gamma                 89.988025
_cell_volume                      2246.51754361

loop_
_atom_site_label
_atom_site_type_symbol
_atom_type_description
_atom_site_fract_x
_atom_site_fract_y
_atom_site_fract_z
_atom_type_partial_charge
C1    C     C_R   0.379610 0.880738 0.500592 0.890342
C2    C     C_R   0.380412 0.119886 0.499980 0.873112
C3    C     C_R   0.879607 0.380741 0.500592 0.890328
C4    C     C_R   0.880412 0.619886 0.499980 0.873105
C5    C     C_3   0.345331 0.274921 0.719337 -0.462863
C6    C     C_3   0.371844 0.696459 0.659213 -0.475905
C7    C     C_3   0.845437 0.775028 0.719225 -0.462809
C8    C     C_3   0.871780 0.196525 0.659382 -0.475857
C9    C     C_R   0.426429 0.026594 0.072799 0.156455
C10   C     C_R   0.926439 0.526632 0.072797 0.156478
C11   C     C_R   0.575309 0.982359 0.070848 -0.103882
C12   C     C_R   0.075303 0.482319 0.070850 -0.103879
C13   C     C_R   0.575395 0.982673 0.927119 -0.132794
C14   C     C_R   0.075388 0.482632 0.927120 -0.132794
C15   C     C_R   0.425646 0.025404 0.930428 0.119419
C16   C     C_R   0.925657 0.525446 0.930426 0.119423
C17   C     C_3   0.333660 0.983843 0.935257 0.166294
C18   C     C_3   0.833643 0.483936 0.935246 0.166290
C19   C     C_3   0.335772 0.988921 0.088718 -0.472677
C20   C     C_3   0.835760 0.489001 0.088708 -0.472663
C21   C     C_R   0.618387 0.121213 0.499535 0.882808
C22   C     C_R   0.618799 0.879298 0.499611 0.903631
C23   C     C_R   0.118388 0.621211 0.499536 0.882817
C24   C     C_R   0.118796 0.379295 0.499611 0.903605
C25   C     C_R   0.326588 0.262963 0.572690 0.106341
C26   C     C_R   0.303036 0.759314 0.607989 0.101257
C27   C     C_R   0.826623 0.762997 0.572601 0.106298
C28   C     C_R   0.802987 0.259362 0.608045 0.101276
C29   C     C_R   0.315577 0.186715 0.496935 -0.106276
C30   C     C_R   0.308403 0.820242 0.503197 -0.125059
C31   C     C_R   0.815574 0.686712 0.496936 -0.106257
C32   C     C_R   0.808391 0.320254 0.503203 -0.125087
C33   C     C_R   0.245818 0.179396 0.405153 -0.277927
C34   C     C_R   0.240965 0.826266 0.406939 -0.263555
C35   C     C_R   0.745774 0.679355 0.405231 -0.277912
C36   C     C_R   0.740979 0.326253 0.406893 -0.263544
C37   C     C_R   0.679385 0.743036 0.404763 0.077117
C38   C     C_R   0.674456 0.262033 0.405238 0.093737
C39   C     C_R   0.179429 0.243077 0.404679 0.077106
C40   C     C_R   0.174440 0.762047 0.405289 0.093732
C41   C     C_R   0.685325 0.813758 0.496321 -0.096480
C42   C     C_R   0.678610 0.192867 0.501145 -0.124575
C43   C     C_R   0.185324 0.313757 0.496319 -0.096517
C44   C     C_R   0.178620 0.692857 0.501144 -0.124529
C45   C     C_R   0.761475 0.825969 0.572807 0.069270
C46   C     C_R   0.738452 0.196307 0.607206 0.123250
C47   C     C_R   0.261436 0.325932 0.572896 0.069312
C48   C     C_R   0.238498 0.696262 0.607158 0.123244
C49   C     C_3   0.772301 0.844410 0.719968 -0.489346
C50   C     C_3   0.799748 0.126189 0.658907 -0.485830
C51   C     C_3   0.272191 0.344297 0.720081 -0.489397
C52   C     C_3   0.299809 0.626127 0.658753 -0.485840
H1    H     H_    0.240220 0.122191 0.340015 0.149124
H2    H     H_    0.241578 0.878852 0.332146 0.150028
H3    H     H_    0.740144 0.622119 0.340160 0.149088
H4    H     H_    0.741613 0.378818 0.332061 0.150035
H5    H     H_    0.288606 0.037441 0.133678 0.169606
H6    H     H_    0.336373 0.923318 0.139992 0.211950
H7    H     H_    0.788617 0.537542 0.133677 0.169643
H8    H     H_    0.836331 0.423390 0.139969 0.211904
H9    H     H_    0.797247 0.912527 0.738458 0.195863
H10   H     H_    0.812076 0.072659 0.584205 0.191964
H11   H     H_    0.297118 0.412401 0.738680 0.195874
H12   H     H_    0.312102 0.572618 0.584004 0.191986
H13   H     H_    0.713192 0.824579 0.781386 0.210363
H14   H     H_    0.780381 0.103062 0.761845 0.204606
H15   H     H_    0.213057 0.324434 0.781405 0.210375
H16   H     H_    0.280483 0.602970 0.761692 0.204598
H17   H     H_    0.412625 0.303054 0.736326 0.201402
H18   H     H_    0.426131 0.684246 0.584435 0.199268
H19   H     H_    0.912746 0.803169 0.736109 0.201378
H20   H     H_    0.926099 0.184289 0.584660 0.199253
H21   H     H_    0.329032 0.215512 0.780945 0.203913
H22   H     H_    0.394380 0.713670 0.762436 0.203700
H23   H     H_    0.829159 0.715647 0.780925 0.203906
H24   H     H_    0.894275 0.213770 0.762618 0.203682
H25   H     H_    0.635841 0.966457 0.124036 0.146226
H26   H     H_    0.135829 0.466385 0.124038 0.146226
H27   H     H_    0.636054 0.967442 0.872449 0.143012
H28   H     H_    0.136041 0.467369 0.872451 0.143016
N1    N     N_R   0.499140 0.000000 0.142800 -0.099392
N2    N     N_R   0.999140 0.500000 0.142800 -0.099387
N3    N     N_R   0.499160 0.000000 0.857150 -0.116151
N4    N     N_R   0.999160 0.500000 0.857150 -0.116156
O1    O     O_R   0.408400 0.908380 0.614690 -0.637371
O2    O     O_R   0.408400 0.091620 0.614690 -0.631701
O3    O     O_R   0.908400 0.408380 0.614690 -0.637359
O4    O     O_R   0.908400 0.591620 0.614690 -0.631711
O5    O     O_R   0.408370 0.908370 0.385350 -0.617407
O6    O     O_R   0.408370 0.091630 0.385350 -0.617635
O7    O     O_R   0.908370 0.408370 0.385350 -0.617406
O8    O     O_R   0.908370 0.591630 0.385350 -0.617617
O9    O     O_R   0.591610 0.091610 0.614650 -0.616799
O10   O     O_R   0.591610 0.908390 0.614650 -0.630836
O11   O     O_R   0.091610 0.591610 0.614650 -0.616795
O12   O     O_R   0.091610 0.408390 0.614650 -0.630845
O13   O     O_R   0.591590 0.091600 0.385310 -0.594517
O14   O     O_R   0.591590 0.908400 0.385310 -0.604556
O15   O     O_R   0.091590 0.591600 0.385310 -0.594510
O16   O     O_R   0.091590 0.408400 0.385310 -0.604541
Zn1   Zn    Zn3+2 0.500010 0.000000 0.653130 0.927360
Zn2   Zn    Zn3+2 0.000010 0.500000 0.653130 0.927357
Zn3   Zn    Zn3+2 0.499980 0.000000 0.346870 0.958277
Zn4   Zn    Zn3+2 0.999980 0.500000 0.346870 0.958293
N5    N     N_3   0.603685 0.732703 0.319082 -0.440303
H29   H     H_    0.626479 0.729889 0.219063 0.187157
H30   H     H_    0.573483 0.672096 0.342384 0.173015
N6    N     N_3   0.605242 0.265141 0.305941 -0.419019
H31   H     H_    0.545263 0.276844 0.357184 0.173114
H32   H     H_    0.614957 0.318705 0.240132 0.180624
N7    N     N_3   0.103778 0.232786 0.318890 -0.440249
H33   H     H_    0.126632 0.230026 0.218897 0.187115
H34   H     H_    0.073568 0.172169 0.342057 0.173034
N8    N     N_3   0.105194 0.765184 0.306054 -0.419038
H35   H     H_    0.045237 0.776887 0.357349 0.173093
H36   H     H_    0.114896 0.818760 0.240265 0.180637
N9    N     N_3   0.263824 0.039607 0.876636 -0.447347
H37   H     H_    0.275700 0.045175 0.772749 0.200295
H38   H     H_    0.267620 0.103512 0.916408 0.162945
N10   N     N_3   0.328163 0.891515 0.890432 -0.428638
H39   H     H_    0.391559 0.863718 0.880165 0.194476
H40   H     H_    0.296639 0.888776 0.797112 0.217492
N11   N     N_3   0.763835 0.539751 0.876640 -0.447354
H41   H     H_    0.767689 0.603662 0.916397 0.162956
H42   H     H_    0.775700 0.545299 0.772746 0.200313
N12   N     N_3   0.828091 0.391611 0.890400 -0.428661
H43   H     H_    0.796515 0.388893 0.797117 0.217440
H44   H     H_    0.891477 0.363794 0.880043 0.194522

loop_
_geom_bond_atom_site_label_1
_geom_bond_atom_site_label_2
_ccdc_geom_bond_type
C23   O15   A    
C13   H27   S    
C38   N6    S    
N12   H43   S    
C22   O14   A    
O12   Zn2   S    
N4    Zn2   S    
N7    H33   S    
C14   N4    A    
O7    Zn4   S    
N8    H35   S    
N11   H41   S    
C11   N1    A    
N5    H30   S    
C28   C46   A    
C33   C39   A    
C49   H13   S    
C23   O11   A    
C2    C29   S    
C34   C40   A    
C32   C36   A    
C35   C37   A    
C38   C42   A    
N9    H38   S    
C7    H19   S    
N11   H42   S    
C22   C41   S    
O14   Zn3   S    
C29   C33   A    
C8    H24   S    
C7    C27   S    
N6    H31   S    
C25   C29   A    
C3    O7    A    
C42   C46   A    
C2    O6    A    
C5    H17   S    
C11   H25   S    
C17   N10   S    
C9    C19   S    
O16   Zn4   S    
C47   C51   S    
C3    O3    A    
C10   C20   S    
C12   H26   S    
N12   H44   S    
O10   Zn1   S    
C14   H28   S    
C20   H8    S    
C25   C47   A    
C40   C44   A    
C52   H16   S    
O11   Zn2   S    
C17   N9    S    
C18   N11   S    
C27   C45   A    
C39   N7    S    
O15   Zn4   S    
O5    Zn3   S    
C37   C41   A    
C22   O10   A    
N10   H40   S    
C6    H22   S    
C19   H6    S    
C33   H1    S    
C40   N8    S    
C8    H20   S    
C49   H9    S    
C30   C34   A    
C35   H3    S    
C28   C32   A    
C51   H11   S    
C7    C49   S    
C52   H12   S    
O9    Zn1   S    
C7    H23   S    
C27   C31   A    
C10   N2    A    
C16   N4    A    
C19   H5    S    
C23   C44   S    
N2    Zn4   S    
C37   N5    S    
C36   H4    S    
O3    Zn2   S    
C21   O13   A    
O4    Zn2   S    
C45   C49   S    
C12   N2    A    
N7    H34   S    
C51   H15   S    
C20   H7    S    
C50   H14   S    
O13   Zn3   S    
C5    C25   S    
C12   C14   A    
C34   H2    S    
C50   H10   S    
C31   C35   A    
C1    O1    A    
C8    C50   S    
O1    Zn1   S    
N10   H39   S    
N1    Zn3   S    
C6    H18   S    
C46   C50   S    
C1    O5    A    
N3    Zn1   S    
C24   O16   A    
N8    H36   S    
C26   C30   A    
C4    O4    A    
C26   C48   A    
N5    H29   S    
C13   N3    A    
C24   O12   A    
C9    C15   A    
C10   C16   A    
N9    H37   S    
C18   N12   S    
C11   C13   A    
C6    C26   S    
C21   O9    A    
C15   N3    A    
C36   C38   A    
C1    C30   S    
C17   C19   S    
N6    H32   S    
C2    O2    A    
C18   C20   S    
C5    H21   S    
C3    C32   S    
O6    Zn3   S    
C4    C31   S    
O8    Zn4   S    
C21   C42   S    
C48   C52   S    
C39   C43   A    
C8    C28   S    
C16   C18   S    
C24   C43   S    
C41   C45   A    
C5    C51   S    
C6    C52   S    
C15   C17   S    
O2    Zn1   S    
C43   C47   A    
C44   C48   A    
C9    N1    A    
C4    O8    A    
