data_mof_unit_13946.cif
_audit_creation_date              2012-12-11T14:08:24-0500
_audit_creation_method            fapswitch 2.2
_symmetry_space_group_name_H-M    P1
_symmetry_Int_Tables_number       1
_space_group_crystal_system       triclinic
_cell_length_a                    10.924754
_cell_length_b                    10.950202
_cell_length_c                    18.680791
_cell_angle_alpha                 90.496142
_cell_angle_beta                  90.000088
_cell_angle_gamma                 60.410068
_cell_volume                      1943.20190062

loop_
_atom_site_label
_atom_site_type_symbol
_atom_type_description
_atom_site_fract_x
_atom_site_fract_y
_atom_site_fract_z
_atom_type_partial_charge
C1    C     C_R   0.236381 0.645685 0.608766 0.586412
C2    C     C_2   0.781749 0.153510 0.706807 -0.125299
C3    C     C_2   0.180784 0.663234 0.681348 -0.102135
C4    C     C_R   0.653498 0.622141 0.601492 0.576389
C5    C     C_2   0.194427 0.662581 0.839297 -0.089433
C6    C     C_2   0.190836 0.561963 0.799503 -0.114382
C7    C     C_2   0.219156 0.549706 0.722418 -0.091268
C8    C     C_2   0.649743 0.646250 0.317233 -0.091478
C9    C     C_2   0.633435 0.665546 0.159514 -0.106387
C10   C     C_2   0.706635 0.546013 0.195227 -0.161926
C11   C     C_2   0.687763 0.537121 0.271733 -0.147486
C12   C     C_3   0.675548 0.548802 0.800975 -0.184675
C13   C     C_2   0.633009 0.196859 0.318534 -0.100492
C14   C     C_2   0.637199 0.202553 0.163954 -0.107535
C15   C     C_2   0.522562 0.230831 0.201137 -0.165825
C16   C     C_R   0.628539 0.227034 0.601666 0.583346
C17   C     C_2   0.517126 0.257991 0.277100 -0.151717
C18   C     C_2   0.122143 0.680225 0.344925 -0.109792
C19   C     C_2   0.114039 0.691398 0.190679 -0.086889
C20   C     C_2   0.042556 0.803860 0.234255 -0.147614
C21   C     C_2   0.074527 0.799535 0.309610 -0.167063
C22   C     C_R   0.703242 0.102453 0.897696 0.561657
C23   C     C_3   0.699231 0.674683 0.812634 0.003426
C24   C     C_R   0.723738 0.688365 0.888421 0.541126
C25   C     C_R   0.119247 0.706191 0.907464 0.539255
C26   C     C_R   0.673123 0.114394 0.101272 0.556686
C27   C     C_R   0.692283 0.688707 0.094698 0.555499
C28   C     C_R   0.215596 0.651062 0.404529 0.548686
C29   C     C_R   0.086841 0.713397 0.115273 0.555830
C30   C     C_R   0.641328 0.620952 0.392630 0.545478
C31   C     C_R   0.614274 0.233277 0.393426 0.544111
C32   C     C_3   0.569329 0.809828 0.783755 -0.239216
C33   C     C_3   0.549447 0.792583 0.703831 -0.227526
C34   C     C_3   0.668841 0.647813 0.676920 0.065102
C35   C     C_3   0.831972 0.651332 0.770052 -0.249397
C36   C     C_3   0.811672 0.641004 0.689533 -0.310774
C37   C     C_3   0.662685 0.529497 0.720559 0.271216
C38   C     C_2   0.676848 0.153212 0.669569 -0.055035
C39   C     C_2   0.688801 0.168897 0.828508 0.366347
C40   C     C_2   0.799657 0.118833 0.783360 -0.150942
Cr1   Cr    Cr6+3 0.393010 0.398050 0.501480 1.031200
Cr2   Cr    Cr6+3 0.398820 0.707980 0.501630 1.036328
Cr3   Cr    Cr6+3 0.708140 0.393940 0.496850 1.025582
Cr4   Cr    Cr6+3 0.937950 0.938450 0.008940 1.014385
Cr5   Cr    Cr6+3 0.626180 0.937030 0.994750 1.029244
Cr6   Cr    Cr6+3 0.937790 0.625760 0.001410 1.022843
F1    F     F_    0.557064 0.263434 0.806030 -0.625024
F2    F     F_    0.538429 0.528078 0.707141 -0.617009
H1    H     H_    0.584583 0.902455 0.791317 0.154786
H2    H     H_    0.232540 0.728677 0.816470 0.118012
H3    H     H_    0.472499 0.831008 0.813647 0.131727
H4    H     H_    0.125095 0.768505 0.704241 0.081311
H5    H     H_    0.792911 0.454272 0.169730 0.151964
H6    H     H_    0.718910 0.432991 0.291941 0.153433
H7    H     H_    0.541818 0.754434 0.183536 0.111404
H8    H     H_    0.617303 0.751745 0.299043 0.094856
H9    H     H_    0.438284 0.217668 0.178266 0.156795
H10   H     H_    0.412799 0.323343 0.299946 0.158098
H11   H     H_    0.717282 0.223147 0.186273 0.096420
H12   H     H_    0.751629 0.425691 0.704223 0.134480
H13   H     H_    0.738305 0.131258 0.297073 0.082534
H14   H     H_    0.969741 0.906617 0.212799 0.151944
H15   H     H_    0.444540 0.800976 0.695953 0.185451
H16   H     H_    0.077388 0.889560 0.332652 0.153064
H17   H     H_    0.188332 0.587394 0.209876 0.086580
H18   H     H_    0.110563 0.594004 0.323204 0.107247
H19   H     H_    0.550664 0.878793 0.673239 0.101292
H20   H     H_    0.853829 0.738980 0.780767 0.126425
H21   H     H_    0.814735 0.728612 0.661328 0.117603
H22   H     H_    0.578342 0.567195 0.829541 0.176752
H23   H     H_    0.925646 0.552286 0.787230 0.136081
H24   H     H_    0.764931 0.451243 0.822935 0.098684
H25   H     H_    0.900032 0.540862 0.668240 0.127740
H26   H     H_    0.905147 0.046260 0.801954 0.089416
H27   H     H_    0.853205 0.182629 0.681782 0.120775
H28   H     H_    0.611955 0.115313 0.694341 0.140572
H29   H     H_    0.160358 0.490391 0.822824 0.146422
H30   H     H_    0.272588 0.444506 0.699390 0.186204
O1    O     O_R   0.507110 0.256280 0.580300 -0.512540
O2    O     O_R   0.837080 0.593860 0.915300 -0.526289
O3    O     O_R   0.064770 0.636080 0.932550 -0.498219
O4    O     O_R   0.280830 0.527190 0.577940 -0.494932
O5    O     O_R   0.068250 0.829200 0.092940 -0.512705
O6    O     O_R   0.799650 0.057040 0.080330 -0.508784
O7    O     O_R   0.586130 0.079760 0.077080 -0.510255
O8    O     O_R   0.627700 0.809630 0.066580 -0.496702
O9    O     O_R   0.816140 0.597180 0.075920 -0.511013
O10   O     O_R   0.045360 0.639170 0.081440 -0.492487
O11   O     O_3   0.833980 0.833750 0.001700 -0.255631
O12   O     O_R   0.524640 0.695370 0.425100 -0.497744
O13   O     O_R   0.261360 0.738990 0.584270 -0.511781
O14   O     O_R   0.532590 0.694780 0.574370 -0.487852
O15   O     O_R   0.744470 0.503750 0.577000 -0.534779
O16   O     O_R   0.698520 0.277230 0.571620 -0.491468
O17   O     O_R   0.498530 0.256920 0.419280 -0.518999
O18   O     O_R   0.272880 0.527780 0.428680 -0.513850
O19   O     O_R   0.252780 0.739630 0.423250 -0.514529
O20   O     O_R   0.735890 0.504390 0.415980 -0.518207
O21   O     O_R   0.690560 0.277820 0.422350 -0.509566
O22   O     O_3   0.499990 0.499990 0.499980 -0.237635
O23   O     O_R   0.089190 0.825870 0.932320 -0.519534
O24   O     O_R   0.819070 0.053960 0.931440 -0.537567
O25   O     O_R   0.607070 0.076440 0.916460 -0.487745
O26   O     O_R   0.647110 0.806550 0.917690 -0.511094

loop_
_geom_bond_atom_site_label_1
_geom_bond_atom_site_label_2
_ccdc_geom_bond_type
C28   O19   A    
C34   C37   S    
C35   C36   S    
Cr3   O20   S    
C30   O12   A    
Cr4   O5    S    
C8    H8    S    
Cr6   O11   S    
C38   H28   S    
C14   H11   S    
C12   C23   S    
C9    C27   S    
Cr3   O21   S    
C29   O5    A    
C3    C7    D    
C8    C11   D    
C5    C6    D    
Cr1   O18   S    
Cr1   O4    S    
C18   C21   D    
Cr3   O16   S    
Cr2   O13   S    
C12   C37   S    
C10   H5    S    
C29   O10   A    
Cr5   O25   S    
C24   O2    A    
C19   C20   D    
C21   H16   S    
C1    C3    S    
C23   C24   S    
C9    H7    S    
Cr4   O23   S    
C31   O21   A    
Cr5   O11   S    
C9    C10   D    
Cr2   O14   S    
C17   H10   S    
C12   H24   S    
C35   H23   S    
C1    O13   A    
C25   O3    A    
C15   H9    S    
Cr6   O10   S    
C4    C34   S    
C18   C28   S    
Cr3   O22   S    
C10   C11   S    
Cr2   O19   S    
C39   C40   D    
Cr4   O24   S    
C6    H29   S    
C1    O4    A    
C22   O25   A    
C24   O26   A    
C27   O8    A    
Cr5   O7    S    
C32   H3    S    
Cr5   O26   S    
Cr2   O22   S    
Cr6   O3    S    
C2    C38   D    
C33   H15   S    
C33   C34   S    
Cr1   O22   S    
C14   C26   S    
C37   F2    S    
C27   O9    A    
C11   H6    S    
C7    H30   S    
C5    C25   S    
C23   C35   S    
C5    H2    S    
C19   C29   S    
C36   H21   S    
C33   H19   S    
C39   F1    S    
Cr6   O9    S    
C15   C17   S    
C12   H22   S    
C26   O6    A    
C13   C31   S    
Cr4   O6    S    
Cr1   O1    S    
C3    H4    S    
C6    C7    S    
C18   H18   S    
C30   O20   A    
C16   O16   A    
C22   O24   A    
C13   C17   D    
C28   O18   A    
C16   O1    A    
C8    C30   S    
C23   C32   S    
Cr5   O8    S    
C32   C33   S    
Cr6   O2    S    
C25   O23   A    
Cr1   O17   S    
C35   H20   S    
C26   O7    A    
C31   O17   A    
C22   C39   S    
Cr3   O15   S    
C40   H26   S    
C19   H17   S    
C34   C36   S    
C20   H14   S    
C32   H1    S    
C37   H12   S    
C36   H25   S    
C2    H27   S    
C4    O15   A    
C2    C40   S    
C13   H13   S    
C20   C21   S    
C14   C15   D    
Cr2   O12   S    
Cr4   O11   S    
C16   C38   S    
C4    O14   A    
