data_mof_unit_51640.cif
_audit_creation_date              2012-12-10T20:26:25-0500
_audit_creation_method            fapswitch 2.2
_symmetry_space_group_name_H-M    P1
_symmetry_Int_Tables_number       1
_space_group_crystal_system       triclinic
_cell_length_a                    10.733726
_cell_length_b                    10.699678
_cell_length_c                    9.906276
_cell_angle_alpha                 90.263457
_cell_angle_beta                  90.144793
_cell_angle_gamma                 90.743767
_cell_volume                      1137.59847015

loop_
_atom_site_label
_atom_site_type_symbol
_atom_type_description
_atom_site_fract_x
_atom_site_fract_y
_atom_site_fract_z
_atom_type_partial_charge
C1    C     C_R   0.501113 0.260201 0.499583 0.874271
C2    C     C_R   0.515798 0.128893 0.496951 -0.134753
C3    C     C_R   0.503135 0.063888 0.374590 -0.217276
C4    C     C_R   0.505440 0.935267 0.374976 -0.226846
C5    C     C_R   0.522972 0.871990 0.497250 -0.135580
C6    C     C_R   0.559875 0.938720 0.612410 0.070658
C7    C     C_3   0.518938 0.928361 0.757226 -0.031017
C8    C     C_3   0.502554 0.070520 0.754260 -0.008854
C9    C     C_R   0.402340 0.448787 0.070343 0.161877
C10   C     C_R   0.602727 0.537965 0.071239 0.232576
C11   C     C_R   0.602843 0.534949 0.927758 -0.202291
C12   C     C_R   0.262756 0.494966 0.499795 0.918887
C13   C     C_R   0.402147 0.449551 0.928233 0.229620
C14   C     C_3   0.270473 0.490764 0.921638 -0.499099
C15   C     C_3   0.270190 0.489674 0.074700 -0.525295
C16   C     C_R   0.504714 0.739997 0.500019 0.875841
C17   C     C_R   0.737309 0.505547 0.500088 0.836372
C18   C     C_2   0.932722 0.487041 0.391770 -0.196129
C19   C     C_2   0.868489 0.529462 0.498156 0.070716
C20   C     C_2   0.066132 0.496482 0.387472 -0.180645
C21   C     C_2   0.131421 0.476921 0.499496 -0.291025
C22   C     C_R   0.552564 0.066334 0.612781 0.077043
H1    H     H_    0.887084 0.439911 0.307347 0.150583
H2    H     H_    0.685214 0.564499 0.873740 0.148566
H3    H     H_    0.261162 0.585937 0.878370 0.214287
H4    H     H_    0.208142 0.418181 0.876130 0.195924
H5    H     H_    0.260028 0.584221 0.120143 0.210192
H6    H     H_    0.208009 0.415673 0.116496 0.198783
H7    H     H_    0.109376 0.520362 0.292416 0.165824
H8    H     H_    0.087518 0.447397 0.593060 0.163246
H9    H     H_    0.403027 0.098125 0.757715 0.098976
N1    N     N_R   0.499170 0.499140 0.142800 -0.119964
N2    N     N_R   0.499170 0.499180 0.857150 -0.109958
O1    O     O_R   0.500020 0.316790 0.614690 -0.602076
O2    O     O_R   0.500000 0.316760 0.385350 -0.622745
O3    O     O_R   0.319080 0.500020 0.614640 -0.621395
O4    O     O_R   0.319070 0.499980 0.385300 -0.616117
O5    O     O_R   0.500000 0.683240 0.614650 -0.618858
O6    O     O_R   0.499980 0.683210 0.385310 -0.616791
O7    O     O_R   0.680930 0.500020 0.614700 -0.643882
O8    O     O_R   0.680920 0.499980 0.385360 -0.592405
Zn1   Zn    Zn3+2 0.500010 0.500020 0.653130 0.936041
Zn2   Zn    Zn3+2 0.499990 0.499980 0.346870 0.947520
N3    N     N_2   0.577933 0.141609 0.851733 -0.264206
H10   H     H_    0.561789 0.118995 0.951307 0.219432
C23   C     C_3   0.705167 0.178719 0.821191 -0.681608
H11   H     H_    0.741164 0.241181 0.902596 0.204801
H12   H     H_    0.709595 0.231518 0.725172 0.245094
H13   H     H_    0.765688 0.095906 0.814999 0.237143
N4    N     N_2   0.710708 0.583329 0.139312 -0.269949
H14   H     H_    0.793573 0.555964 0.096436 0.188451
C24   C     C_3   0.710186 0.714581 0.175898 -0.693346
H15   H     H_    0.780823 0.766834 0.116257 0.195225
H16   H     H_    0.734836 0.725214 0.284178 0.249590
H17   H     H_    0.617800 0.757068 0.158257 0.221631
N5    N     N_2   0.923448 0.607311 0.600587 -0.303163
H18   H     H_    0.879569 0.602605 0.692917 0.222818
C25   C     C_3   0.947517 0.734812 0.558827 -0.795968
H19   H     H_    0.012953 0.737456 0.472255 0.262290
H20   H     H_    0.990591 0.788269 0.643605 0.231511
H21   H     H_    0.859060 0.780195 0.529139 0.224171
H22   H     H_    0.482046 0.110968 0.280802 0.167031
H23   H     H_    0.483242 0.886501 0.281870 0.162160
H24   H     H_    0.430125 0.874957 0.770072 0.111451
N6    N     N_2   0.616421 0.889671 0.850643 -0.269952
H25   H     H_    0.582202 0.852751 0.939195 0.219514
C26   C     C_3   0.724678 0.826282 0.798222 -0.764261
H26   H     H_    0.786903 0.799266 0.882305 0.215680
H27   H     H_    0.778371 0.889429 0.730891 0.237154
H28   H     H_    0.696291 0.741385 0.741353 0.262506

loop_
_geom_bond_atom_site_label_1
_geom_bond_atom_site_label_2
_ccdc_geom_bond_type
C19   N5    S    
O4    Zn2   S    
N4    C24   S    
C13   N2    A    
C6    C7    S    
C7    N6    S    
O2    Zn2   S    
C21   H8    S    
C15   H5    S    
C18   H1    S    
O1    Zn1   S    
C24   H17   S    
C26   H28   S    
C2    C22   A    
C25   H21   S    
O7    Zn1   S    
N4    H14   S    
C9    C15   S    
C24   H16   S    
C7    C8    S    
C13   C14   S    
C24   H15   S    
O8    Zn2   S    
C4    H23   S    
C15   H6    S    
C8    C22   S    
N2    Zn1   S    
C17   C19   S    
N1    Zn2   S    
N5    C25   S    
C1    O1    A    
C2    C3    A    
C18   C20   S    
C20   H7    S    
N6    H25   S    
C14   H3    S    
C5    C6    A    
C23   H13   S    
C7    H24   S    
C17   O8    A    
C12   O3    A    
C10   C11   A    
C16   O6    A    
C25   H20   S    
C26   H26   S    
C10   N4    S    
C23   H12   S    
C10   N1    A    
C11   H2    S    
C11   N2    A    
C20   C21   D    
C1    O2    A    
C1    C2    S    
C3    H22   S    
C12   O4    A    
N5    H18   S    
C9    C13   A    
C14   C15   S    
C18   C19   D    
C5    C16   S    
O6    Zn2   S    
N3    C23   S    
C9    N1    A    
C26   H27   S    
C25   H19   S    
C23   H11   S    
C8    H9    S    
O3    Zn1   S    
C12   C21   S    
C17   O7    A    
O5    Zn1   S    
C14   H4    S    
N3    H10   S    
C8    N3    S    
C16   O5    A    
C4    C5    A    
N6    C26   S    
C3    C4    A    
C6    C22   A    
