data_mof_unit_42876.cif
_audit_creation_date              2012-12-11T17:15:02-0500
_audit_creation_method            fapswitch 2.2
_symmetry_space_group_name_H-M    P1
_symmetry_Int_Tables_number       1
_space_group_crystal_system       triclinic
_cell_length_a                    7.222345
_cell_length_b                    12.165909
_cell_length_c                    21.313339
_cell_angle_alpha                 90.003898
_cell_angle_beta                  90.974574
_cell_angle_gamma                 90.024715
_cell_volume                      1872.45511493

loop_
_atom_site_label
_atom_site_type_symbol
_atom_type_description
_atom_site_fract_x
_atom_site_fract_y
_atom_site_fract_z
_atom_type_partial_charge
O1    O     O_R   0.354460 0.152320 0.595720 -0.536705
O2    O     O_R   0.645540 0.847680 0.404280 -0.536706
O3    O     O_R   0.145540 0.652320 0.404280 -0.536778
O4    O     O_R   0.854460 0.347680 0.595720 -0.536778
O5    O     O_R   0.683670 0.140090 0.727290 -0.536194
O6    O     O_R   0.316330 0.859910 0.272710 -0.536192
O7    O     O_R   0.816330 0.640090 0.272710 -0.535491
O8    O     O_R   0.183670 0.359910 0.727290 -0.535491
O9    O     O_R   0.854010 0.349340 0.727750 -0.543080
O10   O     O_R   0.145990 0.650660 0.272250 -0.543080
O11   O     O_R   0.645990 0.849340 0.272250 -0.542840
O12   O     O_R   0.354010 0.150660 0.727750 -0.542840
C1    C     C_R   0.516997 0.112062 0.746803 0.762889
C2    C     C_R   0.483003 0.887938 0.253197 0.762888
C3    C     C_R   0.982916 0.612045 0.253186 0.762672
C4    C     C_R   0.017084 0.387955 0.746813 0.762672
O13   O     O_R   0.684170 0.139420 0.596190 -0.532362
O14   O     O_R   0.315830 0.860580 0.403810 -0.532361
O15   O     O_R   0.815830 0.639420 0.403810 -0.532065
O16   O     O_R   0.184170 0.360580 0.596190 -0.532065
C5    C     C_R   0.514788 0.113143 0.574448 0.741450
C6    C     C_R   0.485212 0.886857 0.425552 0.741449
C7    C     C_R   0.985182 0.613139 0.425553 0.741253
C8    C     C_R   0.014818 0.386861 0.574446 0.741253
O17   O     O_3   0.520730 0.319480 0.661730 -0.378821
O18   O     O_3   0.479270 0.680520 0.338270 -0.378821
O19   O     O_3   0.979270 0.819480 0.338270 -0.379060
O20   O     O_3   0.020730 0.180520 0.661730 -0.379060
V1    V     V_3+5 0.795560 0.238090 0.661730 1.512866
V2    V     V_3+5 0.204440 0.761910 0.338270 1.512870
V3    V     V_3+5 0.704440 0.738090 0.338270 1.514585
V4    V     V_3+5 0.295560 0.261910 0.661730 1.514586
C9    C     C_R   0.016104 0.466887 0.798288 -0.162418
C10   C     C_R   0.983895 0.533113 0.201712 -0.162418
C11   C     C_R   0.484532 0.966749 0.201697 -0.162179
C12   C     C_R   0.515467 0.033252 0.798303 -0.162176
C13   C     C_R   0.076597 0.648996 0.838477 -0.236262
C14   C     C_R   0.923396 0.351004 0.161523 -0.236262
C15   C     C_R   0.432509 0.149867 0.161793 -0.236609
C16   C     C_R   0.567467 0.850133 0.838206 -0.236612
C17   C     C_R   0.061419 0.576970 0.787937 0.634910
C18   C     C_R   0.938577 0.423030 0.212063 0.634910
C19   C     C_R   0.445040 0.077533 0.212254 0.634984
C20   C     C_R   0.554941 0.922467 0.787745 0.634985
C21   C     C_R   0.986616 0.428685 0.859045 -0.322108
C22   C     C_R   0.013384 0.571314 0.140955 -0.322109
C23   C     C_R   0.510754 0.928125 0.140845 -0.322071
C24   C     C_R   0.489255 0.071876 0.859156 -0.322076
C25   C     C_R   0.006555 0.499198 0.911467 0.090618
C26   C     C_R   0.993440 0.500801 0.088533 0.090617
C27   C     C_R   0.493763 0.999057 0.088529 0.091314
C28   C     C_R   0.506232 0.000944 0.911471 0.091317
C29   C     C_R   0.051470 0.611010 0.899926 0.030850
C30   C     C_R   0.948522 0.388991 0.100073 0.030849
C31   C     C_R   0.454817 0.111587 0.100255 0.030232
C32   C     C_R   0.545166 0.888414 0.899745 0.030233
C33   C     C_R   0.987148 0.462023 0.974678 0.073671
C34   C     C_R   0.012845 0.537977 0.025322 0.073671
C35   C     C_R   0.510880 0.961727 0.025261 0.074023
C36   C     C_R   0.489112 0.038273 0.974739 0.074022
C37   C     C_R   0.055965 0.648590 0.011056 -0.192029
C38   C     C_R   0.944025 0.351411 0.988944 -0.192030
C39   C     C_R   0.451959 0.149578 0.989179 -0.192648
C40   C     C_R   0.548023 0.850422 0.010821 -0.192649
C41   C     C_R   0.074298 0.683961 0.949684 -0.166949
C42   C     C_R   0.925692 0.316040 0.050316 -0.166949
C43   C     C_R   0.435530 0.185055 0.050608 -0.167945
C44   C     C_R   0.564447 0.814945 0.949393 -0.167948
H1    H     H_    0.108634 0.769415 0.941150 0.140531
H2    H     H_    0.891352 0.230586 0.058850 0.140531
H3    H     H_    0.405844 0.271072 0.059277 0.140062
H4    H     H_    0.594121 0.728927 0.940723 0.140062
H5    H     H_    0.045391 0.657367 0.136542 0.126351
H6    H     H_    0.954613 0.342632 0.863458 0.126351
H7    H     H_    0.461359 0.158401 0.863690 0.125813
H8    H     H_    0.538671 0.841602 0.136311 0.125813
H9    H     H_    0.111908 0.734190 0.829696 0.158871
H10   H     H_    0.888083 0.265811 0.170304 0.158871
H11   H     H_    0.401912 0.235644 0.170721 0.159287
H12   H     H_    0.598051 0.764355 0.829279 0.159288
H13   H     H_    0.077686 0.710912 0.046203 0.127070
H14   H     H_    0.922301 0.289089 0.953797 0.127070
H15   H     H_    0.433741 0.212413 0.954134 0.127199
H16   H     H_    0.566230 0.787587 0.045866 0.127199
C45   C     C_1   0.995743 0.533145 0.478083 -0.126118
C46   C     C_1   0.004257 0.466855 0.521917 -0.126117
C47   C     C_1   0.504218 0.033148 0.521918 -0.125976
C48   C     C_1   0.495782 0.966852 0.478082 -0.125977
F1    F     F_    0.907410 0.385775 0.270990 -0.667308
F2    F     F_    0.092586 0.614225 0.729010 -0.667307
F3    F     F_    0.582596 0.884755 0.728694 -0.667482
F4    F     F_    0.417373 0.115244 0.271305 -0.667481

loop_
_geom_bond_atom_site_label_1
_geom_bond_atom_site_label_2
_ccdc_geom_bond_type
C47   C48   T    
C5    C47   S    
O1    C5    A    
C9    C21   A    
O3    C7    A    
C10   C18   A    
C11   C23   A    
C25   C33   A    
C33   C38   A    
C45   C46   T    
C35   C40   A    
C26   C30   A    
C36   C39   A    
C40   C44   A    
O20   V1    S    
O9    C4    A    
C23   H8    S    
C14   C18   A    
O10   C3    A    
O4    C8    A    
O11   C2    A    
C25   C29   A    
C43   H3    S    
O13   V1    S    
C40   H16   S    
C28   C36   A    
C15   C31   A    
O16   C8    A    
C16   C32   A    
O2    C6    A    
C16   H12   S    
C10   C22   A    
C6    C48   S    
C11   C19   A    
C3    C10   S    
O5    C1    A    
O4    V1    S    
O9    V1    S    
C13   C29   A    
C34   C37   A    
O7    C3    A    
C17   F2    S    
C38   H14   S    
O15   V3    S    
C35   C36   A    
O8    C4    A    
O12   V4    S    
O19   V2    S    
C24   H7    S    
O5    V1    S    
C15   C19   A    
C39   C43   A    
O7    V3    S    
C38   C42   A    
O8    V4    S    
C1    C12   S    
C2    C11   S    
C23   C27   A    
C14   H10   S    
C32   C44   A    
C13   H9    S    
O1    V4    S    
O13   C5    A    
C39   H15   S    
O2    V3    S    
C26   C34   A    
O3    V2    S    
O15   C7    A    
C4    C9    S    
O6    C2    A    
O10   V2    S    
C14   C30   A    
C24   C28   A    
C44   H4    S    
C21   C25   A    
C20   F3    S    
O14   V2    S    
O6    V2    S    
C16   C20   A    
C12   C20   A    
C27   C35   A    
C29   C41   A    
O16   V4    S    
O14   C6    A    
C31   C43   A    
C30   C42   A    
C22   C26   A    
C19   F4    S    
C18   F1    S    
C9    C17   A    
C37   H13   S    
C33   C34   A    
C42   H2    S    
O17   V4    S    
C41   H1    S    
C12   C24   A    
C27   C31   A    
C13   C17   A    
O11   V3    S    
C37   C41   A    
O18   V3    S    
O12   C1    A    
C7    C45   S    
C21   H6    S    
C8    C46   S    
C22   H5    S    
C28   C32   A    
C15   H11   S    
