data_mof_unit_51476.cif
_audit_creation_date              2012-12-10T17:15:15-0500
_audit_creation_method            fapswitch 2.2
_symmetry_space_group_name_H-M    P1
_symmetry_Int_Tables_number       1
_space_group_crystal_system       triclinic
_cell_length_a                    10.327388
_cell_length_b                    10.406222
_cell_length_c                    12.813398
_cell_angle_alpha                 89.776197
_cell_angle_beta                  90.715514
_cell_angle_gamma                 93.195703
_cell_volume                      1374.78856148

loop_
_atom_site_label
_atom_site_type_symbol
_atom_type_description
_atom_site_fract_x
_atom_site_fract_y
_atom_site_fract_z
_atom_type_partial_charge
C1    C     C_R   0.449306 0.265359 0.489108 0.821659
C2    C     C_R   0.629981 0.396540 0.037901 -0.323443
C3    C     C_R   0.382470 0.613157 0.851292 0.533859
C4    C     C_R   0.635798 0.415901 0.145514 0.536573
C5    C     C_R   0.537304 0.444301 0.871131 -0.345587
C6    C     C_R   0.462473 0.564900 0.129219 -0.306790
C7    C     C_R   0.542807 0.463179 0.977041 0.123169
C8    C     C_R   0.462389 0.551943 0.022323 0.114191
C9    C     C_2   0.433036 0.126954 0.466975 0.241186
C10   C     C_2   0.575721 0.873654 0.496711 0.238613
C11   C     C_2   0.527248 0.073388 0.411561 0.372966
C12   C     C_R   0.551962 0.734417 0.505172 0.856298
C13   C     C_2   0.528601 0.930954 0.410535 0.371840
C14   C     C_3   0.850131 0.386188 0.179715 -0.301107
C15   C     C_3   0.215647 0.755436 0.826693 -0.394377
C16   C     C_3   0.421228 0.927183 0.248336 -0.370569
C17   C     C_3   0.736550 0.088336 0.343365 -0.165093
C18   C     C_3   0.624986 0.892074 0.674272 -0.333468
C19   C     C_3   0.294395 0.083190 0.604844 -0.300182
C20   C     C_3   0.890757 0.620960 0.413916 -0.867177
C21   C     C_3   0.102532 0.495741 0.634366 -0.860293
C22   C     C_3   0.806837 0.306390 0.670981 -0.123635
C23   C     C_2   0.069118 0.514773 0.521216 0.336909
C24   C     C_3   0.178012 0.667794 0.313307 -0.181114
C25   C     C_2   0.926885 0.518412 0.491827 0.385197
C26   C     C_R   0.474653 0.507024 0.698136 0.889438
C27   C     C_R   0.526400 0.496744 0.301675 0.941051
C28   C     C_R   0.544276 0.493370 0.190747 -0.163942
C29   C     C_R   0.460068 0.519486 0.808755 -0.148275
C30   C     C_R   0.383003 0.626508 0.960533 -0.320367
H1    H     H_    0.397229 0.629320 0.164936 0.174957
H2    H     H_    0.158501 0.797521 0.762498 0.193646
H3    H     H_    0.489833 0.999355 0.211488 0.200755
H4    H     H_    0.336086 0.973708 0.280656 0.191158
H5    H     H_    0.384535 0.860652 0.185999 0.169745
H6    H     H_    0.776427 0.049187 0.417160 0.178388
H7    H     H_    0.811328 0.158683 0.313213 0.211626
H8    H     H_    0.720769 0.011602 0.283734 0.134650
H9    H     H_    0.686445 0.808221 0.682430 0.186214
H10   H     H_    0.521758 0.864127 0.691392 0.195035
H11   H     H_    0.659105 0.964090 0.733519 0.179969
H12   H     H_    0.597074 0.373713 0.836382 0.153354
H13   H     H_    0.239509 0.171975 0.604635 0.180939
H14   H     H_    0.381125 0.094082 0.657340 0.144374
H15   H     H_    0.229891 0.004463 0.637220 0.198487
H16   H     H_    0.789088 0.628736 0.398124 0.277053
H17   H     H_    0.922829 0.598698 0.334665 0.246376
H18   H     H_    0.931185 0.716766 0.439863 0.204278
H19   H     H_    0.159504 0.581977 0.661992 0.277425
H20   H     H_    0.016283 0.489564 0.684878 0.213057
H21   H     H_    0.155836 0.406850 0.644815 0.255048
H22   H     H_    0.708681 0.265003 0.651720 0.199440
H23   H     H_    0.326788 0.697403 0.998144 0.131505
H24   H     H_    0.802724 0.390562 0.723899 0.126173
H25   H     H_    0.857367 0.231347 0.714665 0.128149
H26   H     H_    0.172937 0.662231 0.226926 0.130146
H27   H     H_    0.279165 0.694611 0.336687 0.243340
H28   H     H_    0.116955 0.746289 0.338058 0.131296
H29   H     H_    0.692835 0.329755 0.002123 0.143111
H30   H     H_    0.865800 0.491546 0.164964 0.148466
H31   H     H_    0.878700 0.330815 0.110576 0.148573
H32   H     H_    0.915539 0.361916 0.245349 0.213739
H33   H     H_    0.249623 0.836058 0.878553 0.171463
H34   H     H_    0.149641 0.684572 0.868101 0.167345
N1    N     N_2   0.162330 0.550370 0.457540 0.075442
N2    N     N_2   0.837670 0.449630 0.542460 0.070568
O1    O     O_R   0.567930 0.307680 0.508550 -0.568232
O2    O     O_3   0.322053 0.696576 0.782857 -0.617639
O3    O     O_3   0.483968 0.855486 0.325734 -0.660351
O4    O     O_3   0.621478 0.151996 0.360757 -0.591560
O5    O     O_3   0.638388 0.948748 0.574494 -0.652152
O6    O     O_3   0.327846 0.049624 0.502451 -0.630766
O7    O     O_3   0.877554 0.336955 0.580433 -0.551518
O8    O     O_3   0.131848 0.548563 0.355182 -0.553080
O9    O     O_R   0.432070 0.692320 0.491450 -0.588517
O10   O     O_R   0.351090 0.340020 0.481290 -0.596763
O11   O     O_R   0.648910 0.659980 0.518710 -0.650520
O12   O     O_R   0.590490 0.486480 0.665020 -0.651855
O13   O     O_R   0.409510 0.513520 0.334980 -0.596304
O14   O     O_R   0.373660 0.518820 0.637760 -0.597645
O15   O     O_R   0.626340 0.481180 0.362240 -0.571650
O16   O     O_3   0.721128 0.350805 0.207806 -0.568239
Zn1   Zn    Zn3+2 0.644780 0.478400 0.518200 0.987486
Zn2   Zn    Zn3+2 0.355220 0.521600 0.481800 1.006483

loop_
_geom_bond_atom_site_label_1
_geom_bond_atom_site_label_2
_ccdc_geom_bond_type
C5    H12   S    
O1    Zn1   S    
C2    C7    A    
C9    O6    S    
O14   Zn2   S    
O10   Zn2   S    
C21   H19   S    
C11   O4    S    
C7    C8    A    
C22   H24   S    
C26   O12   A    
C27   O13   A    
C16   H5    S    
O13   Zn2   S    
O9    Zn2   S    
C20   C25   S    
O11   Zn1   S    
C14   H32   S    
C3    C29   A    
C18   H10   S    
C4    C28   A    
N2    Zn1   S    
O12   Zn1   S    
C6    C28   A    
C3    O2    S    
C24   H27   S    
C15   H34   S    
C17   H6    S    
C16   H4    S    
C10   O5    S    
C6    H1    S    
C17   O4    S    
C19   O6    S    
C21   H20   S    
O15   Zn1   S    
C19   H13   S    
C5    C29   A    
C30   H23   S    
C25   N2    D    
C27   O15   A    
C1    C9    S    
C18   H11   S    
C5    C7    A    
C2    H29   S    
N1    Zn2   S    
C6    C8    A    
N2    O7    S    
C26   O14   A    
N1    O8    S    
C3    C30   A    
C2    C4    A    
C18   H9    S    
C16   H3    S    
C12   O11   A    
C17   H7    S    
C9    C11   D    
C20   H18   S    
C10   C12   S    
C21   C23   S    
C14   O16   S    
C21   H21   S    
C19   H14   S    
C22   H22   S    
C18   O5    S    
C14   H31   S    
C1    O10   A    
C16   O3    S    
C10   C13   D    
C15   H2    S    
C19   H15   S    
C22   H25   S    
C24   H26   S    
C14   H30   S    
C8    C30   A    
C23   N1    D    
C11   C13   S    
C24   O8    S    
C13   O3    S    
C15   O2    S    
C1    O1    A    
C17   H8    S    
C23   C25   S    
C20   H17   S    
C4    O16   S    
C26   C29   S    
C24   H28   S    
C12   O9    A    
C27   C28   S    
C15   H33   S    
C22   O7    S    
C20   H16   S    
