data_mof_unit_60679.cif
_audit_creation_date              2013-03-05T16:13:56-0500
_audit_creation_method            fapswitch 2.2
_symmetry_space_group_name_H-M    P1
_symmetry_Int_Tables_number       1
_space_group_crystal_system       monoclinic
_cell_length_a                    37.477695
_cell_length_b                    30.376759
_cell_length_c                    21.731257
_cell_angle_alpha                 90.0
_cell_angle_beta                  54.127677
_cell_angle_gamma                 90.0
_cell_volume                      20047.4105597

loop_
_atom_site_label
_atom_site_type_symbol
_atom_site_description
_atom_site_fract_x
_atom_site_fract_y
_atom_site_fract_z
_atom_type_partial_charge
O1    O     O_R   0.064270 0.537190 0.435730 -0.593571
O2    O     O_R   0.935730 0.537190 0.564270 -0.593572
O3    O     O_R   0.564270 0.037190 0.435730 -0.593571
O4    O     O_R   0.435730 0.037190 0.564270 -0.593572
O5    O     O_R   0.064260 0.462790 0.435740 -0.568429
O6    O     O_R   0.935740 0.462790 0.564260 -0.568429
O7    O     O_R   0.564260 0.962790 0.435740 -0.568429
O8    O     O_R   0.435740 0.962790 0.564260 -0.568429
C1    C     C_R   0.085156 0.499996 0.414249 0.854118
C2    C     C_R   0.914844 0.499996 0.585751 0.854118
C3    C     C_R   0.585156 0.999996 0.414249 0.854118
C4    C     C_R   0.414844 0.999996 0.585751 0.854118
O9    O     O_R   1.000000 0.537190 0.590180 -0.589250
O10   O     O_R   0.000000 0.537190 0.409820 -0.589249
O11   O     O_R   0.500000 0.037190 0.590180 -0.589250
O12   O     O_R   0.500000 0.037190 0.409820 -0.589249
O13   O     O_R   0.999990 0.462790 0.590190 -0.555966
O14   O     O_R   0.000010 0.462790 0.409810 -0.555965
O15   O     O_R   0.499990 0.962790 0.590190 -0.555966
O16   O     O_R   0.500010 0.962790 0.409810 -0.555965
C5    C     C_R   0.000006 0.499977 0.618775 0.857648
C6    C     C_R   0.999994 0.499977 0.381225 0.857648
C7    C     C_R   0.500006 0.999977 0.618775 0.857648
C8    C     C_R   0.499994 0.999977 0.381225 0.857648
Cu1   Cu    Cu3+1 1.000000 0.544040 0.500000 0.997100
Cu2   Cu    Cu3+1 0.500000 0.044040 0.500000 0.997101
Cu3   Cu    Cu3+1 1.000000 0.455940 0.500000 1.096174
Cu4   Cu    Cu3+1 0.500000 0.955940 0.500000 1.096174
H1    H     H_    0.825290 0.595575 0.791902 0.175748
H2    H     H_    0.174710 0.595575 0.208098 0.175749
H3    H     H_    0.325290 0.095575 0.791902 0.175749
H4    H     H_    0.674710 0.095575 0.208098 0.175749
C9    C     C_R   0.893646 0.603116 0.744990 -0.189705
C10   C     C_R   0.106354 0.603116 0.255010 -0.189706
C11   C     C_R   0.393646 0.103116 0.744990 -0.189706
C12   C     C_R   0.606354 0.103116 0.255010 -0.189707
H5    H     H_    0.895493 0.636068 0.724362 0.168492
H6    H     H_    0.104507 0.636068 0.275638 0.168492
H7    H     H_    0.395493 0.136068 0.724362 0.168492
H8    H     H_    0.604507 0.136068 0.275637 0.168492
C13   C     C_R   0.930907 0.583994 0.733900 -0.072114
C14   C     C_R   0.069093 0.583994 0.266100 -0.072114
C15   C     C_R   0.430907 0.083994 0.733900 -0.072115
C16   C     C_R   0.569093 0.083994 0.266100 -0.072115
H9    H     H_    0.961364 0.602478 0.705273 0.164494
H10   H     H_    0.038636 0.602478 0.294727 0.164494
H11   H     H_    0.461363 0.102478 0.705273 0.164494
H12   H     H_    0.538636 0.102478 0.294727 0.164494
C17   C     C_R   0.928687 0.541229 0.760071 0.031391
C18   C     C_R   0.071313 0.541229 0.239929 0.031390
C19   C     C_R   0.428687 0.041228 0.760071 0.031390
C20   C     C_R   0.571313 0.041228 0.239929 0.031389
C21   C     C_R   0.888857 0.517941 0.798039 -0.244705
C22   C     C_R   0.111143 0.517941 0.201960 -0.244706
C23   C     C_R   0.388857 0.017941 0.798039 -0.244705
C24   C     C_R   0.611143 0.017941 0.201960 -0.244704
H13   H     H_    0.887276 0.485113 0.818993 0.190252
H14   H     H_    0.112724 0.485114 0.181007 0.190252
H15   H     H_    0.387276 0.985113 0.818993 0.190252
H16   H     H_    0.612724 0.985113 0.181007 0.190252
C25   C     C_R   0.851024 0.537236 0.810679 0.380458
C26   C     C_R   0.148976 0.537236 0.189321 0.380458
C27   C     C_R   0.351024 0.037236 0.810679 0.380458
C28   C     C_R   0.648976 0.037236 0.189321 0.380458
C29   C     C_R   0.853837 0.580036 0.783493 -0.182641
C30   C     C_R   0.146163 0.580036 0.216507 -0.182640
C31   C     C_R   0.353837 0.080035 0.783493 -0.182642
C32   C     C_R   0.646163 0.080035 0.216507 -0.182642
C33   C     C_R   0.967557 0.519895 0.815269 -0.192151
C34   C     C_R   0.032443 0.519895 0.184731 -0.192150
C35   C     C_R   0.467557 0.019895 0.815269 -0.192152
C36   C     C_R   0.532443 0.019895 0.184731 -0.192151
H17   H     H_    0.941797 0.536801 0.866568 0.177246
H18   H     H_    0.058203 0.536801 0.133432 0.177246
H19   H     H_    0.441797 0.036801 0.866568 0.177245
H20   H     H_    0.558203 0.036801 0.133432 0.177245
C37   C     C_R   0.000559 0.497219 0.813439 -0.110519
C38   C     C_R   0.999441 0.497219 0.186561 -0.110519
C39   C     C_R   0.500559 0.997219 0.813439 -0.110518
C40   C     C_R   0.499441 0.997219 0.186561 -0.110518
C41   C     C_R   0.033363 0.473884 0.747654 -0.020505
C42   C     C_R   0.966637 0.473884 0.252346 -0.020505
C43   C     C_R   0.533363 0.973884 0.747654 -0.020505
C44   C     C_R   0.466637 0.973884 0.252346 -0.020506
C45   C     C_R   0.033824 0.475759 0.682527 0.323656
C46   C     C_R   0.966176 0.475759 0.317472 0.323657
C47   C     C_R   0.533824 0.975759 0.682527 0.323656
C48   C     C_R   0.466176 0.975759 0.317473 0.323657
C49   C     C_R   0.000844 0.499820 0.684777 -0.178376
C50   C     C_R   0.999155 0.499820 0.315222 -0.178377
C51   C     C_R   0.500845 0.999820 0.684777 -0.178376
C52   C     C_R   0.499155 0.999820 0.315222 -0.178377
C53   C     C_R   0.967161 0.521150 0.751842 -0.019120
C54   C     C_R   0.032839 0.521150 0.248158 -0.019120
C55   C     C_R   0.467161 0.021150 0.751842 -0.019120
C56   C     C_R   0.532839 0.021150 0.248158 -0.019120
C57   C     C_R   0.111361 0.457609 0.704441 0.380003
C58   C     C_R   0.888639 0.457609 0.295559 0.380002
C59   C     C_R   0.611361 0.957610 0.704441 0.380002
C60   C     C_R   0.388639 0.957610 0.295559 0.380002
C61   C     C_R   0.141086 0.429385 0.705173 0.384923
C62   C     C_R   0.858914 0.429385 0.294826 0.384923
C63   C     C_R   0.641086 0.929385 0.705173 0.384923
C64   C     C_R   0.358914 0.929385 0.294826 0.384923
C65   C     C_R   0.125344 0.390614 0.749081 -0.233951
C66   C     C_R   0.874656 0.390614 0.250919 -0.233950
C67   C     C_R   0.625344 0.890614 0.749081 -0.233950
C68   C     C_R   0.374655 0.890614 0.250919 -0.233950
H21   H     H_    0.147603 0.368767 0.750717 0.171727
H22   H     H_    0.852396 0.368767 0.249283 0.171727
H23   H     H_    0.647604 0.868767 0.750717 0.171727
H24   H     H_    0.352396 0.868767 0.249283 0.171727
C69   C     C_R   0.080790 0.379880 0.791578 -0.093807
C70   C     C_R   0.919210 0.379880 0.208421 -0.093808
C71   C     C_R   0.580790 0.879880 0.791578 -0.093808
C72   C     C_R   0.419210 0.879880 0.208421 -0.093808
H25   H     H_    0.069018 0.350080 0.825260 0.199426
H26   H     H_    0.930982 0.350080 0.174740 0.199426
H27   H     H_    0.569018 0.850080 0.825260 0.199426
H28   H     H_    0.430982 0.850080 0.174740 0.199426
C73   C     C_R   0.051361 0.407418 0.790803 -0.174015
C74   C     C_R   0.948639 0.407418 0.209197 -0.174015
C75   C     C_R   0.551361 0.907418 0.790803 -0.174015
C76   C     C_R   0.448639 0.907418 0.209197 -0.174015
H29   H     H_    0.016887 0.398396 0.823741 0.149902
H30   H     H_    0.983113 0.398396 0.176259 0.149902
H31   H     H_    0.516887 0.898395 0.823741 0.149902
H32   H     H_    0.483113 0.898395 0.176259 0.149902
C77   C     C_R   0.066110 0.446253 0.747628 -0.027706
C78   C     C_R   0.933890 0.446253 0.252372 -0.027707
C79   C     C_R   0.566110 0.946253 0.747628 -0.027707
C80   C     C_R   0.433890 0.946253 0.252372 -0.027707
C81   C     C_R   0.202448 0.460326 0.279816 0.477790
C82   C     C_R   0.797552 0.460326 0.720183 0.477791
C83   C     C_R   0.702448 0.960326 0.279816 0.477790
C84   C     C_R   0.297552 0.960326 0.720183 0.477790
C85   C     C_R   0.156529 0.460941 0.328316 -0.108008
C86   C     C_R   0.843471 0.460941 0.671684 -0.108009
C87   C     C_R   0.656529 0.960942 0.328316 -0.108008
C88   C     C_R   0.343471 0.960942 0.671684 -0.108009
H33   H     H_    0.138775 0.430891 0.335989 0.187582
H34   H     H_    0.861225 0.430891 0.664011 0.187582
H35   H     H_    0.638775 0.930891 0.335989 0.187582
H36   H     H_    0.361225 0.930891 0.664011 0.187582
C89   C     C_R   0.133583 0.499901 0.364572 -0.110597
C90   C     C_R   0.866417 0.499901 0.635428 -0.110597
C91   C     C_R   0.633583 0.999901 0.364572 -0.110597
C92   C     C_R   0.366417 0.999901 0.635428 -0.110597
C93   C     C_R   0.157185 0.538695 0.352231 -0.161507
C94   C     C_R   0.842815 0.538695 0.647769 -0.161507
C95   C     C_R   0.657185 0.038695 0.352231 -0.161506
C96   C     C_R   0.342815 0.038695 0.647769 -0.161506
H37   H     H_    0.140244 0.569235 0.379365 0.177677
H38   H     H_    0.859756 0.569235 0.620635 0.177678
H39   H     H_    0.640244 0.069235 0.379365 0.177678
H40   H     H_    0.359756 0.069235 0.620635 0.177678
C97   C     C_R   0.203033 0.538367 0.305480 -0.166123
C98   C     C_R   0.796967 0.538367 0.694519 -0.166124
C99   C     C_R   0.703033 0.038367 0.305480 -0.166124
C100  C     C_R   0.296967 0.038367 0.694519 -0.166124
H41   H     H_    0.220597 0.568509 0.298110 0.164127
H42   H     H_    0.779403 0.568509 0.701890 0.164127
H43   H     H_    0.720597 0.068509 0.298110 0.164127
H44   H     H_    0.279403 0.068509 0.701890 0.164128
C101  C     C_R   0.226136 0.499383 0.269717 0.032304
C102  C     C_R   0.773864 0.499383 0.730283 0.032304
C103  C     C_R   0.726136 0.999383 0.269717 0.032303
C104  C     C_R   0.273864 0.999383 0.730283 0.032304
C105  C     C_R   0.298808 0.529622 0.164137 -0.091746
C106  C     C_R   0.701192 0.529622 0.835863 -0.091746
C107  C     C_R   0.798808 0.029622 0.164137 -0.091746
C108  C     C_R   0.201192 0.029622 0.835863 -0.091746
H45   H     H_    0.282337 0.553369 0.151692 0.193660
H46   H     H_    0.717663 0.553369 0.848308 0.193660
H47   H     H_    0.782337 0.053369 0.151691 0.193659
H48   H     H_    0.217663 0.053369 0.848308 0.193659
C109  C     C_R   0.344594 0.528501 0.118765 -0.206261
C110  C     C_R   0.655406 0.528501 0.881234 -0.206262
C111  C     C_R   0.844594 0.028501 0.118765 -0.206261
C112  C     C_R   0.155406 0.028501 0.881234 -0.206262
H49   H     H_    0.362752 0.551662 0.072221 0.172515
H50   H     H_    0.637248 0.551662 0.927779 0.172515
H51   H     H_    0.862752 0.051662 0.072221 0.172515
H52   H     H_    0.137248 0.051662 0.927779 0.172515
C113  C     C_R   0.366873 0.498279 0.133770 -0.133435
C114  C     C_R   0.633127 0.498279 0.866230 -0.133436
C115  C     C_R   0.866873 0.998279 0.133770 -0.133435
C116  C     C_R   0.133127 0.998279 0.866230 -0.133435
C117  C     C_R   0.342519 0.468538 0.195573 0.421590
C118  C     C_R   0.657481 0.468538 0.804427 0.421589
C119  C     C_R   0.842519 0.968538 0.195573 0.421589
C120  C     C_R   0.157481 0.968538 0.804427 0.421591
C121  C     C_R   0.296582 0.470317 0.240835 -0.120010
C122  C     C_R   0.703418 0.470317 0.759165 -0.120010
C123  C     C_R   0.796582 0.970317 0.240835 -0.120009
C124  C     C_R   0.203418 0.970317 0.759165 -0.120010
H53   H     H_    0.277891 0.447578 0.287919 0.195376
H54   H     H_    0.722109 0.447578 0.712081 0.195376
H55   H     H_    0.777891 0.947578 0.287919 0.195376
H56   H     H_    0.222109 0.947577 0.712081 0.195376
C125  C     C_R   0.274566 0.499952 0.224391 -0.027606
C126  C     C_R   0.725434 0.499952 0.775609 -0.027606
C127  C     C_R   0.774566 0.999952 0.224391 -0.027606
C128  C     C_R   0.225434 0.999952 0.775609 -0.027606
O17   O     O_R   0.962800 0.435700 0.037190 -0.565967
O18   O     O_R   0.037200 0.435700 0.962810 -0.565968
O19   O     O_R   0.462800 0.935700 0.037190 -0.565967
O20   O     O_R   0.537200 0.935700 0.962810 -0.565968
C129  C     C_R   0.000000 0.414836 1.000000 0.756515
C130  C     C_R   0.500000 0.914836 1.000000 0.756515
O21   O     O_R   0.962790 0.499970 0.947030 -0.591820
O22   O     O_R   0.037210 0.499970 0.052970 -0.591820
O23   O     O_R   0.462790 0.999970 0.947030 -0.591821
O24   O     O_R   0.537210 0.999970 0.052970 -0.591821
O25   O     O_R   0.037190 0.499990 0.872630 -0.562496
O26   O     O_R   0.962810 0.499990 0.127370 -0.562495
O27   O     O_R   0.537190 0.999990 0.872630 -0.562496
O28   O     O_R   0.462810 0.999990 0.127370 -0.562495
C131  C     C_R   0.000166 0.498787 0.880898 0.808725
C132  C     C_R   0.999834 0.498787 0.119102 0.808723
C133  C     C_R   0.500166 0.998787 0.880898 0.808725
C134  C     C_R   0.499834 0.998787 0.119102 0.808722
Cu5   Cu    Cu3+1 0.955940 0.499960 0.044050 1.027024
Cu6   Cu    Cu3+1 0.044060 0.499960 0.955950 1.027024
Cu7   Cu    Cu3+1 0.455940 0.999960 0.044050 1.027024
Cu8   Cu    Cu3+1 0.544060 0.999960 0.955950 1.027024
O29   O     O_R   0.962790 0.564230 0.037210 -0.578118
O30   O     O_R   0.037210 0.564230 0.962790 -0.578118
O31   O     O_R   0.462790 0.064230 0.037210 -0.578117
O32   O     O_R   0.537210 0.064230 0.962790 -0.578117
C135  C     C_R   1.000000 0.585099 0.000000 0.805830
C136  C     C_R   0.500000 0.085099 0.000000 0.805829
O33   O     O_R   0.499980 0.435740 0.052200 -0.582668
O34   O     O_R   0.500020 0.435740 0.947800 -0.582667
O35   O     O_R   0.999980 0.935740 0.052200 -0.582667
O36   O     O_R   0.000020 0.935740 0.947800 -0.582667
C137  C     C_R   0.500000 0.414893 1.000000 0.807106
C138  C     C_R   0.000000 0.914893 1.000000 0.807106
O37   O     O_R   0.435720 0.500010 0.116470 -0.566880
O38   O     O_R   0.564280 0.500010 0.883530 -0.566880
O39   O     O_R   0.935720 0.000010 0.116470 -0.566880
O40   O     O_R   0.064280 0.000010 0.883530 -0.566880
O41   O     O_R   0.435720 0.500010 0.012080 -0.569720
O42   O     O_R   0.564280 0.500010 0.987920 -0.569719
O43   O     O_R   0.935720 0.000010 0.012080 -0.569720
O44   O     O_R   0.064280 0.000010 0.987920 -0.569720
C139  C     C_R   0.415062 0.499209 0.085167 0.765187
C140  C     C_R   0.584938 0.499209 0.914833 0.765187
C141  C     C_R   0.915061 0.999209 0.085167 0.765187
C142  C     C_R   0.084938 0.999209 0.914833 0.765186
Cu9   Cu    Cu3+1 0.499990 0.500000 0.061810 1.032452
Cu10  Cu    Cu3+1 0.500010 0.500000 0.938190 1.032452
Cu11  Cu    Cu3+1 0.999990 0.000000 0.061810 1.032451
Cu12  Cu    Cu3+1 0.000010 0.000000 0.938190 1.032452
O45   O     O_R   0.500000 0.564270 0.052190 -0.575660
O46   O     O_R   0.500000 0.564270 0.947810 -0.575659
O47   O     O_R   1.000000 0.064270 0.052190 -0.575660
O48   O     O_R   1.000000 0.064270 0.947810 -0.575659
C143  C     C_R   0.500000 0.584985 1.000000 0.828330
C144  C     C_R   0.000000 0.084985 1.000000 0.828330
C145  C     C_R   0.032630 0.296726 0.998921 -0.057433
C146  C     C_R   0.967370 0.296726 0.001079 -0.057433
C147  C     C_R   0.532630 0.796726 0.998921 -0.057432
C148  C     C_R   0.467370 0.796726 0.001079 -0.057433
H57   H     H_    0.057528 0.278720 0.999127 0.178990
H58   H     H_    0.942472 0.278720 0.000873 0.178990
H59   H     H_    0.557527 0.778720 0.999128 0.178990
H60   H     H_    0.442472 0.778720 0.000872 0.178990
C149  C     C_R   0.031979 0.342563 0.002261 0.350365
C150  C     C_R   0.968021 0.342563 0.997739 0.350365
C151  C     C_R   0.531979 0.842563 0.002261 0.350364
C152  C     C_R   0.468021 0.842563 0.997739 0.350364
C153  C     C_R   0.000000 0.366293 1.000000 -0.287070
C154  C     C_R   0.500000 0.866293 0.000000 -0.287070
C155  C     C_R   0.000000 0.273857 1.000000 0.015933
C156  C     C_R   0.500000 0.773856 0.000000 0.015932
C157  C     C_R   0.475435 0.702260 0.069813 0.327601
C158  C     C_R   0.524565 0.702260 0.930186 0.327601
C159  C     C_R   0.975435 0.202260 0.069813 0.327601
C160  C     C_R   0.024565 0.202260 0.930186 0.327601
C161  C     C_R   0.476028 0.656183 0.068663 -0.229623
C162  C     C_R   0.523972 0.656183 0.931337 -0.229623
C163  C     C_R   0.976029 0.156183 0.068663 -0.229623
C164  C     C_R   0.023971 0.156183 0.931337 -0.229622
H61   H     H_    0.457490 0.638091 0.121689 0.200272
H62   H     H_    0.542510 0.638091 0.878311 0.200272
H63   H     H_    0.957490 0.138091 0.121689 0.200272
H64   H     H_    0.042510 0.138091 0.878311 0.200273
C165  C     C_R   0.500000 0.633180 0.000000 -0.153278
C166  C     C_R   0.000000 0.133180 1.000000 -0.153278
C167  C     C_R   0.500000 0.725560 0.000000 -0.135238
C168  C     C_R   0.000000 0.225560 1.000000 -0.135238
C169  C     C_R   0.960685 0.702655 0.029909 -0.048275
C170  C     C_R   0.039315 0.702655 0.970091 -0.048275
C171  C     C_R   0.460686 0.202655 0.029901 -0.048275
C172  C     C_R   0.539314 0.202655 0.970099 -0.048275
H65   H     H_    0.930152 0.720278 0.053176 0.148733
H66   H     H_    0.069848 0.720278 0.946824 0.148733
H67   H     H_    0.430154 0.220278 0.053161 0.148731
H68   H     H_    0.569846 0.220278 0.946839 0.148731
C173  C     C_R   0.960630 0.656799 0.030158 -0.151755
C174  C     C_R   0.039370 0.656799 0.969841 -0.151756
C175  C     C_R   0.460631 0.156799 0.030150 -0.151755
C176  C     C_R   0.539369 0.156799 0.969850 -0.151755
H69   H     H_    0.929855 0.639659 0.053558 0.168370
H70   H     H_    0.070145 0.639659 0.946442 0.168370
H71   H     H_    0.429856 0.139659 0.053543 0.168366
H72   H     H_    0.570144 0.139659 0.946457 0.168366
C177  C     C_R   1.000000 0.633480 0.000000 -0.047505
C178  C     C_R   0.500000 0.133480 0.000000 -0.047501
C179  C     C_R   0.000000 0.725647 1.000000 0.190790
C180  C     C_R   0.500000 0.225647 0.000000 0.190792
C181  C     C_R   0.506468 0.297215 0.049238 0.316895
C182  C     C_R   0.493532 0.297215 0.950762 0.316895
C183  C     C_R   0.006475 0.797215 0.049229 0.316897
C184  C     C_R   0.993525 0.797215 0.950771 0.316897
C185  C     C_R   0.506783 0.343257 0.048000 -0.209949
C186  C     C_R   0.493217 0.343257 0.951999 -0.209949
C187  C     C_R   0.006789 0.843257 0.047992 -0.209949
C188  C     C_R   0.993210 0.843257 0.952008 -0.209949
H73   H     H_    0.511742 0.361019 0.085646 0.208808
H74   H     H_    0.488258 0.361019 0.914354 0.208808
H75   H     H_    0.011754 0.861019 0.085631 0.208806
H76   H     H_    0.988246 0.861019 0.914369 0.208806
C189  C     C_R   0.500000 0.366455 1.000000 -0.159040
C190  C     C_R   0.000000 0.866455 1.000000 -0.159038
C191  C     C_R   0.500000 0.273951 1.000000 -0.173663
C192  C     C_R   0.000000 0.773951 1.000000 -0.173662
O49   O     O_3   0.222440 0.421320 0.242741 -0.687758
H77   H     H_    0.252846 0.427380 0.198067 0.346723
O50   O     O_3   0.777560 0.421320 0.757259 -0.687759
H78   H     H_    0.747154 0.427380 0.801933 0.346723
O51   O     O_3   0.722440 0.921320 0.242741 -0.687758
H79   H     H_    0.752846 0.927380 0.198067 0.346724
O52   O     O_3   0.277560 0.921320 0.757259 -0.687758
H80   H     H_    0.247154 0.927380 0.801933 0.346724
O53   O     O_3   0.361730 0.436598 0.212571 -0.689636
H81   H     H_    0.392460 0.431711 0.168130 0.328547
O54   O     O_3   0.638270 0.436598 0.787428 -0.689636
H82   H     H_    0.607540 0.431711 0.831869 0.328547
O55   O     O_3   0.861730 0.936598 0.212571 -0.689636
H83   H     H_    0.892460 0.931711 0.168130 0.328548
O56   O     O_3   0.138270 0.936598 0.787428 -0.689636
H84   H     H_    0.107540 0.931711 0.831870 0.328547
O57   O     O_3   0.062503 0.362510 0.009286 -0.687019
H85   H     H_    0.049700 0.390064 0.038621 0.329303
O58   O     O_3   0.937497 0.362510 0.990714 -0.687020
H86   H     H_    0.950300 0.390064 0.961379 0.329303
O59   O     O_3   0.562503 0.862510 0.009286 -0.687019
H87   H     H_    0.549700 0.890064 0.038621 0.329303
O60   O     O_3   0.437497 0.862510 0.990714 -0.687019
H88   H     H_    0.450300 0.890064 0.961379 0.329303
N1    N     N_R   0.449438 0.724512 0.142090 0.137017
O61   O     O_R   0.462959 0.761026 0.153344 -0.357351
O62   O     O_R   0.414243 0.705809 0.199670 -0.322321
N2    N     N_R   0.550562 0.724512 0.857910 0.137017
O63   O     O_R   0.537040 0.761026 0.846656 -0.357351
O64   O     O_R   0.585757 0.705809 0.800330 -0.322321
N3    N     N_R   0.949439 0.224512 0.142090 0.137017
O65   O     O_R   0.962960 0.261026 0.153343 -0.357351
O66   O     O_R   0.914244 0.205809 0.199670 -0.322321
N4    N     N_R   0.050561 0.224512 0.857910 0.137017
O67   O     O_R   0.037040 0.261026 0.846657 -0.357351
O68   O     O_R   0.085756 0.205809 0.800330 -0.322321
N5    N     N_R   0.512162 0.274816 0.101397 0.131879
O69   O     O_R   0.489737 0.239446 0.136674 -0.329237
O70   O     O_R   0.535868 0.292612 0.120690 -0.323390
N6    N     N_R   0.487838 0.274816 0.898603 0.131879
O71   O     O_R   0.510263 0.239446 0.863326 -0.329237
O72   O     O_R   0.464132 0.292612 0.879310 -0.323390
N7    N     N_R   0.012177 0.774817 0.101379 0.131878
O73   O     O_R   0.989752 0.739446 0.136661 -0.329239
O74   O     O_R   0.035888 0.792612 0.120660 -0.323391
N8    N     N_R   0.987823 0.774817 0.898621 0.131878
O75   O     O_R   0.010248 0.739446 0.863338 -0.329239
O76   O     O_R   0.964112 0.792612 0.879340 -0.323391
N9    N     N_R   0.809882 0.513821 0.852073 0.120998
O77   O     O_R   0.808501 0.472060 0.866720 -0.330649
O78   O     O_R   0.773183 0.534492 0.878402 -0.380622
N10   N     N_R   0.190118 0.513821 0.147926 0.120998
O79   O     O_R   0.191499 0.472060 0.133280 -0.330649
O80   O     O_R   0.226817 0.534492 0.121598 -0.380621
N11   N     N_R   0.309882 0.013821 0.852073 0.120998
O81   O     O_R   0.308501 0.972060 0.866720 -0.330649
O82   O     O_R   0.273183 0.034492 0.878402 -0.380622
N12   N     N_R   0.690118 0.013821 0.147926 0.120998
O83   O     O_R   0.691499 0.972060 0.133280 -0.330648
O84   O     O_R   0.726817 0.034492 0.121598 -0.380622
N13   N     N_R   0.067676 0.453369 0.614240 0.126063
O85   O     O_R   0.074315 0.411426 0.615348 -0.319831
O86   O     O_R   0.092306 0.475050 0.550879 -0.337373
N14   N     N_R   0.932324 0.453369 0.385760 0.126063
O87   O     O_R   0.925685 0.411426 0.384652 -0.319831
O88   O     O_R   0.907694 0.475050 0.449121 -0.337373
N15   N     N_R   0.567676 0.953369 0.614240 0.126062
O89   O     O_R   0.574315 0.911426 0.615348 -0.319831
O90   O     O_R   0.592306 0.975051 0.550879 -0.337373
N16   N     N_R   0.432324 0.953369 0.385760 0.126063
O91   O     O_R   0.425685 0.911426 0.384652 -0.319831
O92   O     O_R   0.407694 0.975051 0.449121 -0.337373
N17   N     N_R   0.127120 0.497731 0.660942 0.154469
O93   O     O_R   0.164982 0.498655 0.594677 -0.233321
O94   O     O_R   0.104455 0.533946 0.688301 -0.337964
N18   N     N_R   0.872880 0.497731 0.339058 0.154469
O95   O     O_R   0.835018 0.498655 0.405322 -0.233321
O96   O     O_R   0.895545 0.533946 0.311699 -0.337964
N19   N     N_R   0.627120 0.997732 0.660942 0.154470
O97   O     O_R   0.664982 0.998655 0.594677 -0.233321
O98   O     O_R   0.604455 0.033946 0.688301 -0.337962
N20   N     N_R   0.372880 0.997732 0.339058 0.154470
O99   O     O_R   0.335018 0.998655 0.405322 -0.233321
O100  O     O_R   0.395545 0.033946 0.311699 -0.337962
O101  O     O_3   0.185000 0.440900 0.664295 -0.650211
H89   H     H_    0.201158 0.417856 0.671107 0.337357
O102  O     O_3   0.815000 0.440900 0.335704 -0.650211
H90   H     H_    0.798842 0.417856 0.328893 0.337357
O103  O     O_3   0.685000 0.940900 0.664295 -0.650211
H91   H     H_    0.701158 0.917856 0.671107 0.337358
O104  O     O_3   0.315000 0.940900 0.335705 -0.650211
H92   H     H_    0.298842 0.917856 0.328893 0.337358

loop_
_geom_bond_atom_site_label_1
_geom_bond_atom_site_label_2
_geom_bond_distance
_ccdc_geom_bond_type
C182  C186  1.398782 A    
C59   C63   1.413218 A    
C81   C85   1.395384 A    
C23   H15   1.083335 S    
C43   C47   1.406393 A    
Cu5   Cu6   2.676206 S    
C10   C14   1.396818 A    
C84   C88   1.395384 A    
O53   H81   0.988750 S    
O51   H79   0.989159 S    
C176  C178  1.405380 A    
C158  C167  1.418909 A    
O33   Cu9   1.963174 S    
C106  C110  1.391037 A    
C25   N9    1.437705 S    
C28   N12   1.437705 S    
C170  H66   1.083321 S    
C33   C53   1.387620 A    
N13   O86   1.300830 A    
C182  C191  1.416702 A    
C123  C127  1.401565 A    
C143  C165  1.463984 S    
O46   C143  1.297030 A    
C60   C64   1.413218 A    
C121  C125  1.401565 A    
C102  C126  1.472978 S    
C93   H37   1.082915 S    
C157  C161  1.399859 A    
O24   C134  1.292110 A    
C90   C94   1.401811 A    
C96   H40   1.082915 S    
C62   O102  1.380837 S    
C34   H18   1.084995 S    
O19   C130  1.295400 A    
C184  N8    1.441084 S    
C159  C163  1.399859 A    
C124  C128  1.401567 A    
C94   C98   1.392422 A    
C179  C192  1.467307 S    
C183  C192  1.416695 A    
C113  C139  1.463725 S    
C164  C166  1.396704 A    
C82   O50   1.380943 S    
Cu6   O30   1.963367 S    
C13   C17   1.400890 A    
N6    O71   1.301303 A    
N1    O62   1.301534 A    
C27   C31   1.406223 A    
O27   C133  1.291037 A    
C187  H75   1.083101 S    
C71   C75   1.392212 A    
C47   C51   1.411872 A    
O39   C141  1.296162 A    
N14   O88   1.300830 A    
C46   C50   1.411873 A    
O15   C7    1.289321 A    
C171  H67   1.083324 S    
O22   C132  1.292110 A    
C58   C62   1.413215 A    
O17   Cu5   1.963094 S    
O13   C5    1.289321 A    
O7    Cu4   1.962636 S    
C45   N13   1.438022 S    
O34   C137  1.298784 A    
C114  C118  1.420022 A    
C147  H59   1.083873 S    
C43   C79   1.486573 S    
C38   C42   1.413446 A    
C41   C77   1.486574 S    
C187  C190  1.400012 A    
C173  H69   1.082879 S    
O21   Cu5   1.968950 S    
C12   C32   1.398050 A    
O9    C5    1.290021 A    
O32   C136  1.295731 A    
C110  H50   1.083728 S    
N13   O85   1.301090 A    
O8    Cu4   1.962636 S    
C12   C16   1.396821 A    
O34   Cu10  1.963173 S    
N11   O81   1.301512 A    
C188  H76   1.083101 S    
C106  H46   1.081768 S    
C149  O57   1.379773 S    
O3    Cu2   1.962936 S    
C18   C54   1.476792 S    
C44   C48   1.406393 A    
C60   C80   1.417956 A    
O44   Cu11  1.962025 S    
C174  H70   1.082879 S    
N5    O69   1.301305 A    
C17   C21   1.402135 A    
C99   C103  1.402638 A    
C19   C23   1.402135 A    
C100  C104  1.402638 A    
C106  C126  1.399305 A    
O3    C3    1.295737 A    
O52   H80   0.989159 S    
C36   C56   1.387620 A    
C25   C29   1.406219 A    
C35   C55   1.387620 A    
N3    O65   1.300808 A    
C13   H9    1.083049 S    
C63   C67   1.409177 A    
C17   C53   1.476792 S    
C15   H11   1.083049 S    
O30   C135  1.295731 A    
C112  H52   1.083728 S    
C19   C55   1.476794 S    
N10   O79   1.301511 A    
O29   C135  1.295731 A    
O59   H87   0.989303 S    
C33   C37   1.395799 A    
O104  H92   0.991791 S    
C15   C19   1.400890 A    
C10   C30   1.398051 A    
C114  C140  1.463725 S    
N17   O93   1.301228 A    
C117  O53   1.381240 S    
C73   H29   1.083022 S    
C148  C156  1.394632 A    
C28   C32   1.406223 A    
C65   C69   1.392893 A    
C24   H16   1.083335 S    
O31   C136  1.295731 A    
C155  C168  1.467085 S    
C81   O49   1.380943 S    
Cu11  Cu12  2.685981 S    
Cu5   O29   1.963367 S    
N4    O67   1.300810 A    
C52   C56   1.407576 A    
C76   C80   1.403449 A    
N8    O75   1.301306 A    
O33   C137  1.298780 A    
O20   Cu8   1.963094 S    
O5    Cu3   1.962636 S    
C21   C25   1.404639 A    
C159  N3    1.442105 S    
C170  C179  1.399614 A    
O102  H90   0.991792 S    
O18   Cu6   1.963094 S    
C23   C27   1.404634 A    
C24   C28   1.404634 A    
C11   C15   1.396817 A    
C145  C149  1.393736 A    
C83   O51   1.380943 S    
C16   C20   1.400890 A    
C147  C151  1.393736 A    
C169  H65   1.083321 S    
C107  C111  1.391037 A    
C58   N18   1.439973 S    
C8    C52   1.452956 S    
C105  C109  1.391037 A    
C123  H55   1.083873 S    
C163  C166  1.396703 A    
C158  N2    1.442104 S    
C26   C30   1.406223 A    
O13   Cu3   1.970736 S    
N18   O95   1.301228 A    
C97   C101  1.402638 A    
C37   C131  1.458163 S    
Cu8   O32   1.963367 S    
C44   C80   1.486573 S    
C72   H28   1.082297 S    
C110  C114  1.401892 A    
C115  C141  1.463725 S    
C91   C95   1.401811 A    
O5    C1    1.296197 A    
C157  N1    1.442105 S    
C120  O56   1.381239 S    
C75   H31   1.083022 S    
C171  C180  1.399619 A    
C11   C31   1.398052 A    
O8    C4    1.296198 A    
C64   O104  1.380836 S    
N2    O64   1.301535 A    
C70   H26   1.082297 S    
C181  C191  1.416696 A    
O15   Cu4   1.970736 S    
N20   O99   1.301228 A    
C14   C18   1.400890 A    
H1    C29   1.082477 S    
C2    C90   1.470757 S    
C188  C190  1.400017 A    
O35   C138  1.298779 A    
C69   H25   1.082298 S    
O39   Cu11  1.964591 S    
C169  C173  1.392952 A    
C171  C175  1.392952 A    
O22   Cu6   1.968953 S    
C185  C189  1.400014 A    
C172  C176  1.392952 A    
O43   C141  1.296712 A    
C152  O60   1.379775 S    
O14   C6    1.289321 A    
C67   H23   1.082769 S    
C92   C96   1.401811 A    
C181  C185  1.398782 A    
C157  C167  1.418908 A    
O21   C131  1.292108 A    
O27   Cu8   1.972589 S    
C71   H27   1.082297 S    
C95   H39   1.082915 S    
C116  C120  1.420022 A    
O47   C144  1.297026 A    
O23   C133  1.292108 A    
O10   C6    1.290023 A    
C146  H58   1.083873 S    
C36   C40   1.395799 A    
C122  H54   1.083873 S    
C86   C90   1.402440 A    
C109  H49   1.083730 S    
C174  C177  1.405380 A    
C48   N16   1.438021 S    
C130  C154  1.474564 S    
N16   O92   1.300831 A    
N19   O98   1.301260 A    
C49   C53   1.407576 A    
C119  C123  1.396362 A    
N9    O78   1.300434 A    
O23   Cu7   1.968950 S    
C40   C134  1.458163 S    
Cu11  O47   1.963452 S    
C176  H72   1.082881 S    
C69   C73   1.392217 A    
C183  N7    1.441084 S    
C159  C168  1.418908 A    
C105  H45   1.081766 S    
O36   Cu12  1.963173 S    
C59   N19   1.439973 S    
C41   C45   1.406393 A    
C108  H48   1.081766 S    
C151  C154  1.423886 A    
C136  C178  1.469664 S    
O101  H89   0.991792 S    
O42   Cu9   1.962025 S    
C40   C44   1.413447 A    
O25   Cu6   1.972589 S    
N6    O72   1.301491 A    
N1    O61   1.300808 A    
Cu9   Cu10  2.685981 S    
C5    C49   1.452956 S    
C146  C155  1.394630 A    
C18   C22   1.402135 A    
C182  N6    1.441084 S    
C120  C124  1.396362 A    
C85   C89   1.402443 A    
C34   C38   1.395797 A    
C34   C54   1.387620 A    
C22   H14   1.083331 S    
C111  C115  1.401892 A    
C184  C192  1.416699 A    
N7    O73   1.301306 A    
C122  C126  1.401565 A    
C109  C113  1.401892 A    
O37   C139  1.296162 A    
C14   H10   1.083049 S    
C108  C128  1.399305 A    
C101  C125  1.472978 S    
C104  C128  1.472978 S    
C65   H21   1.082768 S    
C112  C116  1.401894 A    
C38   C132  1.458163 S    
C156  C167  1.467085 S    
C137  C189  1.471380 S    
O60   H88   0.989303 S    
C82   C102  1.419705 A    
C33   H17   1.084993 S    
C103  C127  1.472978 S    
C57   C77   1.417956 A    
O4    C4    1.295735 A    
C36   H20   1.084994 S    
C76   H32   1.083022 S    
C108  C112  1.391037 A    
C148  C152  1.393736 A    
C161  H61   1.083662 S    
C150  C153  1.423891 A    
C35   C39   1.395799 A    
C50   C54   1.407576 A    
C144  C166  1.463984 S    
O12   Cu2   1.970741 S    
C186  H74   1.083105 S    
C163  H63   1.083662 S    
O40   C142  1.296161 A    
O26   C132  1.291042 A    
C164  H64   1.083662 S    
O1    C1    1.295737 A    
O35   Cu11  1.963174 S    
C86   H34   1.083401 S    
O58   H86   0.989301 S    
C45   C49   1.411873 A    
C22   C26   1.404635 A    
C42   C46   1.406393 A    
Cu7   O31   1.963367 S    
C68   H24   1.082769 S    
C84   O52   1.380943 S    
C11   H7    1.082277 S    
O50   H78   0.989159 S    
C145  H57   1.083870 S    
O25   C131  1.291037 A    
C146  C150  1.393736 A    
Cu9   O45   1.963452 S    
O54   H82   0.988747 S    
C37   C41   1.413446 A    
C58   C78   1.417956 A    
C6    C50   1.452956 S    
C113  C117  1.420022 A    
O38   Cu10  1.964590 S    
O41   C139  1.296712 A    
C97   H41   1.083404 S    
C64   C68   1.409177 A    
C98   C102  1.402638 A    
N10   O80   1.300438 A    
C46   N14   1.438022 S    
C85   H33   1.083401 S    
C21   H13   1.083334 S    
C72   C76   1.392212 A    
C75   C79   1.403449 A    
C118  O54   1.381240 S    
C88   H36   1.083401 S    
C73   C77   1.403446 A    
N14   O87   1.301090 A    
O6    C2    1.296198 A    
O4    Cu2   1.962942 S    
N15   O89   1.301091 A    
O45   C143  1.297026 A    
C59   C79   1.417956 A    
O16   Cu4   1.970740 S    
O43   Cu12  1.962031 S    
C83   C87   1.395384 A    
C183  C187  1.398785 A    
C149  C153  1.423887 A    
C184  C188  1.398785 A    
C9    C13   1.396818 A    
C68   C72   1.392896 A    
O44   C142  1.296713 A    
N12   O83   1.301514 A    
O26   Cu5   1.972584 S    
C39   C43   1.413447 A    
C3    C91   1.470757 S    
N4    O68   1.301535 A    
C1    C89   1.470757 S    
O36   C138  1.298782 A    
O2    Cu1   1.962942 S    
O10   Cu1   1.970741 S    
C107  C127  1.399305 A    
C27   N11   1.437705 S    
C150  O58   1.379773 S    
C170  C174  1.392952 A    
H3    C31   1.082475 S    
C105  C125  1.399305 A    
C169  C179  1.399617 A    
C185  H73   1.083105 S    
C172  H68   1.083324 S    
O38   C140  1.296161 A    
C93   C97   1.392422 A    
C89   C93   1.401809 A    
C16   H12   1.083049 S    
O56   H84   0.988750 S    
C96   C100  1.392422 A    
C7    C51   1.452956 S    
C138  C190  1.471380 S    
O49   H77   0.989159 S    
N12   O84   1.300434 A    
C124  H56   1.083871 S    
C88   C92   1.402440 A    
O103  H91   0.991791 S    
C9    C29   1.398052 A    
O55   H83   0.988747 S    
O7    C3    1.296197 A    
C87   C91   1.402440 A    
C160  C168  1.418909 A    
C66   C70   1.392896 A    
N18   O96   1.301263 A    
C81   C101  1.419705 A    
N5    O70   1.301491 A    
Cu12  O48   1.963452 S    
C100  H44   1.083405 S    
C95   C99   1.392422 A    
C60   N20   1.439973 S    
C135  C177  1.469667 S    
C57   N17   1.439973 S    
O19   Cu7   1.963094 S    
C48   C52   1.411872 A    
C172  C180  1.399616 A    
N19   O97   1.301228 A    
C62   C66   1.409178 A    
C42   C78   1.486574 S    
O28   Cu7   1.972584 S    
C115  C119  1.420022 A    
H4    C32   1.082475 S    
O11   C7    1.290021 A    
C173  C177  1.405383 A    
O12   C8    1.290023 A    
O1    Cu1   1.962936 S    
O9    Cu1   1.970741 S    
C87   H35   1.083401 S    
N17   O94   1.301263 A    
O28   C134  1.291042 A    
C111  H51   1.083728 S    
C61   C65   1.409178 A    
C181  N5    1.441085 S    
C63   O103  1.380836 S    
O37   Cu9   1.964591 S    
O16   C8    1.289321 A    
C12   H8    1.082276 S    
C47   N15   1.438021 S    
C98   H42   1.083404 S    
O11   Cu2   1.970741 S    
C175  H71   1.082881 S    
C84   C104  1.419705 A    
N7    O74   1.301485 A    
C107  H47   1.081768 S    
C186  C189  1.400018 A    
C74   H30   1.083022 S    
O48   C144  1.297030 A    
N11   O82   1.300434 A    
C117  C121  1.396362 A    
C162  C165  1.396705 A    
O6    Cu3   1.962636 S    
O17   C129  1.295400 A    
C148  H60   1.083873 S    
C180  C191  1.467307 S    
O42   C140  1.296713 A    
C26   N10   1.437705 S    
Cu7   Cu8   2.676206 S    
N3    O66   1.301536 A    
C119  O55   1.381240 S    
C116  C142  1.463725 S    
C67   C71   1.392896 A    
N9    O77   1.301511 A    
H2    C30   1.082476 S    
C175  C178  1.405384 A    
C152  C154  1.423891 A    
C162  H62   1.083662 S    
C129  C153  1.474564 S    
C158  C162  1.399859 A    
O40   Cu12  1.964590 S    
C99   H43   1.083404 S    
C160  N4    1.442105 S    
O2    C2    1.295735 A    
C9    H5    1.082276 S    
C66   H22   1.082769 S    
C83   C103  1.419705 A    
O41   Cu10  1.962031 S    
C10   H6    1.082275 S    
N20   O100  1.301260 A    
O14   Cu3   1.970740 S    
C160  C164  1.399859 A    
C82   C86   1.395384 A    
C145  C155  1.394629 A    
C39   C133  1.458163 S    
Cu1   Cu3   2.676192 S    
Cu2   Cu4   2.676192 S    
Cu10  O46   1.963452 S    
C4    C92   1.470757 S    
C61   O101  1.380833 S    
C35   H19   1.084994 S    
N15   O90   1.300831 A    
O18   C129  1.295397 A    
C121  H53   1.083871 S    
N2    O63   1.300809 A    
N8    O76   1.301483 A    
C20   C56   1.476794 S    
O24   Cu8   1.968953 S    
C151  O59   1.379775 S    
C118  C122  1.396362 A    
C70   C74   1.392215 A    
C51   C55   1.407576 A    
O20   C130  1.295397 A    
C147  C156  1.394627 A    
C94   H38   1.082915 S    
N16   O91   1.301091 A    
O57   H85   0.989304 S    
C74   C78   1.403446 A    
C57   C61   1.413218 A    
C20   C24   1.402135 A    
C161  C165  1.396703 A    
