data_mof_unit_13702.cif
_audit_creation_date              2012-10-26T20:18:14-0400
_audit_creation_method            fapswitch 2.2
_symmetry_space_group_name_H-M    P1
_symmetry_Int_Tables_number       1
_space_group_crystal_system       triclinic
_cell_length_a                    23.483181
_cell_length_b                    8.673502
_cell_length_c                    7.431692
_cell_angle_alpha                 103.12207
_cell_angle_beta                  93.582672
_cell_angle_gamma                 91.795737
_cell_volume                      1469.67722548

loop_
_atom_site_label
_atom_site_type_symbol
_atom_type_description
_atom_site_fract_x
_atom_site_fract_y
_atom_site_fract_z
_atom_type_partial_charge
C1    C     C_R   0.498294 0.199640 0.453161 0.548383
C2    C     C_R   0.703027 0.636618 0.584082 -0.160560
C3    C     C_R   0.237718 0.358622 0.418791 -0.051501
C4    C     C_R   0.762289 0.641321 0.581229 -0.051503
C5    C     C_R   0.209912 0.492096 0.509780 0.217162
C6    C     C_R   0.790089 0.507822 0.490281 0.217172
C7    C     C_2   0.497653 0.031718 0.426822 -0.166064
C8    C     C_2   0.502343 0.968281 0.573176 -0.166075
C9    C     C_R   0.391357 0.499947 0.503552 0.549219
C10   C     C_R   0.608643 0.500054 0.496449 0.549221
C11   C     C_R   0.883523 0.552860 0.659152 0.400927
C12   C     C_R   0.501705 0.800360 0.546839 0.548388
C13   C     C_R   0.116477 0.447035 0.340915 0.400924
C14   C     C_R   0.877271 0.464970 0.329241 0.403522
C15   C     C_R   0.122730 0.534913 0.670827 0.403523
C16   C     C_R   0.936757 0.455591 0.329470 0.029495
C17   C     C_R   0.063243 0.544286 0.670600 0.029496
C18   C     C_R   0.969982 0.502456 0.498530 -0.027356
C19   C     C_R   0.030019 0.497422 0.501540 -0.027356
C20   C     C_R   0.943339 0.554354 0.664585 0.025609
C21   C     C_R   0.056662 0.445528 0.335485 0.025609
C22   C     C_R   0.963669 0.400186 0.165062 -0.134145
C23   C     C_R   0.242548 0.628428 0.603186 -0.057709
C24   C     C_R   0.036331 0.599689 0.835008 -0.134146
C25   C     C_R   0.023006 0.394934 0.168106 -0.140681
C26   C     C_R   0.976994 0.604945 0.831964 -0.140681
C27   C     C_R   0.334570 0.772979 0.720029 0.034276
C28   C     C_R   0.350754 0.781768 0.907215 -0.051559
C29   C     C_R   0.378822 0.918982 0.016025 -0.101898
C30   C     C_R   0.390774 0.047878 0.938589 -0.104962
C31   C     C_R   0.374852 0.039691 0.751981 -0.115622
C32   C     C_R   0.346850 0.902359 0.642465 -0.091915
C33   C     C_R   0.665421 0.226982 0.280019 0.034262
C34   C     C_R   0.757448 0.371493 0.396895 -0.057696
C35   C     C_R   0.653177 0.097548 0.357529 -0.091957
C36   C     C_R   0.625167 0.960234 0.248002 -0.115622
C37   C     C_R   0.609203 0.952118 0.061433 -0.104985
C38   C     C_R   0.621122 0.081065 0.984051 -0.101891
C39   C     C_R   0.649195 0.218262 0.092875 -0.051504
C40   C     C_R   0.302164 0.631178 0.609173 -0.048571
C41   C     C_R   0.697832 0.368774 0.390878 -0.048565
C42   C     C_R   0.329453 0.498748 0.511152 0.002393
C43   C     C_R   0.670548 0.501233 0.488851 0.002388
C44   C     C_R   0.296979 0.363357 0.415909 -0.160553
Cu1   Cu    Cu3+1 0.506340 0.517380 0.684380 0.938493
Cu2   Cu    Cu3+1 0.493660 0.482620 0.315620 0.938484
H1    H     H_    0.939008 0.360801 0.033493 0.177996
H2    H     H_    0.786613 0.748606 0.651140 0.152757
H3    H     H_    0.493752 0.959973 0.285777 0.133742
H4    H     H_    0.506241 0.040026 0.714221 0.133711
H5    H     H_    0.454198 0.383416 0.949262 0.231238
H6    H     H_    0.545802 0.616582 0.050738 0.231232
H7    H     H_    0.341131 0.683060 0.968958 0.130179
H8    H     H_    0.390735 0.925921 0.160766 0.103685
H9    H     H_    0.412035 0.154203 0.023699 0.131420
H10   H     H_    0.384093 0.139812 0.692370 0.112424
H11   H     H_    0.334330 0.897292 0.498383 0.104437
H12   H     H_    0.060992 0.639074 0.966577 0.177999
H13   H     H_    0.665730 0.102561 0.501577 0.104461
H14   H     H_    0.615951 0.860074 0.307572 0.112434
H15   H     H_    0.587937 0.845808 0.976310 0.131436
H16   H     H_    0.609179 0.074181 0.839338 0.103716
H17   H     H_    0.658790 0.317011 0.031171 0.130179
H18   H     H_    0.042386 0.351421 0.038873 0.173057
H19   H     H_    0.957615 0.648459 0.961197 0.173058
H20   H     H_    0.221426 0.732430 0.672623 0.150046
H21   H     H_    0.778566 0.267474 0.327485 0.150037
H22   H     H_    0.317672 0.260317 0.341832 0.110671
H23   H     H_    0.682337 0.739677 0.658128 0.110670
H24   H     H_    0.213398 0.251332 0.348867 0.152767
N1    N     N_R   0.851551 0.509818 0.492897 -0.398662
N2    N     N_R   0.148450 0.490077 0.507169 -0.398659
N3    N     N_2   0.484110 0.456420 0.038520 -0.258503
N4    N     N_2   0.515890 0.543580 0.961480 -0.258508
O1    O     O_R   0.504120 0.286130 0.619770 -0.508030
O2    O     O_2   0.142407 0.408560 0.180795 -0.470212
O3    O     O_2   0.845456 0.430845 0.166350 -0.470179
O4    O     O_2   0.154544 0.569033 0.833717 -0.470182
O5    O     O_R   0.495880 0.713870 0.380230 -0.508018
O6    O     O_R   0.493410 0.256770 0.308360 -0.500692
O7    O     O_R   0.506590 0.743230 0.691640 -0.500697
O8    O     O_R   0.423230 0.514630 0.655730 -0.500193
O9    O     O_R   0.576770 0.485370 0.344270 -0.500222
O10   O     O_R   0.412530 0.485280 0.344320 -0.502133
O11   O     O_R   0.587470 0.514720 0.655680 -0.502124
O12   O     O_2   0.857593 0.591350 0.819269 -0.470208

loop_
_geom_bond_atom_site_label_1
_geom_bond_atom_site_label_2
_ccdc_geom_bond_type
C10   O11   A    
C14   N1    A    
C2    C4    A    
Cu1   O8    S    
C7    C8    D    
Cu1   Cu2   S    
C15   N2    A    
C9    C42   S    
C33   C39   A    
C23   H20   S    
C36   C37   A    
C19   C21   A    
C24   C26   A    
C5    N2    S    
H6    N4    S    
C30   C31   A    
C11   N1    A    
C15   O4    S    
C29   H8    S    
C11   O12   S    
C23   C40   A    
C12   O5    A    
C10   O9    A    
C35   H13   S    
C18   C19   A    
N3    N4    D    
C14   O3    S    
C33   C35   A    
Cu2   O5    S    
C35   C36   A    
C22   C25   A    
C31   H10   S    
C2    H23   S    
C2    C43   A    
C9    O8    A    
C40   C42   A    
C22   H1    S    
C10   C43   S    
C41   C43   A    
C34   C41   A    
C42   C44   A    
C32   H11   S    
C6    N1    S    
C3    C44   A    
C11   C20   A    
C17   C24   A    
C1    O1    A    
C3    H24   S    
C7    H3    S    
C4    C6    A    
C36   H14   S    
C6    C34   A    
Cu1   N4    S    
C25   H18   S    
Cu1   O11   S    
C37   C38   A    
C31   C32   A    
C5    C23   A    
C13   O2    S    
C27   C40   S    
C8    C12   S    
C13   C21   A    
Cu2   O10   S    
C16   C18   A    
C14   C16   A    
C44   H22   S    
C8    H4    S    
C4    H2    S    
C15   C17   A    
C21   C25   A    
C28   C29   A    
C16   C22   A    
C27   C32   A    
C1    C7    S    
C26   H19   S    
Cu1   O7    S    
H5    N3    S    
C3    C5    A    
C34   H21   S    
C37   H15   S    
C28   H7    S    
C13   N2    A    
C39   H17   S    
C30   H9    S    
Cu1   O1    S    
C33   C41   S    
Cu2   O6    S    
C38   C39   A    
C20   C26   A    
C17   C19   A    
C12   O7    A    
C18   C20   A    
C9    O10   A    
C29   C30   A    
Cu2   O9    S    
C24   H12   S    
C27   C28   A    
C1    O6    A    
Cu2   N3    S    
C38   H16   S    
