data_mof_unit_51964.cif
_audit_creation_date              2012-12-10T17:43:19-0500
_audit_creation_method            fapswitch 2.2
_symmetry_space_group_name_H-M    P1
_symmetry_Int_Tables_number       1
_space_group_crystal_system       triclinic
_cell_length_a                    15.022915
_cell_length_b                    13.878484
_cell_length_c                    10.692828
_cell_angle_alpha                 89.616007
_cell_angle_beta                  87.460495
_cell_angle_gamma                 89.974686
_cell_volume                      2227.1647061

loop_
_atom_site_label
_atom_site_type_symbol
_atom_type_description
_atom_site_fract_x
_atom_site_fract_y
_atom_site_fract_z
_atom_type_partial_charge
C1    C     C_R   0.329382 0.500106 0.500645 0.852019
C2    C     C_R   0.670573 0.500041 0.500156 0.840865
C3    C     C_R   0.952904 0.510151 0.498698 -0.137143
C4    C     C_R   0.046935 0.509898 0.499948 -0.172901
C5    C     C_R   0.910187 0.514919 0.382855 -0.030144
C6    C     C_R   0.089489 0.504940 0.615811 -0.080512
C7    C     C_R   0.944991 0.513661 0.728009 0.291952
C8    C     C_R   0.055885 0.513154 0.270677 0.299049
C9    C     C_R   0.037776 0.513014 0.728958 0.511294
C10   C     C_R   0.962564 0.521774 0.269674 0.400361
C11   C     C_R   0.460951 0.793855 0.599160 0.516190
C12   C     C_R   0.539019 0.206044 0.400963 0.533153
C13   C     C_R   0.539527 0.794706 0.401073 0.534336
C14   C     C_R   0.460424 0.205288 0.598923 0.538342
C15   C     C_R   0.535631 0.897448 0.395477 -0.068818
C16   C     C_R   0.464232 0.102518 0.604529 -0.067623
C17   C     C_R   0.465065 0.896358 0.604548 -0.062737
C18   C     C_R   0.534769 0.103569 0.395503 -0.059751
C19   C     C_R   0.499660 0.948483 0.499714 -0.174768
C20   C     C_R   0.500159 0.051454 0.500307 -0.177603
C21   C     C_R   0.570105 0.950145 0.289877 0.335547
C22   C     C_R   0.429708 0.049828 0.710110 0.337393
C23   C     C_R   0.434689 0.947517 0.712498 0.331613
C24   C     C_R   0.565089 0.052442 0.287508 0.337871
C25   C     C_R   0.499919 0.500393 0.260008 0.934512
C26   C     C_R   0.500205 0.499619 0.739826 0.950618
C27   C     C_3   0.491882 0.590902 0.038688 0.275207
C28   C     C_3   0.508213 0.409138 0.960356 0.246965
C29   C     C_3   0.568418 0.552194 0.953174 0.330312
C30   C     C_3   0.431603 0.447679 0.046130 0.244748
C31   C     C_3   0.423761 0.537303 0.961826 0.206353
C32   C     C_3   0.576315 0.462709 0.037303 0.199723
C33   C     C_3   0.500365 0.498761 0.875336 -0.218607
C34   C     C_3   0.499827 0.501309 0.124188 -0.267483
C35   C     C_R   0.816225 0.512833 0.382356 0.327226
C36   C     C_R   0.182657 0.493359 0.616481 0.323395
C37   C     C_R   0.766981 0.500927 0.496730 -0.257381
C38   C     C_R   0.232974 0.500981 0.502521 -0.286295
C39   C     C_R   0.808785 0.493056 0.610499 0.404077
C40   C     C_R   0.192091 0.516364 0.389110 0.475427
C41   C     C_R   0.901723 0.505771 0.613478 -0.140321
C42   C     C_R   0.098447 0.512969 0.385592 -0.062342
Cu1   Cu    Cu3+1 0.500000 0.597420 0.500000 0.993603
Cu2   Cu    Cu3+1 0.500000 0.402580 0.500000 0.994420
N1    N     N_R   0.500000 0.743810 0.500000 -0.321788
N2    N     N_R   0.500000 0.256190 0.500000 -0.319217
O1    O     O_R   0.370260 0.582280 0.500030 -0.624780
O2    O     O_R   0.629740 0.417720 0.499970 -0.621233
O3    O     O_R   0.629740 0.582280 0.499970 -0.607257
O4    O     O_R   0.370260 0.417720 0.500030 -0.599088
O5    O     O_R   0.499980 0.582260 0.316850 -0.549555
O6    O     O_R   0.500020 0.417740 0.683150 -0.555782
O7    O     O_R   0.500020 0.582260 0.683150 -0.540827
O8    O     O_R   0.499980 0.417740 0.316850 -0.553164
O9    O     O_3   0.345138 0.576924 0.918513 -0.678790
H1    H     H_    0.299393 0.567167 0.986969 0.371187
O10   O     O_3   0.657254 0.425408 0.075368 -0.656454
H2    H     H_    0.642781 0.361538 0.112643 0.366056
O11   O     O_3   0.483272 0.685903 0.080102 -0.633875
H3    H     H_    0.479893 0.725660 0.003107 0.382485
O12   O     O_3   0.517052 0.314275 0.918436 -0.631661
H4    H     H_    0.516239 0.273837 0.995231 0.370631
O13   O     O_3   0.639773 0.606557 0.902658 -0.647771
H5    H     H_    0.672164 0.629295 0.975641 0.362241
O14   O     O_3   0.360338 0.393178 0.096617 -0.631142
H6    H     H_    0.328704 0.369356 0.023535 0.370960
O15   O     O_3   0.774953 0.518944 0.269060 -0.635643
H7    H     H_    0.709426 0.520424 0.281023 0.320661
O16   O     O_3   0.221942 0.475173 0.729233 -0.646638
H8    H     H_    0.286250 0.461683 0.716436 0.324113
O17   O     O_3   0.756736 0.476154 0.718712 -0.551137
C43   C     C_3   0.757285 0.376445 0.745218 -0.116428
H9    H     H_    0.712511 0.362615 0.828656 0.231089
H10   H     H_    0.825085 0.351168 0.767473 0.169587
H11   H     H_    0.731758 0.333768 0.666702 0.134063
O18   O     O_3   0.245425 0.531988 0.281738 -0.504853
C44   C     C_3   0.252478 0.632373 0.260513 -0.208946
H12   H     H_    0.189121 0.662301 0.226943 0.153728
H13   H     H_    0.305335 0.645657 0.186847 0.212071
H14   H     H_    0.271835 0.672107 0.345213 0.142515
O19   O     O_3   0.899052 0.525714 0.841226 -0.643736
H15   H     H_    0.853141 0.575771 0.828797 0.359484
O20   O     O_3   0.106435 0.503349 0.160116 -0.666880
H16   H     H_    0.067424 0.487611 0.090944 0.394839
O21   O     O_3   0.077159 0.522570 0.842798 -0.493400
C45   C     C_3   0.094183 0.621284 0.862220 -0.187058
H17   H     H_    0.031223 0.663567 0.868921 0.121387
H18   H     H_    0.139866 0.651801 0.787293 0.163199
H19   H     H_    0.127490 0.629167 0.952082 0.198908
O22   O     O_3   0.923162 0.535385 0.156320 -0.486756
C46   C     C_3   0.923000 0.635130 0.129516 -0.156914
H20   H     H_    0.992007 0.663500 0.115525 0.107763
H21   H     H_    0.886203 0.676373 0.204373 0.148303
H22   H     H_    0.888272 0.647338 0.041496 0.204102
O23   O     O_3   0.415209 0.745793 0.694584 -0.624006
H23   H     H_    0.380169 0.694752 0.656540 0.356530
O24   O     O_3   0.585081 0.253965 0.305871 -0.665370
H24   H     H_    0.619905 0.305057 0.344149 0.347393
O25   O     O_3   0.583878 0.746972 0.305052 -0.610178
H25   H     H_    0.619131 0.695485 0.342639 0.344242
O26   O     O_3   0.416118 0.253033 0.694949 -0.604428
H26   H     H_    0.380863 0.304485 0.657319 0.345424
O27   O     O_3   0.608455 0.901053 0.189171 -0.660345
H27   H     H_    0.656113 0.941531 0.149062 0.328755
O28   O     O_3   0.391348 0.098942 0.810788 -0.654023
H28   H     H_    0.343667 0.058486 0.850878 0.332329
O29   O     O_3   0.413059 0.896770 0.821334 -0.669975
H29   H     H_    0.427331 0.936780 0.894194 0.334448
O30   O     O_3   0.586603 0.103215 0.178650 -0.676356
H30   H     H_    0.572349 0.063183 0.105804 0.334819

loop_
_geom_bond_atom_site_label_1
_geom_bond_atom_site_label_2
_ccdc_geom_bond_type
C38   C40   A    
O9    H1    S    
C29   O13   S    
O26   H26   S    
C27   C29   S    
C8    O20   S    
C19   C20   A    
C6    C9    A    
O24   H24   S    
O10   H2    S    
C39   C41   A    
O21   C45   S    
C15   C19   A    
C17   C23   A    
O20   H16   S    
C18   C24   A    
C35   C37   A    
C8    C42   A    
C29   C32   S    
C30   C31   S    
C45   H18   S    
Cu2   O4    S    
C29   C33   S    
C9    O21   S    
Cu1   O7    S    
C3    C41   A    
O23   H23   S    
O29   H29   S    
C31   C33   S    
C1    O4    A    
C25   C34   S    
C28   O12   S    
Cu2   O6    S    
C40   C42   A    
O11   H3    S    
O12   H4    S    
C32   O10   S    
C43   H11   S    
Cu2   N2    S    
O19   H15   S    
C44   H13   S    
C27   C34   S    
C30   C34   S    
C27   C31   S    
O15   H7    S    
C28   C32   S    
C25   O8    A    
C4    C6    A    
C46   H20   S    
C45   H17   S    
C1    O1    A    
C14   O26   S    
C2    O2    A    
C44   H12   S    
C40   O18   S    
C14   N2    A    
C12   N2    A    
C32   C34   S    
C13   O25   S    
Cu1   Cu2   S    
C25   O5    A    
C2    O3    A    
C26   O6    A    
C46   H21   S    
C26   C33   S    
O25   H25   S    
C35   O15   S    
C16   C20   A    
C23   O29   S    
O18   C44   S    
Cu1   N1    S    
C12   O24   S    
C1    C38   S    
C43   H10   S    
C7    O19   S    
C28   C33   S    
C13   C15   A    
C14   C16   A    
C11   N1    A    
C3    C4    A    
C26   O7    A    
C36   O16   S    
C44   H14   S    
C11   O23   S    
C7    C9    A    
C11   C17   A    
C16   C22   A    
Cu1   O3    S    
C24   O30   S    
C43   H9    S    
C3    C5    A    
C45   H19   S    
C22   O28   S    
O28   H28   S    
C36   C38   A    
C5    C10   A    
C37   C39   A    
C27   O11   S    
O30   H30   S    
C46   H22   S    
C13   N1    A    
C2    C37   S    
Cu1   O5    S    
O22   C46   S    
C15   C21   A    
C4    C42   A    
C5    C35   A    
C28   C30   S    
C17   C19   A    
C6    C36   A    
C18   C20   A    
C7    C41   A    
O16   H8    S    
C30   O14   S    
O13   H5    S    
C21   O27   S    
Cu2   O8    S    
O17   C43   S    
C10   O22   S    
C8    C10   A    
O14   H6    S    
C21   C24   A    
C12   C18   A    
O27   H27   S    
C39   O17   S    
C22   C23   A    
C31   O9    S    
Cu1   O1    S    
Cu2   O2    S    
