data_mof_unit_22356.cif
_audit_creation_date              2012-12-10T18:20:43-0500
_audit_creation_method            fapswitch 2.2
_symmetry_space_group_name_H-M    P1
_symmetry_Int_Tables_number       1
_space_group_crystal_system       triclinic
_cell_length_a                    15.833807
_cell_length_b                    10.614861
_cell_length_c                    9.426865
_cell_angle_alpha                 89.870528
_cell_angle_beta                  92.292952
_cell_angle_gamma                 89.646655
_cell_volume                      1583.10402375

loop_
_atom_site_label
_atom_site_type_symbol
_atom_type_description
_atom_site_fract_x
_atom_site_fract_y
_atom_site_fract_z
_atom_type_partial_charge
C1    C     C_R   0.500001 0.259424 0.500237 0.781595
C2    C     C_R   0.499962 0.740571 0.499764 0.778536
C3    C     C_3   0.569035 0.957117 0.572739 -0.167899
C4    C     C_3   0.430883 0.042865 0.427281 -0.168019
C5    C     C_3   0.499954 0.877540 0.499094 0.020137
C6    C     C_3   0.499969 0.122446 0.500922 0.020345
C7    C     C_3   0.430114 0.958465 0.561177 -0.166661
C8    C     C_3   0.569805 0.041511 0.438843 -0.163787
C9    C     C_3   0.562913 0.560766 0.053022 0.618115
C10   C     C_3   0.436996 0.439399 0.946922 0.612244
C11   C     C_3   0.495559 0.614591 0.948724 -0.207754
C12   C     C_3   0.504338 0.385487 0.051186 -0.192080
C13   C     C_3   0.568563 0.447244 0.953963 -0.195598
C14   C     C_3   0.431404 0.552889 0.046115 -0.211717
C15   C     C_R   0.339950 0.500268 0.497142 0.816977
C16   C     C_R   0.660087 0.499048 0.502936 0.813442
C17   C     C_3   0.979607 0.399509 0.581847 0.386423
C18   C     C_3   0.020122 0.602172 0.430961 0.307643
C19   C     C_3   0.024850 0.393120 0.439926 -0.003551
C20   C     C_3   0.974283 0.607021 0.573942 -0.056387
C21   C     C_1   0.250232 0.501279 0.489786 -0.184360
C22   C     C_1   0.749877 0.496957 0.511343 -0.146567
C23   C     C_3   0.037489 0.506978 0.635003 0.310115
C24   C     C_3   0.963016 0.493784 0.377684 0.337945
C25   C     C_3   0.083157 0.501985 0.493302 -0.150134
C26   C     C_3   0.917349 0.497783 0.519027 -0.089974
C27   C     C_1   0.174611 0.502129 0.486917 0.061705
C28   C     C_1   0.825536 0.495992 0.518467 0.141546
C29   C     C_3   0.499194 0.040334 0.634962 -0.132742
C30   C     C_3   0.500725 0.959648 0.365056 -0.134333
Cu1   Cu    Cu3+1 0.500020 0.499990 0.643150 0.971835
Cu2   Cu    Cu3+1 0.499980 0.500010 0.356850 0.979680
H1    H     H_    0.625477 0.918764 0.632185 0.141442
H2    H     H_    0.374437 0.081212 0.367846 0.138987
H3    H     H_    0.498511 0.075999 0.745557 0.146912
H4    H     H_    0.501410 0.923974 0.254464 0.146007
H5    H     H_    0.373021 0.921282 0.611166 0.132213
H6    H     H_    0.626901 0.078673 0.388852 0.140622
H7    H     H_    0.492370 0.710445 0.901470 0.137511
H8    H     H_    0.507012 0.289541 0.098251 0.139488
H9    H     H_    0.625844 0.403608 0.910252 0.139742
H10   H     H_    0.374444 0.597292 0.090042 0.134765
N1    N     N_3   0.500060 0.499970 0.858290 -0.187414
N2    N     N_3   0.499940 0.500030 0.141710 -0.186976
O1    O     O_R   0.500040 0.316850 0.620870 -0.557728
O2    O     O_R   0.499960 0.683150 0.379130 -0.559730
O3    O     O_R   0.500000 0.316860 0.379090 -0.597360
O4    O     O_R   0.500000 0.683140 0.620910 -0.597976
O5    O     O_R   0.379090 0.499980 0.620870 -0.530747
O6    O     O_R   0.620910 0.500020 0.379130 -0.514926
O7    O     O_R   0.379060 0.499990 0.379090 -0.589320
O8    O     O_R   0.620940 0.500010 0.620910 -0.594608
I1    I     I_    0.064916 0.225822 0.334731 -0.449390
I2    I     I_    0.925364 0.757123 0.699306 -0.517507
O9    O     O_3   0.951551 0.294772 0.659192 -0.558979
C31   C     C_3   0.020686 0.234745 0.731115 0.094919
H11   H     H_    0.034926 0.283032 0.833624 0.186911
H12   H     H_    0.078729 0.233099 0.667994 0.164056
C32   C     C_3   0.997433 0.099238 0.762988 -0.727323
H13   H     H_    0.983675 0.048211 0.662065 0.276004
H14   H     H_    0.050840 0.051523 0.821678 0.205847
H15   H     H_    0.940835 0.096747 0.828838 0.256571
O10   O     O_3   0.047737 0.702220 0.345594 -0.577791
C33   C     C_3   0.984936 0.797006 0.334294 0.086419
H16   H     H_    0.988546 0.856854 0.430685 0.201581
H17   H     H_    0.920037 0.757580 0.319785 0.156819
C34   C     C_3   0.001051 0.881185 0.207439 -0.763526
H18   H     H_    0.992125 0.827696 0.107155 0.231284
H19   H     H_    0.955788 0.961569 0.204942 0.231374
H20   H     H_    0.066475 0.918381 0.215301 0.273822
O11   O     O_3   0.912877 0.482481 0.251297 -0.574581
C35   C     C_3   0.961099 0.502870 0.131469 0.109504
H21   H     H_    0.023735 0.454601 0.139638 0.176863
H22   H     H_    0.970333 0.605275 0.116304 0.176080
C36   C     C_3   0.911948 0.452546 0.001911 -0.710990
H23   H     H_    0.846999 0.492600 0.996600 0.243962
H24   H     H_    0.943357 0.479512 0.903844 0.265890
H25   H     H_    0.908121 0.348239 0.007803 0.250412
O12   O     O_3   0.075289 0.507635 0.773470 -0.605387
C37   C     C_3   0.135902 0.604219 0.788913 0.093893
H26   H     H_    0.121959 0.687509 0.719386 0.173075
H27   H     H_    0.199116 0.565830 0.765076 0.168117
C38   C     C_3   0.139720 0.648749 0.942119 -0.773461
H28   H     H_    0.152784 0.567972 0.014982 0.244840
H29   H     H_    0.190663 0.719398 0.957688 0.201029
H30   H     H_    0.078582 0.692867 0.967636 0.258382
O13   O     O_3   0.630413 0.626700 0.120218 -0.556558
C39   C     C_3   0.682838 0.677213 0.017164 0.042646
H31   H     H_    0.647914 0.748691 0.950700 0.138076
H32   H     H_    0.707550 0.601957 0.947712 0.147895
C40   C     C_3   0.757900 0.741336 0.091770 -0.758494
H33   H     H_    0.793180 0.672725 0.161073 0.271805
H34   H     H_    0.801074 0.778722 0.012003 0.223910
H35   H     H_    0.735672 0.820443 0.157884 0.241601
O14   O     O_3   0.370170 0.372033 0.879651 -0.562730
C41   C     C_3   0.311567 0.336058 0.980682 0.040032
H36   H     H_    0.283057 0.420188 0.030721 0.147180
H37   H     H_    0.342101 0.274892 0.064332 0.141500
C42   C     C_3   0.240577 0.262381 0.906533 -0.769439
H38   H     H_    0.266258 0.175521 0.858375 0.240951
H39   H     H_    0.192901 0.235692 0.984307 0.216059
H40   H     H_    0.209357 0.321005 0.821717 0.259221

loop_
_geom_bond_atom_site_label_1
_geom_bond_atom_site_label_2
_ccdc_geom_bond_type
O13   C39   S    
C7    C29   S    
O14   C41   S    
Cu1   O8    S    
O9    C31   S    
C13   H9    S    
C2    O2    A    
C17   C23   S    
Cu1   N1    S    
C38   H28   S    
C18   C24   S    
C17   C26   S    
C14   N2    S    
C24   C26   S    
C4    C7    S    
C37   H26   S    
C11   C14   S    
C18   O10   S    
C3    H1    S    
C41   C42   S    
C31   H11   S    
C3    C29   S    
C9    C13   S    
Cu1   Cu2   S    
C9    N2    S    
C41   H37   S    
C20   C23   S    
C11   N1    S    
C15   O7    A    
C17   O9    S    
C14   H10   S    
C19   I1    S    
C23   C25   S    
C21   C27   T    
C32   H13   S    
C22   C28   T    
C18   C25   S    
C8    H6    S    
Cu1   O5    S    
C35   C36   S    
Cu2   N2    S    
C4    H2    S    
C32   H14   S    
C34   H18   S    
C33   C34   S    
O12   C37   S    
C20   I2    S    
C3    C8    S    
C10   C14   S    
C40   H33   S    
C5    C7    S    
C1    O3    A    
C6    C8    S    
C2    O4    A    
C1    C6    S    
C34   H19   S    
C33   H17   S    
C12   H8    S    
C36   H23   S    
Cu2   O7    S    
C40   H34   S    
C36   H24   S    
C42   H38   S    
C39   C40   S    
C41   H36   S    
C42   H40   S    
C7    H5    S    
C12   C13   S    
C11   H7    S    
C9    C11   S    
Cu2   O6    S    
C10   C12   S    
C35   H22   S    
C38   H29   S    
C39   H32   S    
Cu1   O4    S    
Cu2   O3    S    
C4    C6    S    
C13   N1    S    
C37   C38   S    
C5    C30   S    
C32   H15   S    
C16   C22   S    
C42   H39   S    
C10   N1    S    
Cu2   O2    S    
C16   O8    A    
C16   O6    A    
C35   H21   S    
C3    C5    S    
C6    C29   S    
C25   C27   S    
C29   H3    S    
C26   C28   S    
C31   C32   S    
C30   H4    S    
C34   H20   S    
C8    C30   S    
C33   H16   S    
C19   C24   S    
O11   C35   S    
C12   N2    S    
C9    O13   S    
C40   H35   S    
C1    O1    A    
C20   C26   S    
C10   O14   S    
C17   C19   S    
C37   H27   S    
C31   H12   S    
C18   C20   S    
C15   O5    A    
C19   C25   S    
C36   H25   S    
O10   C33   S    
C2    C5    S    
C15   C21   S    
C38   H30   S    
C39   H31   S    
Cu1   O1    S    
C23   O12   S    
C4    C30   S    
C24   O11   S    
